
  xtb     02262223263D
 energy: -287.944035633260 gnorm: 0.000734652814 xtb: 6.4.1 (unknown)
170193  0     0  0            999 V2000
    4.5882  -13.1508    2.4447 C   0  0  0  0  0  0  0  0  0  0  0  0
    5.7580  -12.6000    2.8456 C   0  0  0  0  0  0  0  0  0  0  0  0
    6.0480  -11.1350    2.8613 C   0  0  0  0  0  0  0  0  0  0  0  0
    5.2839  -10.2206    2.6480 O   0  0  0  0  0  0  0  0  0  0  0  0
    7.4984  -11.0217    3.0895 C   0  0  0  0  0  0  0  0  0  0  0  0
    8.2332   -9.8386    3.1552 C   0  0  0  0  0  0  0  0  0  0  0  0
    9.5766  -10.0263    3.3686 C   0  0  0  0  0  0  0  0  0  0  0  0
   10.1522  -11.2987    3.5002 C   0  0  0  0  0  0  0  0  0  0  0  0
    9.4402  -12.4721    3.4395 C   0  0  0  0  0  0  0  0  0  0  0  0
    8.0663  -12.3045    3.2272 C   0  0  0  0  0  0  0  0  0  0  0  0
    7.0079  -13.3006    3.1124 C   0  0  0  0  0  0  0  0  0  0  0  0
    7.1534  -14.6502    3.2860 C   0  0  0  0  0  0  0  0  0  0  0  0
    8.3790  -15.2953    3.5575 C   0  0  0  0  0  0  0  0  0  0  0  0
    9.3388  -15.8863    3.7752 N   0  0  0  0  0  0  0  0  0  0  0  0
    6.1030  -15.5922    3.2353 C   0  0  0  0  0  0  0  0  0  0  0  0
    5.3064  -16.4190    3.2196 N   0  0  0  0  0  0  0  0  0  0  0  0
   11.5415  -10.7382    3.6783 C   0  0  0  0  0  0  0  0  0  0  0  0
   12.4784  -10.8128    2.4539 C   0  0  0  0  0  0  0  0  0  0  0  0
   13.5496   -9.7894    2.7553 C   0  0  0  0  0  0  0  0  0  0  0  0
   13.0039   -8.5860    2.6339 C   0  0  0  0  0  0  0  0  0  0  0  0
   11.5545   -8.7756    2.2486 C   0  0  0  0  0  0  0  0  0  0  0  0
   11.6721  -10.0464    1.3972 C   0  0  0  0  0  0  0  0  0  0  0  0
   10.8988   -9.3211    3.5353 C   0  0  0  0  0  0  0  0  0  0  0  0
    3.3573  -12.4206    2.2351 C   0  0  0  0  0  0  0  0  0  0  0  0
    2.9341  -11.4276    3.1334 C   0  0  0  0  0  0  0  0  0  0  0  0
    1.8007  -10.7129    2.8351 C   0  0  0  0  0  0  0  0  0  0  0  0
    1.1755   -9.5926    3.5886 C   0  0  0  0  0  0  0  0  0  0  0  0
    1.4804   -9.1653    4.6753 O   0  0  0  0  0  0  0  0  0  0  0  0
    0.0786   -9.1235    2.6987 C   0  0  0  0  0  0  0  0  0  0  0  0
    0.0154   -9.9474    1.5562 C   0  0  0  0  0  0  0  0  0  0  0  0
    1.0729  -10.9441    1.6492 C   0  0  0  0  0  0  0  0  0  0  0  0
    1.4470  -11.9690    0.7995 C   0  0  0  0  0  0  0  0  0  0  0  0
    2.5756  -12.7109    1.1127 C   0  0  0  0  0  0  0  0  0  0  0  0
   -0.9020   -9.6709    0.5603 C   0  0  0  0  0  0  0  0  0  0  0  0
   -1.7212   -8.5606    0.7009 C   0  0  0  0  0  0  0  0  0  0  0  0
   -1.6554   -7.7332    1.8242 C   0  0  0  0  0  0  0  0  0  0  0  0
   -0.7415   -8.0332    2.8485 C   0  0  0  0  0  0  0  0  0  0  0  0
   -2.4346   -6.5156    1.8898 C   0  0  0  0  0  0  0  0  0  0  0  0
   -2.9100   -5.8439    2.9959 C   0  0  0  0  0  0  0  0  0  0  0  0
   -2.9528   -6.3851    4.3551 C   0  0  0  0  0  0  0  0  0  0  0  0
   -3.3281   -7.7085    4.5791 C   0  0  0  0  0  0  0  0  0  0  0  0
   -3.3918   -8.1960    5.8693 C   0  0  0  0  0  0  0  0  0  0  0  0
   -3.0908   -7.3751    6.9433 C   0  0  0  0  0  0  0  0  0  0  0  0
   -2.7190   -6.0531    6.7386 C   0  0  0  0  0  0  0  0  0  0  0  0
   -2.4406   -5.1358    7.8937 C   0  0  0  0  0  0  0  0  0  0  0  0
   -3.6755   -4.2885    8.2069 C   0  0  0  0  0  0  0  0  0  0  0  0
   -2.6552   -5.5690    5.4403 C   0  0  0  0  0  0  0  0  0  0  0  0
   -3.4212   -4.5738    2.6436 C   0  0  0  0  0  0  0  0  0  0  0  0
   -4.0875   -3.2585    3.5826 S   0  0  0  0  0  0  0  0  0  0  0  0
   -4.2253   -2.3222    2.1334 C   0  0  0  0  0  0  0  0  0  0  0  0
   -4.5325   -1.0082    1.7413 C   0  0  0  0  0  0  0  0  0  0  0  0
   -4.8182    0.1439    2.5059 C   0  0  0  0  0  0  0  0  0  0  0  0
   -4.8507    1.4203    1.8496 C   0  0  0  0  0  0  0  0  0  0  0  0
   -5.0444    2.4194    2.6961 N   0  0  0  0  0  0  0  0  0  0  0  0
   -5.1820    1.8072    4.1889 S   0  0  0  0  0  0  0  0  0  0  0  0
   -4.9950    0.2432    3.8140 N   0  0  0  0  0  0  0  0  0  0  0  0
   -4.7355    1.4669    0.4433 C   0  0  0  0  0  0  0  0  0  0  0  0
   -4.8300    2.5354   -0.4620 C   0  0  0  0  0  0  0  0  0  0  0  0
   -4.9671    4.2598   -0.4354 S   0  0  0  0  0  0  0  0  0  0  0  0
   -4.9925    4.2543   -2.1810 C   0  0  0  0  0  0  0  0  0  0  0  0
   -5.0700    5.2919   -3.1251 C   0  0  0  0  0  0  0  0  0  0  0  0
   -5.1780    6.7071   -2.7581 C   0  0  0  0  0  0  0  0  0  0  0  0
   -6.2444    7.4739   -3.2186 C   0  0  0  0  0  0  0  0  0  0  0  0
   -6.3521    8.7978   -2.8376 C   0  0  0  0  0  0  0  0  0  0  0  0
   -5.4085    9.3586   -1.9960 C   0  0  0  0  0  0  0  0  0  0  0  0
   -4.3450    8.6031   -1.5153 C   0  0  0  0  0  0  0  0  0  0  0  0
   -3.3247    9.2269   -0.6073 C   0  0  0  0  0  0  0  0  0  0  0  0
   -2.3439   10.0960   -1.3960 C   0  0  0  0  0  0  0  0  0  0  0  0
   -4.2394    7.2766   -1.9044 C   0  0  0  0  0  0  0  0  0  0  0  0
   -5.0570    4.7991   -4.4191 C   0  0  0  0  0  0  0  0  0  0  0  0
   -4.9813    3.0411   -4.4624 S   0  0  0  0  0  0  0  0  0  0  0  0
   -4.9197    2.9728   -2.7366 C   0  0  0  0  0  0  0  0  0  0  0  0
   -4.8034    1.9879   -1.7487 C   0  0  0  0  0  0  0  0  0  0  0  0
   -4.6658    0.6258   -1.6720 N   0  0  0  0  0  0  0  0  0  0  0  0
   -4.5877    0.2842   -0.3339 C   0  0  0  0  0  0  0  0  0  0  0  0
   -4.3452   -0.9447    0.3332 C   0  0  0  0  0  0  0  0  0  0  0  0
   -3.9117   -2.1862   -0.1108 N   0  0  0  0  0  0  0  0  0  0  0  0
   -3.8175   -3.0032    0.9861 C   0  0  0  0  0  0  0  0  0  0  0  0
   -3.3514   -4.2922    1.2800 C   0  0  0  0  0  0  0  0  0  0  0  0
   -2.6658   -5.6118    0.4019 S   0  0  0  0  0  0  0  0  0  0  0  0
   -3.1121   -2.5037   -1.2741 C   0  0  0  0  0  0  0  0  0  0  0  0
   -1.7465   -1.8238   -1.2005 C   0  0  0  0  0  0  0  0  0  0  0  0
   -4.9850   -0.2012   -2.8139 C   0  0  0  0  0  0  0  0  0  0  0  0
   -3.8539   -0.2450   -3.8401 C   0  0  0  0  0  0  0  0  0  0  0  0
   -4.9504    5.5044   -5.6448 C   0  0  0  0  0  0  0  0  0  0  0  0
   -5.0474    4.9835   -6.9228 C   0  0  0  0  0  0  0  0  0  0  0  0
   -4.7879    5.9148   -7.9212 C   0  0  0  0  0  0  0  0  0  0  0  0
   -4.4307    7.1595   -7.4363 C   0  0  0  0  0  0  0  0  0  0  0  0
   -4.5170    7.1833   -5.6906 S   0  0  0  0  0  0  0  0  0  0  0  0
   -4.0899    8.3109   -8.1845 C   0  0  0  0  0  0  0  0  0  0  0  0
   -3.3950    9.3975   -7.7515 C   0  0  0  0  0  0  0  0  0  0  0  0
   -3.4991   10.7050   -8.4509 C   0  0  0  0  0  0  0  0  0  0  0  0
   -3.9457   10.9037   -9.5585 O   0  0  0  0  0  0  0  0  0  0  0  0
   -3.0024   11.7025   -7.4801 C   0  0  0  0  0  0  0  0  0  0  0  0
   -3.0050   13.0892   -7.6153 C   0  0  0  0  0  0  0  0  0  0  0  0
   -2.4921   13.7595   -6.5305 C   0  0  0  0  0  0  0  0  0  0  0  0
   -2.0276   13.1048   -5.3813 C   0  0  0  0  0  0  0  0  0  0  0  0
   -2.0112   11.7385   -5.2347 C   0  0  0  0  0  0  0  0  0  0  0  0
   -2.5086   11.0394   -6.3363 C   0  0  0  0  0  0  0  0  0  0  0  0
   -2.5840    9.6015   -6.5698 C   0  0  0  0  0  0  0  0  0  0  0  0
   -1.7883    8.6596   -5.9710 C   0  0  0  0  0  0  0  0  0  0  0  0
   -1.6607    7.3378   -6.4479 C   0  0  0  0  0  0  0  0  0  0  0  0
   -1.4816    6.2715   -6.8339 N   0  0  0  0  0  0  0  0  0  0  0  0
   -0.9441    8.9156   -4.8755 C   0  0  0  0  0  0  0  0  0  0  0  0
   -0.2611    9.0582   -3.9628 N   0  0  0  0  0  0  0  0  0  0  0  0
   -1.6600   14.3967   -4.6961 C   0  0  0  0  0  0  0  0  0  0  0  0
   -0.1601   14.7779   -4.6470 C   0  0  0  0  0  0  0  0  0  0  0  0
    0.4892   14.1081   -5.8329 C   0  0  0  0  0  0  0  0  0  0  0  0
    0.0635   14.7239   -6.9277 C   0  0  0  0  0  0  0  0  0  0  0  0
   -0.8806   15.8212   -6.5021 C   0  0  0  0  0  0  0  0  0  0  0  0
   -0.2416   16.2233   -5.1632 C   0  0  0  0  0  0  0  0  0  0  0  0
   -2.1636   15.1256   -5.9817 C   0  0  0  0  0  0  0  0  0  0  0  0
    4.5565  -14.2064    2.2039 H   0  0  0  0  0  0  0  0  0  0  0  0
    7.7476   -8.8812    3.0493 H   0  0  0  0  0  0  0  0  0  0  0  0
    9.8973  -13.4418    3.5431 H   0  0  0  0  0  0  0  0  0  0  0  0
   12.0395  -10.9938    4.6114 H   0  0  0  0  0  0  0  0  0  0  0  0
   12.8156  -11.8138    2.1993 H   0  0  0  0  0  0  0  0  0  0  0  0
   14.5461  -10.0388    3.0691 H   0  0  0  0  0  0  0  0  0  0  0  0
   13.4531   -7.6294    2.8262 H   0  0  0  0  0  0  0  0  0  0  0  0
   11.0491   -7.9210    1.8071 H   0  0  0  0  0  0  0  0  0  0  0  0
   12.2434   -9.8791    0.4856 H   0  0  0  0  0  0  0  0  0  0  0  0
   10.7164  -10.5044    1.1486 H   0  0  0  0  0  0  0  0  0  0  0  0
   10.9669   -8.6306    4.3737 H   0  0  0  0  0  0  0  0  0  0  0  0
    3.4747  -11.2361    4.0463 H   0  0  0  0  0  0  0  0  0  0  0  0
    0.8845  -12.1854   -0.0961 H   0  0  0  0  0  0  0  0  0  0  0  0
    2.8927  -13.5025    0.4487 H   0  0  0  0  0  0  0  0  0  0  0  0
   -0.9713  -10.2877   -0.3229 H   0  0  0  0  0  0  0  0  0  0  0  0
   -2.4252   -8.3171   -0.0826 H   0  0  0  0  0  0  0  0  0  0  0  0
   -0.6530   -7.3980    3.7157 H   0  0  0  0  0  0  0  0  0  0  0  0
   -3.5772   -8.3440    3.7420 H   0  0  0  0  0  0  0  0  0  0  0  0
   -3.6823   -9.2221    6.0404 H   0  0  0  0  0  0  0  0  0  0  0  0
   -3.1446   -7.7652    7.9493 H   0  0  0  0  0  0  0  0  0  0  0  0
   -2.1671   -5.7197    8.7744 H   0  0  0  0  0  0  0  0  0  0  0  0
   -1.6060   -4.4758    7.6479 H   0  0  0  0  0  0  0  0  0  0  0  0
   -3.9542   -3.6904    7.3423 H   0  0  0  0  0  0  0  0  0  0  0  0
   -4.5166   -4.9281    8.4655 H   0  0  0  0  0  0  0  0  0  0  0  0
   -3.4768   -3.6214    9.0424 H   0  0  0  0  0  0  0  0  0  0  0  0
   -2.3520   -4.5461    5.2704 H   0  0  0  0  0  0  0  0  0  0  0  0
   -6.9897    7.0258   -3.8597 H   0  0  0  0  0  0  0  0  0  0  0  0
   -7.1814    9.3920   -3.1922 H   0  0  0  0  0  0  0  0  0  0  0  0
   -5.5037   10.3926   -1.6967 H   0  0  0  0  0  0  0  0  0  0  0  0
   -3.8339    9.8462    0.1353 H   0  0  0  0  0  0  0  0  0  0  0  0
   -2.7729    8.4474   -0.0798 H   0  0  0  0  0  0  0  0  0  0  0  0
   -1.7780    9.4910   -2.1008 H   0  0  0  0  0  0  0  0  0  0  0  0
   -2.8793   10.8647   -1.9506 H   0  0  0  0  0  0  0  0  0  0  0  0
   -1.6426   10.5807   -0.7211 H   0  0  0  0  0  0  0  0  0  0  0  0
   -3.4157    6.6759   -1.5466 H   0  0  0  0  0  0  0  0  0  0  0  0
   -3.6263   -2.2306   -2.1912 H   0  0  0  0  0  0  0  0  0  0  0  0
   -2.9818   -3.5888   -1.2778 H   0  0  0  0  0  0  0  0  0  0  0  0
   -1.8580   -0.7421   -1.1628 H   0  0  0  0  0  0  0  0  0  0  0  0
   -1.2166   -2.1442   -0.3063 H   0  0  0  0  0  0  0  0  0  0  0  0
   -1.1501   -2.0895   -2.0692 H   0  0  0  0  0  0  0  0  0  0  0  0
   -5.2558   -1.1961   -2.4574 H   0  0  0  0  0  0  0  0  0  0  0  0
   -5.8726    0.2264   -3.2950 H   0  0  0  0  0  0  0  0  0  0  0  0
   -4.1058   -0.9446   -4.6326 H   0  0  0  0  0  0  0  0  0  0  0  0
   -2.9137   -0.5456   -3.3878 H   0  0  0  0  0  0  0  0  0  0  0  0
   -3.7154    0.7368   -4.2837 H   0  0  0  0  0  0  0  0  0  0  0  0
   -5.3008    3.9542   -7.1069 H   0  0  0  0  0  0  0  0  0  0  0  0
   -4.8101    5.6899   -8.9725 H   0  0  0  0  0  0  0  0  0  0  0  0
   -4.4844    8.3657   -9.1940 H   0  0  0  0  0  0  0  0  0  0  0  0
   -3.3792   13.5588   -8.5114 H   0  0  0  0  0  0  0  0  0  0  0  0
   -1.6558   11.2402   -4.3475 H   0  0  0  0  0  0  0  0  0  0  0  0
   -2.1734   14.6039   -3.7591 H   0  0  0  0  0  0  0  0  0  0  0  0
    0.3160   14.6149   -3.6839 H   0  0  0  0  0  0  0  0  0  0  0  0
    1.1247   13.2452   -5.7586 H   0  0  0  0  0  0  0  0  0  0  0  0
    0.2734   14.4785   -7.9524 H   0  0  0  0  0  0  0  0  0  0  0  0
   -1.0585   16.6097   -7.2287 H   0  0  0  0  0  0  0  0  0  0  0  0
    0.7382   16.6826   -5.2854 H   0  0  0  0  0  0  0  0  0  0  0  0
   -0.8763   16.8664   -4.5549 H   0  0  0  0  0  0  0  0  0  0  0  0
   -2.9984   15.8172   -5.8841 H   0  0  0  0  0  0  0  0  0  0  0  0
  1  2  2  0  0  0  0
  2  3  1  0  0  0  0
  3  4  2  0  0  0  0
  3  5  1  0  0  0  0
  5  6  2  0  0  0  0
  6  7  1  0  0  0  0
  7  8  2  0  0  0  0
  8  9  1  0  0  0  0
  9 10  2  0  0  0  0
 10 11  1  0  0  0  0
 11 12  2  0  0  0  0
 12 13  1  0  0  0  0
 13 14  3  0  0  0  0
 12 15  1  0  0  0  0
 15 16  3  0  0  0  0
  8 17  1  0  0  0  0
 17 18  1  0  0  0  0
 18 19  1  0  0  0  0
 19 20  2  0  0  0  0
 20 21  1  0  0  0  0
 21 22  1  0  0  0  0
 21 23  1  0  0  0  0
  1 24  1  0  0  0  0
 24 25  2  0  0  0  0
 25 26  1  0  0  0  0
 26 27  1  0  0  0  0
 27 28  2  0  0  0  0
 27 29  1  0  0  0  0
 29 30  2  0  0  0  0
 30 31  1  0  0  0  0
 31 32  1  0  0  0  0
 32 33  2  0  0  0  0
 30 34  1  0  0  0  0
 34 35  2  0  0  0  0
 35 36  1  0  0  0  0
 36 37  2  0  0  0  0
 36 38  1  0  0  0  0
 38 39  2  0  0  0  0
 39 40  1  0  0  0  0
 40 41  2  0  0  0  0
 41 42  1  0  0  0  0
 42 43  2  0  0  0  0
 43 44  1  0  0  0  0
 44 45  1  0  0  0  0
 45 46  1  0  0  0  0
 44 47  2  0  0  0  0
 39 48  1  0  0  0  0
 48 49  1  0  0  0  0
 49 50  1  0  0  0  0
 50 51  1  0  0  0  0
 51 52  1  0  0  0  0
 52 53  1  0  0  0  0
 53 54  2  0  0  0  0
 54 55  1  0  0  0  0
 55 56  1  0  0  0  0
 53 57  1  0  0  0  0
 57 58  1  0  0  0  0
 58 59  1  0  0  0  0
 59 60  1  0  0  0  0
 60 61  1  0  0  0  0
 61 62  1  0  0  0  0
 62 63  2  0  0  0  0
 63 64  1  0  0  0  0
 64 65  2  0  0  0  0
 65 66  1  0  0  0  0
 66 67  1  0  0  0  0
 67 68  1  0  0  0  0
 66 69  2  0  0  0  0
 61 70  2  0  0  0  0
 70 71  1  0  0  0  0
 71 72  1  0  0  0  0
 72 73  1  0  0  0  0
 73 74  1  0  0  0  0
 74 75  1  0  0  0  0
 75 76  1  0  0  0  0
 76 77  1  0  0  0  0
 77 78  1  0  0  0  0
 78 79  1  0  0  0  0
 79 80  1  0  0  0  0
 77 81  1  0  0  0  0
 81 82  1  0  0  0  0
 74 83  1  0  0  0  0
 83 84  1  0  0  0  0
 70 85  1  0  0  0  0
 85 86  2  0  0  0  0
 86 87  1  0  0  0  0
 87 88  2  0  0  0  0
 88 89  1  0  0  0  0
 88 90  1  0  0  0  0
 90 91  2  0  0  0  0
 91 92  1  0  0  0  0
 92 93  2  0  0  0  0
 92 94  1  0  0  0  0
 94 95  2  0  0  0  0
 95 96  1  0  0  0  0
 96 97  2  0  0  0  0
 97 98  1  0  0  0  0
 98 99  2  0  0  0  0
 99100  1  0  0  0  0
100101  2  0  0  0  0
101102  1  0  0  0  0
102103  3  0  0  0  0
101104  1  0  0  0  0
104105  3  0  0  0  0
 97106  1  0  0  0  0
106107  1  0  0  0  0
107108  1  0  0  0  0
108109  2  0  0  0  0
109110  1  0  0  0  0
110111  1  0  0  0  0
110112  1  0  0  0  0
 11  2  1  0  0  0  0
 23 17  1  0  0  0  0
 33 24  1  0  0  0  0
 80 38  1  0  0  0  0
 89 85  1  0  0  0  0
100 91  1  0  0  0  0
112106  1  0  0  0  0
 10  5  1  0  0  0  0
 22 18  1  0  0  0  0
 31 26  2  0  0  0  0
 47 40  1  0  0  0  0
 79 48  2  0  0  0  0
 99 94  1  0  0  0  0
111107  1  0  0  0  0
 23  7  1  0  0  0  0
 37 29  1  0  0  0  0
 78 50  2  0  0  0  0
112 96  1  0  0  0  0
 76 51  2  0  0  0  0
 56 52  2  0  0  0  0
 75 57  2  0  0  0  0
 73 58  2  0  0  0  0
 72 60  2  0  0  0  0
 69 62  1  0  0  0  0
  1113  1  0  0  0  0
  6114  1  0  0  0  0
  9115  1  0  0  0  0
 17116  1  0  0  0  0
 18117  1  0  0  0  0
 19118  1  0  0  0  0
 20119  1  0  0  0  0
 21120  1  0  0  0  0
 22121  1  0  0  0  0
 22122  1  0  0  0  0
 23123  1  0  0  0  0
 25124  1  0  0  0  0
 32125  1  0  0  0  0
 33126  1  0  0  0  0
 34127  1  0  0  0  0
 35128  1  0  0  0  0
 37129  1  0  0  0  0
 41130  1  0  0  0  0
 42131  1  0  0  0  0
 43132  1  0  0  0  0
 45133  1  0  0  0  0
 45134  1  0  0  0  0
 46135  1  0  0  0  0
 46136  1  0  0  0  0
 46137  1  0  0  0  0
 47138  1  0  0  0  0
 63139  1  0  0  0  0
 64140  1  0  0  0  0
 65141  1  0  0  0  0
 67142  1  0  0  0  0
 67143  1  0  0  0  0
 68144  1  0  0  0  0
 68145  1  0  0  0  0
 68146  1  0  0  0  0
 69147  1  0  0  0  0
 81148  1  0  0  0  0
 81149  1  0  0  0  0
 82150  1  0  0  0  0
 82151  1  0  0  0  0
 82152  1  0  0  0  0
 83153  1  0  0  0  0
 83154  1  0  0  0  0
 84155  1  0  0  0  0
 84156  1  0  0  0  0
 84157  1  0  0  0  0
 86158  1  0  0  0  0
 87159  1  0  0  0  0
 90160  1  0  0  0  0
 95161  1  0  0  0  0
 98162  1  0  0  0  0
106163  1  0  0  0  0
107164  1  0  0  0  0
108165  1  0  0  0  0
109166  1  0  0  0  0
110167  1  0  0  0  0
111168  1  0  0  0  0
111169  1  0  0  0  0
112170  1  0  0  0  0
M  END
