
  xtb     02142220343D
 energy: -386.713141221002 gnorm: 0.000712992714 xtb: 6.4.1 (unknown)
233260  0     0  0            999 V2000
    7.0917   -6.3789    8.8578 C   0  0  0  0  0  0  0  0  0  0  0  0
    6.0654   -7.2478    9.0217 C   0  0  0  0  0  0  0  0  0  0  0  0
    4.7226   -7.0994    8.3902 C   0  0  0  0  0  0  0  0  0  0  0  0
    4.3417   -6.2305    7.6356 O   0  0  0  0  0  0  0  0  0  0  0  0
    3.8853   -8.1531    8.9905 C   0  0  0  0  0  0  0  0  0  0  0  0
    2.5415   -8.4028    8.7153 C   0  0  0  0  0  0  0  0  0  0  0  0
    1.9980   -9.4257    9.4532 C   0  0  0  0  0  0  0  0  0  0  0  0
    2.7340  -10.1461   10.4048 C   0  0  0  0  0  0  0  0  0  0  0  0
    4.0581   -9.9119   10.6868 C   0  0  0  0  0  0  0  0  0  0  0  0
    4.6337   -8.8764    9.9413 C   0  0  0  0  0  0  0  0  0  0  0  0
    5.9959   -8.3556    9.9602 C   0  0  0  0  0  0  0  0  0  0  0  0
    7.0457   -8.8767   10.6673 C   0  0  0  0  0  0  0  0  0  0  0  0
    8.3792   -8.4188   10.5902 C   0  0  0  0  0  0  0  0  0  0  0  0
    9.4898   -8.1292   10.5675 N   0  0  0  0  0  0  0  0  0  0  0  0
    6.9504   -9.9720   11.5515 C   0  0  0  0  0  0  0  0  0  0  0  0
    6.9433  -10.8522   12.2886 N   0  0  0  0  0  0  0  0  0  0  0  0
    1.5553  -11.0093   10.7802 C   0  0  0  0  0  0  0  0  0  0  0  0
    0.8368  -10.6592   12.1006 C   0  0  0  0  0  0  0  0  0  0  0  0
   -0.5135  -11.3253   11.9651 C   0  0  0  0  0  0  0  0  0  0  0  0
   -1.2098  -10.6461   11.0626 C   0  0  0  0  0  0  0  0  0  0  0  0
   -0.3419   -9.5091   10.5732 C   0  0  0  0  0  0  0  0  0  0  0  0
    0.4353   -9.1983   11.8589 C   0  0  0  0  0  0  0  0  0  0  0  0
    0.7360  -10.2087    9.7177 C   0  0  0  0  0  0  0  0  0  0  0  0
    7.1589   -5.4230    7.7850 C   0  0  0  0  0  0  0  0  0  0  0  0
    7.6192   -4.1311    7.9865 C   0  0  0  0  0  0  0  0  0  0  0  0
    7.9786   -3.7490    9.2232 F   0  0  0  0  0  0  0  0  0  0  0  0
    7.6441   -3.1808    6.9678 C   0  0  0  0  0  0  0  0  0  0  0  0
    7.9973   -1.9279    7.3008 F   0  0  0  0  0  0  0  0  0  0  0  0
    7.2418   -3.4795    5.6699 C   0  0  0  0  0  0  0  0  0  0  0  0
    6.7610   -4.8003    5.4381 C   0  0  0  0  0  0  0  0  0  0  0  0
    6.2786   -5.1165    4.2177 N   0  0  0  0  0  0  0  0  0  0  0  0
    5.8833   -6.3431    4.0000 C   0  0  0  0  0  0  0  0  0  0  0  0
    5.3713   -6.7169    2.8307 O   0  0  0  0  0  0  0  0  0  0  0  0
    5.0993   -5.7051    1.8655 C   0  0  0  0  0  0  0  0  0  0  0  0
    3.7526   -5.0472    2.1312 C   0  0  0  0  0  0  0  0  0  0  0  0
    6.0427   -7.3669    4.9967 C   0  0  0  0  0  0  0  0  0  0  0  0
    6.4654   -7.0559    6.1834 N   0  0  0  0  0  0  0  0  0  0  0  0
    6.7728   -5.7716    6.4630 C   0  0  0  0  0  0  0  0  0  0  0  0
    5.7321   -8.7863    4.6762 C   0  0  0  0  0  0  0  0  0  0  0  0
    7.2321   -2.5012    4.6161 C   0  0  0  0  0  0  0  0  0  0  0  0
    8.0971   -1.4395    4.4026 C   0  0  0  0  0  0  0  0  0  0  0  0
    9.3728   -1.2447    5.0896 C   0  0  0  0  0  0  0  0  0  0  0  0
    9.7883    0.0308    5.4588 C   0  0  0  0  0  0  0  0  0  0  0  0
   10.9961    0.1996    6.1084 C   0  0  0  0  0  0  0  0  0  0  0  0
   11.7964   -0.8922    6.3915 C   0  0  0  0  0  0  0  0  0  0  0  0
   11.4032   -2.1727    6.0194 C   0  0  0  0  0  0  0  0  0  0  0  0
   12.2930   -3.3526    6.2880 C   0  0  0  0  0  0  0  0  0  0  0  0
   13.3350   -3.5030    5.1781 C   0  0  0  0  0  0  0  0  0  0  0  0
   10.1956   -2.3353    5.3614 C   0  0  0  0  0  0  0  0  0  0  0  0
    7.6383   -0.6172    3.3542 C   0  0  0  0  0  0  0  0  0  0  0  0
    8.2484    0.8590    2.6411 S   0  0  0  0  0  0  0  0  0  0  0  0
    6.8869    0.8829    1.5716 C   0  0  0  0  0  0  0  0  0  0  0  0
    6.3360    1.6873    0.5556 C   0  0  0  0  0  0  0  0  0  0  0  0
    6.8053    2.8370   -0.1169 C   0  0  0  0  0  0  0  0  0  0  0  0
    6.0221    3.3845   -1.1931 C   0  0  0  0  0  0  0  0  0  0  0  0
    6.6101    4.4230   -1.7659 N   0  0  0  0  0  0  0  0  0  0  0  0
    8.0210    4.6935   -1.0187 S   0  0  0  0  0  0  0  0  0  0  0  0
    7.9381    3.4962    0.0675 N   0  0  0  0  0  0  0  0  0  0  0  0
    4.7435    2.8455   -1.4596 C   0  0  0  0  0  0  0  0  0  0  0  0
    3.6964    3.2729   -2.2956 C   0  0  0  0  0  0  0  0  0  0  0  0
    3.3695    4.4926   -3.4823 S   0  0  0  0  0  0  0  0  0  0  0  0
    1.7142    3.9407   -3.5657 C   0  0  0  0  0  0  0  0  0  0  0  0
    0.5878    4.4017   -4.2839 C   0  0  0  0  0  0  0  0  0  0  0  0
    0.6447    5.5123   -5.2362 C   0  0  0  0  0  0  0  0  0  0  0  0
    1.2811    6.7000   -4.8875 C   0  0  0  0  0  0  0  0  0  0  0  0
    1.3355    7.7434   -5.7914 C   0  0  0  0  0  0  0  0  0  0  0  0
    0.7586    7.6148   -7.0428 C   0  0  0  0  0  0  0  0  0  0  0  0
    0.1405    6.4282   -7.4164 C   0  0  0  0  0  0  0  0  0  0  0  0
   -0.5281    6.3008   -8.7544 C   0  0  0  0  0  0  0  0  0  0  0  0
   -1.9567    6.8416   -8.6757 C   0  0  0  0  0  0  0  0  0  0  0  0
    0.1015    5.3805   -6.5092 C   0  0  0  0  0  0  0  0  0  0  0  0
   -0.5474    3.7043   -3.9296 C   0  0  0  0  0  0  0  0  0  0  0  0
   -0.2009    2.3905   -2.8036 S   0  0  0  0  0  0  0  0  0  0  0  0
    1.4532    2.8671   -2.7182 C   0  0  0  0  0  0  0  0  0  0  0  0
    2.5891    2.4751   -1.9996 C   0  0  0  0  0  0  0  0  0  0  0  0
    2.9109    1.5469   -1.0445 N   0  0  0  0  0  0  0  0  0  0  0  0
    4.2430    1.7427   -0.7159 C   0  0  0  0  0  0  0  0  0  0  0  0
    5.1109    1.0755    0.1802 C   0  0  0  0  0  0  0  0  0  0  0  0
    4.9544   -0.0998    0.8951 N   0  0  0  0  0  0  0  0  0  0  0  0
    6.0255   -0.2027    1.7480 C   0  0  0  0  0  0  0  0  0  0  0  0
    6.4539   -1.0642    2.7634 C   0  0  0  0  0  0  0  0  0  0  0  0
    5.9087   -2.5420    3.4706 S   0  0  0  0  0  0  0  0  0  0  0  0
    4.2716   -1.2968    0.4589 C   0  0  0  0  0  0  0  0  0  0  0  0
    5.2342   -2.2469   -0.2539 C   0  0  0  0  0  0  0  0  0  0  0  0
    1.8539    0.9195   -0.2751 C   0  0  0  0  0  0  0  0  0  0  0  0
    1.9617    1.2128    1.2165 C   0  0  0  0  0  0  0  0  0  0  0  0
   -1.9372    3.9707   -4.1678 C   0  0  0  0  0  0  0  0  0  0  0  0
   -2.9019    4.0389   -3.1705 C   0  0  0  0  0  0  0  0  0  0  0  0
   -2.6697    4.0196   -1.8067 N   0  0  0  0  0  0  0  0  0  0  0  0
   -1.5252    4.5891   -1.2399 C   0  0  0  0  0  0  0  0  0  0  0  0
   -0.9585    4.0228   -0.0986 C   0  0  0  0  0  0  0  0  0  0  0  0
    0.2217    4.5219    0.4133 C   0  0  0  0  0  0  0  0  0  0  0  0
    0.8779    5.5865   -0.1918 C   0  0  0  0  0  0  0  0  0  0  0  0
    2.2090    6.0604    0.3051 C   0  0  0  0  0  0  0  0  0  0  0  0
    0.2758    6.1822   -1.2930 C   0  0  0  0  0  0  0  0  0  0  0  0
   -0.9091    5.7006   -1.8121 C   0  0  0  0  0  0  0  0  0  0  0  0
   -3.6504    3.4282   -0.9854 C   0  0  0  0  0  0  0  0  0  0  0  0
   -4.0827    4.0657    0.1726 C   0  0  0  0  0  0  0  0  0  0  0  0
   -5.0874    3.5030    0.9353 C   0  0  0  0  0  0  0  0  0  0  0  0
   -5.6841    2.3034    0.5664 C   0  0  0  0  0  0  0  0  0  0  0  0
   -6.8150    1.7262    1.3628 C   0  0  0  0  0  0  0  0  0  0  0  0
   -5.2256    1.6602   -0.5769 C   0  0  0  0  0  0  0  0  0  0  0  0
   -4.2195    2.2095   -1.3447 C   0  0  0  0  0  0  0  0  0  0  0  0
   -4.1990    4.1566   -3.7249 C   0  0  0  0  0  0  0  0  0  0  0  0
   -5.7722    4.2329   -3.0439 S   0  0  0  0  0  0  0  0  0  0  0  0
   -6.4967    4.2879   -4.6473 C   0  0  0  0  0  0  0  0  0  0  0  0
   -5.5196    4.3499   -5.6623 C   0  0  0  0  0  0  0  0  0  0  0  0
   -5.7690    4.4401   -7.0042 N   0  0  0  0  0  0  0  0  0  0  0  0
   -4.9055    3.8208   -7.9237 C   0  0  0  0  0  0  0  0  0  0  0  0
   -4.5487    4.4705   -9.1009 C   0  0  0  0  0  0  0  0  0  0  0  0
   -3.6861    3.8629   -9.9922 C   0  0  0  0  0  0  0  0  0  0  0  0
   -3.1577    2.6046   -9.7360 C   0  0  0  0  0  0  0  0  0  0  0  0
   -2.2121    1.9478  -10.6938 C   0  0  0  0  0  0  0  0  0  0  0  0
   -3.5366    1.9546   -8.5659 C   0  0  0  0  0  0  0  0  0  0  0  0
   -4.4031    2.5461   -7.6703 C   0  0  0  0  0  0  0  0  0  0  0  0
   -6.8122    5.2502   -7.4923 C   0  0  0  0  0  0  0  0  0  0  0  0
   -7.6101    4.8053   -8.5405 C   0  0  0  0  0  0  0  0  0  0  0  0
   -8.6180    5.6140   -9.0301 C   0  0  0  0  0  0  0  0  0  0  0  0
   -8.8496    6.8745   -8.4948 C   0  0  0  0  0  0  0  0  0  0  0  0
   -9.9615    7.7404   -8.9919 C   0  0  0  0  0  0  0  0  0  0  0  0
   -8.0393    7.3119   -7.4512 C   0  0  0  0  0  0  0  0  0  0  0  0
   -7.0323    6.5146   -6.9506 C   0  0  0  0  0  0  0  0  0  0  0  0
   -4.2263    4.2131   -5.1108 C   0  0  0  0  0  0  0  0  0  0  0  0
   -2.6258    4.1520   -5.7722 S   0  0  0  0  0  0  0  0  0  0  0  0
   -7.8953    4.2263   -4.7638 C   0  0  0  0  0  0  0  0  0  0  0  0
   -8.7054    3.5512   -3.8761 C   0  0  0  0  0  0  0  0  0  0  0  0
   -8.2575    2.4208   -3.0356 C   0  0  0  0  0  0  0  0  0  0  0  0
   -7.1601    1.8970   -3.0037 O   0  0  0  0  0  0  0  0  0  0  0  0
   -9.4630    1.9245   -2.3472 C   0  0  0  0  0  0  0  0  0  0  0  0
   -9.5214    0.8944   -1.4124 C   0  0  0  0  0  0  0  0  0  0  0  0
  -10.7834    0.6549   -0.9249 C   0  0  0  0  0  0  0  0  0  0  0  0
  -11.9063    1.3753   -1.3504 C   0  0  0  0  0  0  0  0  0  0  0  0
  -11.8633    2.3819   -2.2868 C   0  0  0  0  0  0  0  0  0  0  0  0
  -10.5855    2.6500   -2.7866 C   0  0  0  0  0  0  0  0  0  0  0  0
  -10.1371    3.6523   -3.7555 C   0  0  0  0  0  0  0  0  0  0  0  0
  -10.9497    4.5720   -4.3744 C   0  0  0  0  0  0  0  0  0  0  0  0
  -12.3514    4.6165   -4.2429 C   0  0  0  0  0  0  0  0  0  0  0  0
  -13.4965    4.7030   -4.2010 N   0  0  0  0  0  0  0  0  0  0  0  0
  -10.5123    5.6191   -5.2061 C   0  0  0  0  0  0  0  0  0  0  0  0
  -10.2587    6.5286   -5.8620 N   0  0  0  0  0  0  0  0  0  0  0  0
  -12.8379    0.6154   -0.4375 C   0  0  0  0  0  0  0  0  0  0  0  0
  -13.2857    1.3419    0.8484 C   0  0  0  0  0  0  0  0  0  0  0  0
  -13.7666    0.2253    1.7465 C   0  0  0  0  0  0  0  0  0  0  0  0
  -12.7014   -0.4550    2.1505 C   0  0  0  0  0  0  0  0  0  0  0  0
  -11.4827    0.1899    1.5309 C   0  0  0  0  0  0  0  0  0  0  0  0
  -11.9391    1.6543    1.5140 C   0  0  0  0  0  0  0  0  0  0  0  0
  -11.5841   -0.1866    0.0376 C   0  0  0  0  0  0  0  0  0  0  0  0
    7.9138   -6.3637    9.5621 H   0  0  0  0  0  0  0  0  0  0  0  0
    2.0121   -7.8207    7.9772 H   0  0  0  0  0  0  0  0  0  0  0  0
    4.6090  -10.4718   11.4238 H   0  0  0  0  0  0  0  0  0  0  0  0
    1.6874  -12.0803   10.6389 H   0  0  0  0  0  0  0  0  0  0  0  0
    1.4042  -10.8814   13.0001 H   0  0  0  0  0  0  0  0  0  0  0  0
   -0.7934  -12.2244   12.4818 H   0  0  0  0  0  0  0  0  0  0  0  0
   -2.1875  -10.8646   10.6748 H   0  0  0  0  0  0  0  0  0  0  0  0
   -0.8486   -8.6830   10.0816 H   0  0  0  0  0  0  0  0  0  0  0  0
    1.2774   -8.5236   11.7166 H   0  0  0  0  0  0  0  0  0  0  0  0
   -0.2102   -8.8136   12.6467 H   0  0  0  0  0  0  0  0  0  0  0  0
    0.3214  -10.7458    8.8666 H   0  0  0  0  0  0  0  0  0  0  0  0
    5.8994   -4.9602    1.8829 H   0  0  0  0  0  0  0  0  0  0  0  0
    5.0948   -6.2293    0.9068 H   0  0  0  0  0  0  0  0  0  0  0  0
    3.7787   -4.5207    3.0815 H   0  0  0  0  0  0  0  0  0  0  0  0
    3.5281   -4.3386    1.3403 H   0  0  0  0  0  0  0  0  0  0  0  0
    2.9695   -5.8008    2.1659 H   0  0  0  0  0  0  0  0  0  0  0  0
    6.3240   -9.1138    3.8233 H   0  0  0  0  0  0  0  0  0  0  0  0
    5.9450   -9.4110    5.5385 H   0  0  0  0  0  0  0  0  0  0  0  0
    4.6821   -8.8783    4.4031 H   0  0  0  0  0  0  0  0  0  0  0  0
    9.1531    0.8805    5.2619 H   0  0  0  0  0  0  0  0  0  0  0  0
   11.3108    1.1897    6.4031 H   0  0  0  0  0  0  0  0  0  0  0  0
   12.7342   -0.7540    6.9099 H   0  0  0  0  0  0  0  0  0  0  0  0
   12.8028   -3.2177    7.2439 H   0  0  0  0  0  0  0  0  0  0  0  0
   11.6940   -4.2638    6.3474 H   0  0  0  0  0  0  0  0  0  0  0  0
   13.9503   -2.6085    5.1126 H   0  0  0  0  0  0  0  0  0  0  0  0
   12.8461   -3.6517    4.2177 H   0  0  0  0  0  0  0  0  0  0  0  0
   13.9805   -4.3556    5.3756 H   0  0  0  0  0  0  0  0  0  0  0  0
    9.8862   -3.3248    5.0511 H   0  0  0  0  0  0  0  0  0  0  0  0
    1.7248    6.8014   -3.9095 H   0  0  0  0  0  0  0  0  0  0  0  0
    1.8292    8.6643   -5.5175 H   0  0  0  0  0  0  0  0  0  0  0  0
    0.7984    8.4382   -7.7415 H   0  0  0  0  0  0  0  0  0  0  0  0
    0.0312    6.8632   -9.5050 H   0  0  0  0  0  0  0  0  0  0  0  0
   -0.5599    5.2529   -9.0582 H   0  0  0  0  0  0  0  0  0  0  0  0
   -1.9516    7.8817   -8.3573 H   0  0  0  0  0  0  0  0  0  0  0  0
   -2.4422    6.7767   -9.6461 H   0  0  0  0  0  0  0  0  0  0  0  0
   -2.5353    6.2626   -7.9594 H   0  0  0  0  0  0  0  0  0  0  0  0
   -0.3323    4.4368   -6.8066 H   0  0  0  0  0  0  0  0  0  0  0  0
    3.4795   -1.0209   -0.2307 H   0  0  0  0  0  0  0  0  0  0  0  0
    3.8419   -1.7893    1.3368 H   0  0  0  0  0  0  0  0  0  0  0  0
    4.6927   -3.1113   -0.6288 H   0  0  0  0  0  0  0  0  0  0  0  0
    6.0090   -2.5906    0.4255 H   0  0  0  0  0  0  0  0  0  0  0  0
    5.7054   -1.7402   -1.0935 H   0  0  0  0  0  0  0  0  0  0  0  0
    1.8149   -0.1596   -0.4567 H   0  0  0  0  0  0  0  0  0  0  0  0
    0.9174    1.3387   -0.6525 H   0  0  0  0  0  0  0  0  0  0  0  0
    2.8195    0.7221    1.6650 H   0  0  0  0  0  0  0  0  0  0  0  0
    2.0589    2.2839    1.3730 H   0  0  0  0  0  0  0  0  0  0  0  0
    1.0620    0.8661    1.7176 H   0  0  0  0  0  0  0  0  0  0  0  0
   -1.4401    3.1759    0.3676 H   0  0  0  0  0  0  0  0  0  0  0  0
    0.6457    4.0681    1.2974 H   0  0  0  0  0  0  0  0  0  0  0  0
    3.0088    5.5864   -0.2672 H   0  0  0  0  0  0  0  0  0  0  0  0
    2.3489    5.8071    1.3535 H   0  0  0  0  0  0  0  0  0  0  0  0
    2.3082    7.1368    0.1855 H   0  0  0  0  0  0  0  0  0  0  0  0
    0.7420    7.0408   -1.7535 H   0  0  0  0  0  0  0  0  0  0  0  0
   -1.3573    6.1823   -2.6688 H   0  0  0  0  0  0  0  0  0  0  0  0
   -3.6371    5.0066    0.4607 H   0  0  0  0  0  0  0  0  0  0  0  0
   -5.4247    4.0154    1.8251 H   0  0  0  0  0  0  0  0  0  0  0  0
   -6.8351    2.1374    2.3693 H   0  0  0  0  0  0  0  0  0  0  0  0
   -7.7644    1.9622    0.8800 H   0  0  0  0  0  0  0  0  0  0  0  0
   -6.7313    0.6429    1.4254 H   0  0  0  0  0  0  0  0  0  0  0  0
   -5.6674    0.7239   -0.8806 H   0  0  0  0  0  0  0  0  0  0  0  0
   -3.8773    1.7022   -2.2345 H   0  0  0  0  0  0  0  0  0  0  0  0
   -4.9435    5.4542   -9.3068 H   0  0  0  0  0  0  0  0  0  0  0  0
   -3.4119    4.3821  -10.8991 H   0  0  0  0  0  0  0  0  0  0  0  0
   -1.3078    1.6284  -10.1781 H   0  0  0  0  0  0  0  0  0  0  0  0
   -2.6727    1.0634  -11.1335 H   0  0  0  0  0  0  0  0  0  0  0  0
   -1.9357    2.6270  -11.4962 H   0  0  0  0  0  0  0  0  0  0  0  0
   -3.1493    0.9679   -8.3571 H   0  0  0  0  0  0  0  0  0  0  0  0
   -4.7009    2.0238   -6.7729 H   0  0  0  0  0  0  0  0  0  0  0  0
   -7.4381    3.8250   -8.9607 H   0  0  0  0  0  0  0  0  0  0  0  0
   -9.2395    5.2531   -9.8368 H   0  0  0  0  0  0  0  0  0  0  0  0
   -9.6149    8.7592   -9.1536 H   0  0  0  0  0  0  0  0  0  0  0  0
  -10.7494    7.7710   -8.2402 H   0  0  0  0  0  0  0  0  0  0  0  0
  -10.3785    7.3548   -9.9188 H   0  0  0  0  0  0  0  0  0  0  0  0
   -8.2076    8.2883   -7.0245 H   0  0  0  0  0  0  0  0  0  0  0  0
   -6.4079    6.8614   -6.1399 H   0  0  0  0  0  0  0  0  0  0  0  0
   -8.3519    4.7161   -5.6160 H   0  0  0  0  0  0  0  0  0  0  0  0
   -8.6305    0.3609   -1.1204 H   0  0  0  0  0  0  0  0  0  0  0  0
  -12.7394    2.9179   -2.6112 H   0  0  0  0  0  0  0  0  0  0  0  0
  -13.6472    0.0756   -0.9254 H   0  0  0  0  0  0  0  0  0  0  0  0
  -13.9698    2.1706    0.6882 H   0  0  0  0  0  0  0  0  0  0  0  0
  -14.8019    0.0174    1.9437 H   0  0  0  0  0  0  0  0  0  0  0  0
  -12.6693   -1.3446    2.7521 H   0  0  0  0  0  0  0  0  0  0  0  0
  -10.5238   -0.0306    1.9931 H   0  0  0  0  0  0  0  0  0  0  0  0
  -11.2985    2.3126    0.9299 H   0  0  0  0  0  0  0  0  0  0  0  0
  -12.0599    2.0598    2.5173 H   0  0  0  0  0  0  0  0  0  0  0  0
  -11.5583   -1.2615   -0.1333 H   0  0  0  0  0  0  0  0  0  0  0  0
  1  2  2  0  0  0  0
  2  3  1  0  0  0  0
  3  4  2  0  0  0  0
  3  5  1  0  0  0  0
  5  6  2  0  0  0  0
  6  7  1  0  0  0  0
  7  8  2  0  0  0  0
  8  9  1  0  0  0  0
  9 10  2  0  0  0  0
 10 11  1  0  0  0  0
 11 12  2  0  0  0  0
 12 13  1  0  0  0  0
 13 14  3  0  0  0  0
 12 15  1  0  0  0  0
 15 16  3  0  0  0  0
  8 17  1  0  0  0  0
 17 18  1  0  0  0  0
 18 19  1  0  0  0  0
 19 20  2  0  0  0  0
 20 21  1  0  0  0  0
 21 22  1  0  0  0  0
 21 23  1  0  0  0  0
  1 24  1  0  0  0  0
 24 25  2  0  0  0  0
 25 26  1  0  0  0  0
 25 27  1  0  0  0  0
 27 28  1  0  0  0  0
 27 29  2  0  0  0  0
 29 30  1  0  0  0  0
 30 31  2  0  0  0  0
 31 32  1  0  0  0  0
 32 33  1  0  0  0  0
 33 34  1  0  0  0  0
 34 35  1  0  0  0  0
 32 36  2  0  0  0  0
 36 37  1  0  0  0  0
 37 38  2  0  0  0  0
 36 39  1  0  0  0  0
 29 40  1  0  0  0  0
 40 41  2  0  0  0  0
 41 42  1  0  0  0  0
 42 43  2  0  0  0  0
 43 44  1  0  0  0  0
 44 45  2  0  0  0  0
 45 46  1  0  0  0  0
 46 47  1  0  0  0  0
 47 48  1  0  0  0  0
 46 49  2  0  0  0  0
 41 50  1  0  0  0  0
 50 51  1  0  0  0  0
 51 52  1  0  0  0  0
 52 53  1  0  0  0  0
 53 54  1  0  0  0  0
 54 55  1  0  0  0  0
 55 56  2  0  0  0  0
 56 57  1  0  0  0  0
 57 58  1  0  0  0  0
 55 59  1  0  0  0  0
 59 60  1  0  0  0  0
 60 61  1  0  0  0  0
 61 62  1  0  0  0  0
 62 63  1  0  0  0  0
 63 64  1  0  0  0  0
 64 65  2  0  0  0  0
 65 66  1  0  0  0  0
 66 67  2  0  0  0  0
 67 68  1  0  0  0  0
 68 69  1  0  0  0  0
 69 70  1  0  0  0  0
 68 71  2  0  0  0  0
 63 72  2  0  0  0  0
 72 73  1  0  0  0  0
 73 74  1  0  0  0  0
 74 75  1  0  0  0  0
 75 76  1  0  0  0  0
 76 77  1  0  0  0  0
 77 78  1  0  0  0  0
 78 79  1  0  0  0  0
 79 80  1  0  0  0  0
 80 81  1  0  0  0  0
 81 82  1  0  0  0  0
 79 83  1  0  0  0  0
 83 84  1  0  0  0  0
 76 85  1  0  0  0  0
 85 86  1  0  0  0  0
 72 87  1  0  0  0  0
 87 88  2  0  0  0  0
 88 89  1  0  0  0  0
 89 90  1  0  0  0  0
 90 91  2  0  0  0  0
 91 92  1  0  0  0  0
 92 93  2  0  0  0  0
 93 94  1  0  0  0  0
 93 95  1  0  0  0  0
 95 96  2  0  0  0  0
 89 97  1  0  0  0  0
 97 98  2  0  0  0  0
 98 99  1  0  0  0  0
 99100  2  0  0  0  0
100101  1  0  0  0  0
100102  1  0  0  0  0
102103  2  0  0  0  0
 88104  1  0  0  0  0
104105  1  0  0  0  0
105106  1  0  0  0  0
106107  2  0  0  0  0
107108  1  0  0  0  0
108109  1  0  0  0  0
109110  2  0  0  0  0
110111  1  0  0  0  0
111112  2  0  0  0  0
112113  1  0  0  0  0
112114  1  0  0  0  0
114115  2  0  0  0  0
108116  1  0  0  0  0
116117  2  0  0  0  0
117118  1  0  0  0  0
118119  2  0  0  0  0
119120  1  0  0  0  0
119121  1  0  0  0  0
121122  2  0  0  0  0
107123  1  0  0  0  0
123124  1  0  0  0  0
106125  1  0  0  0  0
125126  2  0  0  0  0
126127  1  0  0  0  0
127128  2  0  0  0  0
127129  1  0  0  0  0
129130  2  0  0  0  0
130131  1  0  0  0  0
131132  2  0  0  0  0
132133  1  0  0  0  0
133134  2  0  0  0  0
134135  1  0  0  0  0
135136  2  0  0  0  0
136137  1  0  0  0  0
137138  3  0  0  0  0
136139  1  0  0  0  0
139140  3  0  0  0  0
132141  1  0  0  0  0
141142  1  0  0  0  0
142143  1  0  0  0  0
143144  2  0  0  0  0
144145  1  0  0  0  0
145146  1  0  0  0  0
145147  1  0  0  0  0
 11  2  1  0  0  0  0
 23 17  1  0  0  0  0
 38 24  1  0  0  0  0
 82 40  1  0  0  0  0
124 87  1  0  0  0  0
135126  1  0  0  0  0
147141  1  0  0  0  0
 10  5  1  0  0  0  0
 22 18  1  0  0  0  0
 38 30  1  0  0  0  0
 49 42  1  0  0  0  0
 81 50  2  0  0  0  0
 96 90  1  0  0  0  0
103 97  1  0  0  0  0
123104  2  0  0  0  0
134129  1  0  0  0  0
146142  1  0  0  0  0
 23  7  1  0  0  0  0
 80 52  2  0  0  0  0
115109  1  0  0  0  0
122116  1  0  0  0  0
147131  1  0  0  0  0
 78 53  2  0  0  0  0
 58 54  2  0  0  0  0
 77 59  2  0  0  0  0
 75 60  2  0  0  0  0
 74 62  2  0  0  0  0
 71 64  1  0  0  0  0
  1148  1  0  0  0  0
  6149  1  0  0  0  0
  9150  1  0  0  0  0
 17151  1  0  0  0  0
 18152  1  0  0  0  0
 19153  1  0  0  0  0
 20154  1  0  0  0  0
 21155  1  0  0  0  0
 22156  1  0  0  0  0
 22157  1  0  0  0  0
 23158  1  0  0  0  0
 34159  1  0  0  0  0
 34160  1  0  0  0  0
 35161  1  0  0  0  0
 35162  1  0  0  0  0
 35163  1  0  0  0  0
 39164  1  0  0  0  0
 39165  1  0  0  0  0
 39166  1  0  0  0  0
 43167  1  0  0  0  0
 44168  1  0  0  0  0
 45169  1  0  0  0  0
 47170  1  0  0  0  0
 47171  1  0  0  0  0
 48172  1  0  0  0  0
 48173  1  0  0  0  0
 48174  1  0  0  0  0
 49175  1  0  0  0  0
 65176  1  0  0  0  0
 66177  1  0  0  0  0
 67178  1  0  0  0  0
 69179  1  0  0  0  0
 69180  1  0  0  0  0
 70181  1  0  0  0  0
 70182  1  0  0  0  0
 70183  1  0  0  0  0
 71184  1  0  0  0  0
 83185  1  0  0  0  0
 83186  1  0  0  0  0
 84187  1  0  0  0  0
 84188  1  0  0  0  0
 84189  1  0  0  0  0
 85190  1  0  0  0  0
 85191  1  0  0  0  0
 86192  1  0  0  0  0
 86193  1  0  0  0  0
 86194  1  0  0  0  0
 91195  1  0  0  0  0
 92196  1  0  0  0  0
 94197  1  0  0  0  0
 94198  1  0  0  0  0
 94199  1  0  0  0  0
 95200  1  0  0  0  0
 96201  1  0  0  0  0
 98202  1  0  0  0  0
 99203  1  0  0  0  0
101204  1  0  0  0  0
101205  1  0  0  0  0
101206  1  0  0  0  0
102207  1  0  0  0  0
103208  1  0  0  0  0
110209  1  0  0  0  0
111210  1  0  0  0  0
113211  1  0  0  0  0
113212  1  0  0  0  0
113213  1  0  0  0  0
114214  1  0  0  0  0
115215  1  0  0  0  0
117216  1  0  0  0  0
118217  1  0  0  0  0
120218  1  0  0  0  0
120219  1  0  0  0  0
120220  1  0  0  0  0
121221  1  0  0  0  0
122222  1  0  0  0  0
125223  1  0  0  0  0
130224  1  0  0  0  0
133225  1  0  0  0  0
141226  1  0  0  0  0
142227  1  0  0  0  0
143228  1  0  0  0  0
144229  1  0  0  0  0
145230  1  0  0  0  0
146231  1  0  0  0  0
146232  1  0  0  0  0
147233  1  0  0  0  0
M  END
