
  xtb     02142215513D
 energy: -424.118856064677 gnorm: 0.000616175200 xtb: 6.4.1 (unknown)
260290  0     0  0            999 V2000
   -0.5005  -14.0603    0.5749 C   0  0  0  0  0  0  0  0  0  0  0  0
    0.6465  -14.3535    1.2552 C   0  0  0  0  0  0  0  0  0  0  0  0
    1.6234  -13.3939    1.7948 C   0  0  0  0  0  0  0  0  0  0  0  0
    1.4882  -12.1907    1.9242 O   0  0  0  0  0  0  0  0  0  0  0  0
    2.8187  -14.1825    2.1378 C   0  0  0  0  0  0  0  0  0  0  0  0
    4.0345  -13.6963    2.6155 C   0  0  0  0  0  0  0  0  0  0  0  0
    4.9767  -14.6708    2.8396 C   0  0  0  0  0  0  0  0  0  0  0  0
    4.7322  -16.0303    2.6012 C   0  0  0  0  0  0  0  0  0  0  0  0
    3.5388  -16.5239    2.1301 C   0  0  0  0  0  0  0  0  0  0  0  0
    2.5623  -15.5496    1.9019 C   0  0  0  0  0  0  0  0  0  0  0  0
    1.1876  -15.6888    1.4299 C   0  0  0  0  0  0  0  0  0  0  0  0
    0.4999  -16.8638    1.2782 C   0  0  0  0  0  0  0  0  0  0  0  0
   -0.8796  -16.9668    0.9903 C   0  0  0  0  0  0  0  0  0  0  0  0
   -2.0017  -17.1449    0.8235 N   0  0  0  0  0  0  0  0  0  0  0  0
    1.0641  -18.1420    1.4709 C   0  0  0  0  0  0  0  0  0  0  0  0
    1.4672  -19.2091    1.6020 N   0  0  0  0  0  0  0  0  0  0  0  0
    6.1147  -16.4387    3.0449 C   0  0  0  0  0  0  0  0  0  0  0  0
    6.2299  -17.0598    4.4533 C   0  0  0  0  0  0  0  0  0  0  0  0
    7.6948  -16.9104    4.7951 C   0  0  0  0  0  0  0  0  0  0  0  0
    7.9272  -15.6237    5.0212 C   0  0  0  0  0  0  0  0  0  0  0  0
    6.6231  -14.8817    4.8362 C   0  0  0  0  0  0  0  0  0  0  0  0
    5.6396  -15.9495    5.3322 C   0  0  0  0  0  0  0  0  0  0  0  0
    6.3870  -14.9234    3.3114 C   0  0  0  0  0  0  0  0  0  0  0  0
   -1.1401  -12.8227    0.3746 C   0  0  0  0  0  0  0  0  0  0  0  0
   -0.7205  -11.3321    1.1703 S   0  0  0  0  0  0  0  0  0  0  0  0
   -2.0970  -10.5044    0.4918 C   0  0  0  0  0  0  0  0  0  0  0  0
   -2.8462  -11.3633   -0.3259 C   0  0  0  0  0  0  0  0  0  0  0  0
   -4.0915  -11.0053   -0.9923 C   0  0  0  0  0  0  0  0  0  0  0  0
   -4.5556   -9.8698   -0.9819 O   0  0  0  0  0  0  0  0  0  0  0  0
   -4.7681  -12.1181   -1.6521 C   0  0  0  0  0  0  0  0  0  0  0  0
   -6.0206  -12.0475   -2.2112 C   0  0  0  0  0  0  0  0  0  0  0  0
   -6.9288  -10.8778   -2.3255 C   0  0  0  0  0  0  0  0  0  0  0  0
   -6.5512  -10.0171   -3.5350 C   0  0  0  0  0  0  0  0  0  0  0  0
   -6.4775  -13.5735   -2.8879 S   0  0  0  0  0  0  0  0  0  0  0  0
   -4.9775  -14.3112   -2.4398 C   0  0  0  0  0  0  0  0  0  0  0  0
   -4.7297  -15.7464   -2.7314 C   0  0  0  0  0  0  0  0  0  0  0  0
   -4.9233  -16.6074   -1.4787 C   0  0  0  0  0  0  0  0  0  0  0  0
   -4.1767  -13.4160   -1.7754 C   0  0  0  0  0  0  0  0  0  0  0  0
   -2.8389  -13.7148   -1.2735 C   0  0  0  0  0  0  0  0  0  0  0  0
   -2.2283  -14.7319   -1.5614 O   0  0  0  0  0  0  0  0  0  0  0  0
   -2.2861  -12.6565   -0.4101 C   0  0  0  0  0  0  0  0  0  0  0  0
   -2.2465   -9.1356    0.8167 C   0  0  0  0  0  0  0  0  0  0  0  0
   -1.3493   -8.4603    1.6394 C   0  0  0  0  0  0  0  0  0  0  0  0
   -1.6704   -7.1226    1.7836 C   0  0  0  0  0  0  0  0  0  0  0  0
   -0.9309   -5.7837    2.6059 S   0  0  0  0  0  0  0  0  0  0  0  0
   -2.1728   -4.7293    1.9912 C   0  0  0  0  0  0  0  0  0  0  0  0
   -2.3125   -3.3358    2.1733 C   0  0  0  0  0  0  0  0  0  0  0  0
   -3.2269   -2.6516    1.3925 C   0  0  0  0  0  0  0  0  0  0  0  0
   -4.0035   -3.3719    0.3166 C   0  0  0  0  0  0  0  0  0  0  0  0
   -4.1824   -4.7604    0.6670 O   0  0  0  0  0  0  0  0  0  0  0  0
   -3.1081   -5.3818    1.1958 C   0  0  0  0  0  0  0  0  0  0  0  0
   -2.8227   -6.7478    1.0772 C   0  0  0  0  0  0  0  0  0  0  0  0
   -3.5196   -8.0763    0.2230 S   0  0  0  0  0  0  0  0  0  0  0  0
   -3.2762   -3.3174   -1.0221 C   0  0  0  0  0  0  0  0  0  0  0  0
   -3.6129   -4.2600   -1.9862 C   0  0  0  0  0  0  0  0  0  0  0  0
   -2.9819   -4.2610   -3.2144 C   0  0  0  0  0  0  0  0  0  0  0  0
   -2.0079   -3.3170   -3.5152 C   0  0  0  0  0  0  0  0  0  0  0  0
   -1.2934   -3.3456   -4.8356 C   0  0  0  0  0  0  0  0  0  0  0  0
   -0.0693   -4.2604   -4.7596 C   0  0  0  0  0  0  0  0  0  0  0  0
   -1.6780   -2.3777   -2.5482 C   0  0  0  0  0  0  0  0  0  0  0  0
   -2.2999   -2.3759   -1.3126 C   0  0  0  0  0  0  0  0  0  0  0  0
   -5.3916   -2.7613    0.2368 C   0  0  0  0  0  0  0  0  0  0  0  0
   -6.3168   -3.0664    1.2259 C   0  0  0  0  0  0  0  0  0  0  0  0
   -7.5673   -2.4799    1.2160 C   0  0  0  0  0  0  0  0  0  0  0  0
   -7.9175   -1.5669    0.2293 C   0  0  0  0  0  0  0  0  0  0  0  0
   -9.2884   -0.9550    0.2019 C   0  0  0  0  0  0  0  0  0  0  0  0
  -10.2425   -1.8201   -0.6241 C   0  0  0  0  0  0  0  0  0  0  0  0
   -6.9867   -1.2679   -0.7559 C   0  0  0  0  0  0  0  0  0  0  0  0
   -5.7349   -1.8560   -0.7564 C   0  0  0  0  0  0  0  0  0  0  0  0
   -3.2196   -1.2856    1.6884 C   0  0  0  0  0  0  0  0  0  0  0  0
   -4.0263    0.1040    1.0339 S   0  0  0  0  0  0  0  0  0  0  0  0
   -3.0874    1.1374    2.0832 C   0  0  0  0  0  0  0  0  0  0  0  0
   -2.9339    2.5407    1.9865 C   0  0  0  0  0  0  0  0  0  0  0  0
   -1.7652    3.0907    2.4998 C   0  0  0  0  0  0  0  0  0  0  0  0
   -0.8703    2.4015    3.2292 O   0  0  0  0  0  0  0  0  0  0  0  0
   -1.3771    1.2208    3.8895 C   0  0  0  0  0  0  0  0  0  0  0  0
   -0.1850    0.3713    4.2829 C   0  0  0  0  0  0  0  0  0  0  0  0
    0.8934    0.2685    3.4151 C   0  0  0  0  0  0  0  0  0  0  0  0
    1.9346   -0.5947    3.6947 C   0  0  0  0  0  0  0  0  0  0  0  0
    1.9211   -1.3769    4.8424 C   0  0  0  0  0  0  0  0  0  0  0  0
    2.9957   -2.3941    5.0918 C   0  0  0  0  0  0  0  0  0  0  0  0
    2.5977   -3.7318    4.4631 C   0  0  0  0  0  0  0  0  0  0  0  0
    0.8528   -1.2477    5.7193 C   0  0  0  0  0  0  0  0  0  0  0  0
   -0.1921   -0.3844    5.4469 C   0  0  0  0  0  0  0  0  0  0  0  0
   -2.1905    1.6564    5.1001 C   0  0  0  0  0  0  0  0  0  0  0  0
   -1.7566    2.7458    5.8433 C   0  0  0  0  0  0  0  0  0  0  0  0
   -2.4685    3.1634    6.9511 C   0  0  0  0  0  0  0  0  0  0  0  0
   -3.6215    2.4987    7.3489 C   0  0  0  0  0  0  0  0  0  0  0  0
   -4.4164    2.9788    8.5287 C   0  0  0  0  0  0  0  0  0  0  0  0
   -5.4561    4.0110    8.0872 C   0  0  0  0  0  0  0  0  0  0  0  0
   -4.0465    1.4070    6.6036 C   0  0  0  0  0  0  0  0  0  0  0  0
   -3.3422    0.9879    5.4901 C   0  0  0  0  0  0  0  0  0  0  0  0
   -2.2318    0.4424    2.9189 C   0  0  0  0  0  0  0  0  0  0  0  0
   -2.2984   -0.9346    2.6860 C   0  0  0  0  0  0  0  0  0  0  0  0
   -1.4488   -2.3150    3.2955 S   0  0  0  0  0  0  0  0  0  0  0  0
   -1.5783    4.4016    2.0409 C   0  0  0  0  0  0  0  0  0  0  0  0
   -2.6103    4.8563    1.2181 C   0  0  0  0  0  0  0  0  0  0  0  0
   -3.8446    3.6611    1.0104 S   0  0  0  0  0  0  0  0  0  0  0  0
   -2.3488    6.0914    0.6169 C   0  0  0  0  0  0  0  0  0  0  0  0
   -1.0942    6.5521    0.9314 C   0  0  0  0  0  0  0  0  0  0  0  0
   -0.2821    5.5361    2.1130 S   0  0  0  0  0  0  0  0  0  0  0  0
   -0.3942    7.6201    0.2845 C   0  0  0  0  0  0  0  0  0  0  0  0
    0.8582    7.5484   -0.3089 C   0  0  0  0  0  0  0  0  0  0  0  0
    1.6651    6.4279   -0.3760 N   0  0  0  0  0  0  0  0  0  0  0  0
    1.1366    5.1378   -0.5067 C   0  0  0  0  0  0  0  0  0  0  0  0
   -0.0330    4.9040   -1.2263 C   0  0  0  0  0  0  0  0  0  0  0  0
   -0.5936    3.6412   -1.2538 C   0  0  0  0  0  0  0  0  0  0  0  0
    0.0015    2.5753   -0.5921 C   0  0  0  0  0  0  0  0  0  0  0  0
   -0.6186    1.2109   -0.5992 C   0  0  0  0  0  0  0  0  0  0  0  0
    1.2041    2.8031    0.0685 C   0  0  0  0  0  0  0  0  0  0  0  0
    1.7655    4.0616    0.1192 C   0  0  0  0  0  0  0  0  0  0  0  0
    3.0585    6.6228   -0.3983 C   0  0  0  0  0  0  0  0  0  0  0  0
    3.8589    5.9178   -1.2905 C   0  0  0  0  0  0  0  0  0  0  0  0
    5.2173    6.1596   -1.3384 C   0  0  0  0  0  0  0  0  0  0  0  0
    5.8083    7.1044   -0.5094 C   0  0  0  0  0  0  0  0  0  0  0  0
    7.2704    7.4123   -0.6054 C   0  0  0  0  0  0  0  0  0  0  0  0
    5.0043    7.7856    0.3959 C   0  0  0  0  0  0  0  0  0  0  0  0
    3.6466    7.5483    0.4594 C   0  0  0  0  0  0  0  0  0  0  0  0
    1.1930    8.7762   -0.9355 C   0  0  0  0  0  0  0  0  0  0  0  0
    2.5917    9.3224   -1.7853 S   0  0  0  0  0  0  0  0  0  0  0  0
    1.7976   10.8650   -2.1111 C   0  0  0  0  0  0  0  0  0  0  0  0
    0.5311   10.9570   -1.4770 C   0  0  0  0  0  0  0  0  0  0  0  0
   -0.2687   12.0668   -1.4582 N   0  0  0  0  0  0  0  0  0  0  0  0
    0.2498   13.3744   -1.4026 C   0  0  0  0  0  0  0  0  0  0  0  0
    1.4047   13.6533   -0.6760 C   0  0  0  0  0  0  0  0  0  0  0  0
    1.9125   14.9368   -0.6524 C   0  0  0  0  0  0  0  0  0  0  0  0
    1.2787   15.9728   -1.3286 C   0  0  0  0  0  0  0  0  0  0  0  0
    1.8426   17.3602   -1.3319 C   0  0  0  0  0  0  0  0  0  0  0  0
    0.1055   15.6907   -2.0186 C   0  0  0  0  0  0  0  0  0  0  0  0
   -0.4066   14.4097   -2.0637 C   0  0  0  0  0  0  0  0  0  0  0  0
   -1.6654   11.8953   -1.3900 C   0  0  0  0  0  0  0  0  0  0  0  0
   -2.2948   10.9693   -2.2169 C   0  0  0  0  0  0  0  0  0  0  0  0
   -3.6633   10.8013   -2.1503 C   0  0  0  0  0  0  0  0  0  0  0  0
   -4.4354   11.5502   -1.2704 C   0  0  0  0  0  0  0  0  0  0  0  0
   -5.9164   11.3458   -1.1868 C   0  0  0  0  0  0  0  0  0  0  0  0
   -3.7976   12.4794   -0.4565 C   0  0  0  0  0  0  0  0  0  0  0  0
   -2.4295   12.6542   -0.5095 C   0  0  0  0  0  0  0  0  0  0  0  0
    0.1997    9.7429   -0.8486 C   0  0  0  0  0  0  0  0  0  0  0  0
   -1.1889    9.1643    0.0190 S   0  0  0  0  0  0  0  0  0  0  0  0
    2.2800   11.8276   -2.9954 C   0  0  0  0  0  0  0  0  0  0  0  0
    3.4787   11.8991   -3.6695 C   0  0  0  0  0  0  0  0  0  0  0  0
    4.6344   11.0202   -3.4828 C   0  0  0  0  0  0  0  0  0  0  0  0
    4.7168   10.0290   -2.7758 O   0  0  0  0  0  0  0  0  0  0  0  0
    5.7193   11.5837   -4.3076 C   0  0  0  0  0  0  0  0  0  0  0  0
    7.0098   11.0828   -4.4523 C   0  0  0  0  0  0  0  0  0  0  0  0
    7.8017   11.8149   -5.3045 C   0  0  0  0  0  0  0  0  0  0  0  0
    7.3436   12.9642   -5.9600 C   0  0  0  0  0  0  0  0  0  0  0  0
    6.0723   13.4707   -5.8226 C   0  0  0  0  0  0  0  0  0  0  0  0
    5.2493   12.7381   -4.9641 C   0  0  0  0  0  0  0  0  0  0  0  0
    3.8462   12.9396   -4.5992 C   0  0  0  0  0  0  0  0  0  0  0  0
    3.0342   13.9319   -5.0958 C   0  0  0  0  0  0  0  0  0  0  0  0
    3.4679   14.9693   -5.9443 C   0  0  0  0  0  0  0  0  0  0  0  0
    3.7465   15.8562   -6.6197 N   0  0  0  0  0  0  0  0  0  0  0  0
    1.6503   14.0513   -4.8678 C   0  0  0  0  0  0  0  0  0  0  0  0
    0.5152   14.2091   -4.7695 N   0  0  0  0  0  0  0  0  0  0  0  0
    8.6570   13.1805   -6.6695 C   0  0  0  0  0  0  0  0  0  0  0  0
    8.7426   12.7815   -8.1635 C   0  0  0  0  0  0  0  0  0  0  0  0
    7.7204   11.6927   -8.3761 C   0  0  0  0  0  0  0  0  0  0  0  0
    8.1542   10.6035   -7.7562 C   0  0  0  0  0  0  0  0  0  0  0  0
    9.4776   10.9364   -7.1129 C   0  0  0  0  0  0  0  0  0  0  0  0
   10.0300   11.9423   -8.1353 C   0  0  0  0  0  0  0  0  0  0  0  0
    9.1677   11.8985   -5.9393 C   0  0  0  0  0  0  0  0  0  0  0  0
   -1.0035  -14.8848    0.0828 H   0  0  0  0  0  0  0  0  0  0  0  0
    4.1829  -12.6404    2.7793 H   0  0  0  0  0  0  0  0  0  0  0  0
    3.3680  -17.5708    1.9421 H   0  0  0  0  0  0  0  0  0  0  0  0
    6.7192  -16.9547    2.3015 H   0  0  0  0  0  0  0  0  0  0  0  0
    5.8034  -18.0546    4.5478 H   0  0  0  0  0  0  0  0  0  0  0  0
    8.3993  -17.7212    4.7831 H   0  0  0  0  0  0  0  0  0  0  0  0
    8.8647  -15.1450    5.2357 H   0  0  0  0  0  0  0  0  0  0  0  0
    6.5557  -13.8924    5.2808 H   0  0  0  0  0  0  0  0  0  0  0  0
    4.5958  -15.7241    5.1217 H   0  0  0  0  0  0  0  0  0  0  0  0
    5.7598  -16.1580    6.3940 H   0  0  0  0  0  0  0  0  0  0  0  0
    7.1733  -14.4277    2.7450 H   0  0  0  0  0  0  0  0  0  0  0  0
   -7.9591  -11.2241   -2.4273 H   0  0  0  0  0  0  0  0  0  0  0  0
   -6.8379  -10.2682   -1.4244 H   0  0  0  0  0  0  0  0  0  0  0  0
   -6.5842  -10.6055   -4.4497 H   0  0  0  0  0  0  0  0  0  0  0  0
   -7.2448   -9.1860   -3.6267 H   0  0  0  0  0  0  0  0  0  0  0  0
   -5.5489   -9.6186   -3.4037 H   0  0  0  0  0  0  0  0  0  0  0  0
   -3.7006  -15.8626   -3.0770 H   0  0  0  0  0  0  0  0  0  0  0  0
   -5.4124  -16.0783   -3.5162 H   0  0  0  0  0  0  0  0  0  0  0  0
   -4.8127  -17.6567   -1.7368 H   0  0  0  0  0  0  0  0  0  0  0  0
   -5.9140  -16.4535   -1.0561 H   0  0  0  0  0  0  0  0  0  0  0  0
   -4.1746  -16.3615   -0.7311 H   0  0  0  0  0  0  0  0  0  0  0  0
   -0.4987   -8.9352    2.0939 H   0  0  0  0  0  0  0  0  0  0  0  0
   -4.3706   -4.9957   -1.7611 H   0  0  0  0  0  0  0  0  0  0  0  0
   -3.2536   -5.0023   -3.9521 H   0  0  0  0  0  0  0  0  0  0  0  0
   -1.9674   -3.7112   -5.6129 H   0  0  0  0  0  0  0  0  0  0  0  0
   -0.9734   -2.3374   -5.1063 H   0  0  0  0  0  0  0  0  0  0  0  0
    0.4477   -4.2855   -5.7161 H   0  0  0  0  0  0  0  0  0  0  0  0
    0.6226   -3.9042   -3.9995 H   0  0  0  0  0  0  0  0  0  0  0  0
   -0.3697   -5.2730   -4.4998 H   0  0  0  0  0  0  0  0  0  0  0  0
   -0.9234   -1.6344   -2.7633 H   0  0  0  0  0  0  0  0  0  0  0  0
   -2.0207   -1.6322   -0.5818 H   0  0  0  0  0  0  0  0  0  0  0  0
   -6.0521   -3.7710    2.0001 H   0  0  0  0  0  0  0  0  0  0  0  0
   -8.2786   -2.7269    1.9913 H   0  0  0  0  0  0  0  0  0  0  0  0
   -9.2383    0.0443   -0.2349 H   0  0  0  0  0  0  0  0  0  0  0  0
   -9.6743   -0.8648    1.2193 H   0  0  0  0  0  0  0  0  0  0  0  0
   -9.8815   -1.9102   -1.6461 H   0  0  0  0  0  0  0  0  0  0  0  0
  -11.2365   -1.3794   -0.6434 H   0  0  0  0  0  0  0  0  0  0  0  0
  -10.3123   -2.8183   -0.1977 H   0  0  0  0  0  0  0  0  0  0  0  0
   -7.2401   -0.5599   -1.5318 H   0  0  0  0  0  0  0  0  0  0  0  0
   -5.0241   -1.6067   -1.5299 H   0  0  0  0  0  0  0  0  0  0  0  0
    0.9070    0.8706    2.5193 H   0  0  0  0  0  0  0  0  0  0  0  0
    2.7638   -0.6727    3.0058 H   0  0  0  0  0  0  0  0  0  0  0  0
    3.1397   -2.5286    6.1655 H   0  0  0  0  0  0  0  0  0  0  0  0
    3.9392   -2.0567    4.6584 H   0  0  0  0  0  0  0  0  0  0  0  0
    2.4650   -3.6210    3.3894 H   0  0  0  0  0  0  0  0  0  0  0  0
    1.6584   -4.0837    4.8835 H   0  0  0  0  0  0  0  0  0  0  0  0
    3.3639   -4.4818    4.6439 H   0  0  0  0  0  0  0  0  0  0  0  0
    0.8303   -1.8394    6.6229 H   0  0  0  0  0  0  0  0  0  0  0  0
   -1.0206   -0.3086    6.1352 H   0  0  0  0  0  0  0  0  0  0  0  0
   -0.8573    3.2640    5.5442 H   0  0  0  0  0  0  0  0  0  0  0  0
   -2.1198    4.0140    7.5191 H   0  0  0  0  0  0  0  0  0  0  0  0
   -3.7493    3.4322    9.2646 H   0  0  0  0  0  0  0  0  0  0  0  0
   -4.9246    2.1356    9.0009 H   0  0  0  0  0  0  0  0  0  0  0  0
   -6.1380    3.5740    7.3611 H   0  0  0  0  0  0  0  0  0  0  0  0
   -6.0330    4.3593    8.9407 H   0  0  0  0  0  0  0  0  0  0  0  0
   -4.9675    4.8659    7.6250 H   0  0  0  0  0  0  0  0  0  0  0  0
   -4.9400    0.8750    6.8982 H   0  0  0  0  0  0  0  0  0  0  0  0
   -3.6896    0.1328    4.9284 H   0  0  0  0  0  0  0  0  0  0  0  0
   -3.0003    6.5850   -0.0805 H   0  0  0  0  0  0  0  0  0  0  0  0
   -0.5078    5.7178   -1.7543 H   0  0  0  0  0  0  0  0  0  0  0  0
   -1.5149    3.4848   -1.7968 H   0  0  0  0  0  0  0  0  0  0  0  0
   -0.0793    0.5537   -1.2823 H   0  0  0  0  0  0  0  0  0  0  0  0
   -0.5743    0.7641    0.3934 H   0  0  0  0  0  0  0  0  0  0  0  0
   -1.6580    1.2566   -0.9169 H   0  0  0  0  0  0  0  0  0  0  0  0
    1.7003    1.9843    0.5693 H   0  0  0  0  0  0  0  0  0  0  0  0
    2.6808    4.2293    0.6667 H   0  0  0  0  0  0  0  0  0  0  0  0
    3.4073    5.1937   -1.9528 H   0  0  0  0  0  0  0  0  0  0  0  0
    5.8259    5.6157   -2.0464 H   0  0  0  0  0  0  0  0  0  0  0  0
    7.8085    6.6105   -1.1053 H   0  0  0  0  0  0  0  0  0  0  0  0
    7.7014    7.5669    0.3819 H   0  0  0  0  0  0  0  0  0  0  0  0
    7.4090    8.3288   -1.1791 H   0  0  0  0  0  0  0  0  0  0  0  0
    5.4479    8.5153    1.0576 H   0  0  0  0  0  0  0  0  0  0  0  0
    3.0304    8.0810    1.1696 H   0  0  0  0  0  0  0  0  0  0  0  0
    1.9065   12.8602   -0.1412 H   0  0  0  0  0  0  0  0  0  0  0  0
    2.8151   15.1366   -0.0928 H   0  0  0  0  0  0  0  0  0  0  0  0
    1.0810   18.0843   -1.0474 H   0  0  0  0  0  0  0  0  0  0  0  0
    2.6810   17.4439   -0.6451 H   0  0  0  0  0  0  0  0  0  0  0  0
    2.1882   17.6195   -2.3326 H   0  0  0  0  0  0  0  0  0  0  0  0
   -0.4041   16.4814   -2.5479 H   0  0  0  0  0  0  0  0  0  0  0  0
   -1.3045   14.2020   -2.6237 H   0  0  0  0  0  0  0  0  0  0  0  0
   -1.7061   10.3939   -2.9163 H   0  0  0  0  0  0  0  0  0  0  0  0
   -4.1413   10.0819   -2.7991 H   0  0  0  0  0  0  0  0  0  0  0  0
   -6.3214   11.0417   -2.1491 H   0  0  0  0  0  0  0  0  0  0  0  0
   -6.4167   12.2553   -0.8632 H   0  0  0  0  0  0  0  0  0  0  0  0
   -6.1417   10.5612   -0.4636 H   0  0  0  0  0  0  0  0  0  0  0  0
   -4.3806   13.0717    0.2337 H   0  0  0  0  0  0  0  0  0  0  0  0
   -1.9444   13.3756    0.1313 H   0  0  0  0  0  0  0  0  0  0  0  0
    1.5881   12.6384   -3.1829 H   0  0  0  0  0  0  0  0  0  0  0  0
    7.3197   10.1909   -3.9303 H   0  0  0  0  0  0  0  0  0  0  0  0
    5.7366   14.3565   -6.3354 H   0  0  0  0  0  0  0  0  0  0  0  0
    9.1634   14.1213   -6.4622 H   0  0  0  0  0  0  0  0  0  0  0  0
    8.7042   13.6175   -8.8568 H   0  0  0  0  0  0  0  0  0  0  0  0
    6.7882   11.8387   -8.8898 H   0  0  0  0  0  0  0  0  0  0  0  0
    7.6564    9.6576   -7.6479 H   0  0  0  0  0  0  0  0  0  0  0  0
   10.1096   10.0919   -6.8500 H   0  0  0  0  0  0  0  0  0  0  0  0
   10.8989   12.4926   -7.7769 H   0  0  0  0  0  0  0  0  0  0  0  0
   10.2557   11.4844   -9.0973 H   0  0  0  0  0  0  0  0  0  0  0  0
   10.0082   12.0027   -5.2554 H   0  0  0  0  0  0  0  0  0  0  0  0
  1  2  2  0  0  0  0
  2  3  1  0  0  0  0
  3  4  2  0  0  0  0
  3  5  1  0  0  0  0
  5  6  2  0  0  0  0
  6  7  1  0  0  0  0
  7  8  2  0  0  0  0
  8  9  1  0  0  0  0
  9 10  2  0  0  0  0
 10 11  1  0  0  0  0
 11 12  2  0  0  0  0
 12 13  1  0  0  0  0
 13 14  3  0  0  0  0
 12 15  1  0  0  0  0
 15 16  3  0  0  0  0
  8 17  1  0  0  0  0
 17 18  1  0  0  0  0
 18 19  1  0  0  0  0
 19 20  2  0  0  0  0
 20 21  1  0  0  0  0
 21 22  1  0  0  0  0
 21 23  1  0  0  0  0
  1 24  1  0  0  0  0
 24 25  1  0  0  0  0
 25 26  1  0  0  0  0
 26 27  2  0  0  0  0
 27 28  1  0  0  0  0
 28 29  2  0  0  0  0
 28 30  1  0  0  0  0
 30 31  2  0  0  0  0
 31 32  1  0  0  0  0
 32 33  1  0  0  0  0
 31 34  1  0  0  0  0
 34 35  1  0  0  0  0
 35 36  1  0  0  0  0
 36 37  1  0  0  0  0
 35 38  2  0  0  0  0
 38 39  1  0  0  0  0
 39 40  2  0  0  0  0
 39 41  1  0  0  0  0
 26 42  1  0  0  0  0
 42 43  2  0  0  0  0
 43 44  1  0  0  0  0
 44 45  1  0  0  0  0
 45 46  1  0  0  0  0
 46 47  1  0  0  0  0
 47 48  2  0  0  0  0
 48 49  1  0  0  0  0
 49 50  1  0  0  0  0
 50 51  1  0  0  0  0
 51 52  1  0  0  0  0
 52 53  1  0  0  0  0
 49 54  1  0  0  0  0
 54 55  2  0  0  0  0
 55 56  1  0  0  0  0
 56 57  2  0  0  0  0
 57 58  1  0  0  0  0
 58 59  1  0  0  0  0
 57 60  1  0  0  0  0
 60 61  2  0  0  0  0
 49 62  1  0  0  0  0
 62 63  2  0  0  0  0
 63 64  1  0  0  0  0
 64 65  2  0  0  0  0
 65 66  1  0  0  0  0
 66 67  1  0  0  0  0
 65 68  1  0  0  0  0
 68 69  2  0  0  0  0
 48 70  1  0  0  0  0
 70 71  1  0  0  0  0
 71 72  1  0  0  0  0
 72 73  1  0  0  0  0
 73 74  2  0  0  0  0
 74 75  1  0  0  0  0
 75 76  1  0  0  0  0
 76 77  1  0  0  0  0
 77 78  2  0  0  0  0
 78 79  1  0  0  0  0
 79 80  2  0  0  0  0
 80 81  1  0  0  0  0
 81 82  1  0  0  0  0
 80 83  1  0  0  0  0
 83 84  2  0  0  0  0
 76 85  1  0  0  0  0
 85 86  2  0  0  0  0
 86 87  1  0  0  0  0
 87 88  2  0  0  0  0
 88 89  1  0  0  0  0
 89 90  1  0  0  0  0
 88 91  1  0  0  0  0
 91 92  2  0  0  0  0
 76 93  1  0  0  0  0
 93 94  1  0  0  0  0
 94 95  1  0  0  0  0
 74 96  1  0  0  0  0
 96 97  2  0  0  0  0
 97 98  1  0  0  0  0
 97 99  1  0  0  0  0
 99100  2  0  0  0  0
100101  1  0  0  0  0
100102  1  0  0  0  0
102103  2  0  0  0  0
103104  1  0  0  0  0
104105  1  0  0  0  0
105106  2  0  0  0  0
106107  1  0  0  0  0
107108  2  0  0  0  0
108109  1  0  0  0  0
108110  1  0  0  0  0
110111  2  0  0  0  0
104112  1  0  0  0  0
112113  2  0  0  0  0
113114  1  0  0  0  0
114115  2  0  0  0  0
115116  1  0  0  0  0
115117  1  0  0  0  0
117118  2  0  0  0  0
103119  1  0  0  0  0
119120  1  0  0  0  0
120121  1  0  0  0  0
121122  2  0  0  0  0
122123  1  0  0  0  0
123124  1  0  0  0  0
124125  2  0  0  0  0
125126  1  0  0  0  0
126127  2  0  0  0  0
127128  1  0  0  0  0
127129  1  0  0  0  0
129130  2  0  0  0  0
123131  1  0  0  0  0
131132  2  0  0  0  0
132133  1  0  0  0  0
133134  2  0  0  0  0
134135  1  0  0  0  0
134136  1  0  0  0  0
136137  2  0  0  0  0
122138  1  0  0  0  0
138139  1  0  0  0  0
121140  1  0  0  0  0
140141  2  0  0  0  0
141142  1  0  0  0  0
142143  2  0  0  0  0
142144  1  0  0  0  0
144145  2  0  0  0  0
145146  1  0  0  0  0
146147  2  0  0  0  0
147148  1  0  0  0  0
148149  2  0  0  0  0
149150  1  0  0  0  0
150151  2  0  0  0  0
151152  1  0  0  0  0
152153  3  0  0  0  0
151154  1  0  0  0  0
154155  3  0  0  0  0
147156  1  0  0  0  0
156157  1  0  0  0  0
157158  1  0  0  0  0
158159  2  0  0  0  0
159160  1  0  0  0  0
160161  1  0  0  0  0
160162  1  0  0  0  0
 11  2  1  0  0  0  0
 23 17  1  0  0  0  0
 41 24  2  0  0  0  0
 53 42  1  0  0  0  0
 61 54  1  0  0  0  0
 69 62  1  0  0  0  0
 94 70  2  0  0  0  0
101 96  1  0  0  0  0
139102  1  0  0  0  0
150141  1  0  0  0  0
162156  1  0  0  0  0
 10  5  1  0  0  0  0
 22 18  1  0  0  0  0
 41 27  1  0  0  0  0
 52 44  2  0  0  0  0
 93 72  2  0  0  0  0
111105  1  0  0  0  0
118112  1  0  0  0  0
138119  2  0  0  0  0
149144  1  0  0  0  0
161157  1  0  0  0  0
 23  7  1  0  0  0  0
 38 30  1  0  0  0  0
 51 46  2  0  0  0  0
 98 73  1  0  0  0  0
130124  1  0  0  0  0
137131  1  0  0  0  0
162146  1  0  0  0  0
 95 47  1  0  0  0  0
 84 77  1  0  0  0  0
 92 85  1  0  0  0  0
  1163  1  0  0  0  0
  6164  1  0  0  0  0
  9165  1  0  0  0  0
 17166  1  0  0  0  0
 18167  1  0  0  0  0
 19168  1  0  0  0  0
 20169  1  0  0  0  0
 21170  1  0  0  0  0
 22171  1  0  0  0  0
 22172  1  0  0  0  0
 23173  1  0  0  0  0
 32174  1  0  0  0  0
 32175  1  0  0  0  0
 33176  1  0  0  0  0
 33177  1  0  0  0  0
 33178  1  0  0  0  0
 36179  1  0  0  0  0
 36180  1  0  0  0  0
 37181  1  0  0  0  0
 37182  1  0  0  0  0
 37183  1  0  0  0  0
 43184  1  0  0  0  0
 55185  1  0  0  0  0
 56186  1  0  0  0  0
 58187  1  0  0  0  0
 58188  1  0  0  0  0
 59189  1  0  0  0  0
 59190  1  0  0  0  0
 59191  1  0  0  0  0
 60192  1  0  0  0  0
 61193  1  0  0  0  0
 63194  1  0  0  0  0
 64195  1  0  0  0  0
 66196  1  0  0  0  0
 66197  1  0  0  0  0
 67198  1  0  0  0  0
 67199  1  0  0  0  0
 67200  1  0  0  0  0
 68201  1  0  0  0  0
 69202  1  0  0  0  0
 78203  1  0  0  0  0
 79204  1  0  0  0  0
 81205  1  0  0  0  0
 81206  1  0  0  0  0
 82207  1  0  0  0  0
 82208  1  0  0  0  0
 82209  1  0  0  0  0
 83210  1  0  0  0  0
 84211  1  0  0  0  0
 86212  1  0  0  0  0
 87213  1  0  0  0  0
 89214  1  0  0  0  0
 89215  1  0  0  0  0
 90216  1  0  0  0  0
 90217  1  0  0  0  0
 90218  1  0  0  0  0
 91219  1  0  0  0  0
 92220  1  0  0  0  0
 99221  1  0  0  0  0
106222  1  0  0  0  0
107223  1  0  0  0  0
109224  1  0  0  0  0
109225  1  0  0  0  0
109226  1  0  0  0  0
110227  1  0  0  0  0
111228  1  0  0  0  0
113229  1  0  0  0  0
114230  1  0  0  0  0
116231  1  0  0  0  0
116232  1  0  0  0  0
116233  1  0  0  0  0
117234  1  0  0  0  0
118235  1  0  0  0  0
125236  1  0  0  0  0
126237  1  0  0  0  0
128238  1  0  0  0  0
128239  1  0  0  0  0
128240  1  0  0  0  0
129241  1  0  0  0  0
130242  1  0  0  0  0
132243  1  0  0  0  0
133244  1  0  0  0  0
135245  1  0  0  0  0
135246  1  0  0  0  0
135247  1  0  0  0  0
136248  1  0  0  0  0
137249  1  0  0  0  0
140250  1  0  0  0  0
145251  1  0  0  0  0
148252  1  0  0  0  0
156253  1  0  0  0  0
157254  1  0  0  0  0
158255  1  0  0  0  0
159256  1  0  0  0  0
160257  1  0  0  0  0
161258  1  0  0  0  0
161259  1  0  0  0  0
162260  1  0  0  0  0
M  END
