176

C         -1.34940       -7.86540        3.90950
C         -2.28100       -7.19270        3.19460
C         -2.05800       -5.85160        2.57550
O         -1.01200       -5.25880        2.43410
C         -3.40130       -5.34150        2.25040
C         -3.70470       -4.08080        1.73760
C         -5.04680       -3.86260        1.54490
C         -6.02080       -4.83250        1.82540
C         -5.73650       -6.07720        2.33380
C         -4.37430       -6.31550        2.55490
C         -3.70510       -7.48870        3.10360
C         -4.29490       -8.68170        3.42050
C         -5.67500       -8.95040        3.29830
N         -6.78620       -9.23050        3.23420
C         -3.60250       -9.81810        3.89220
N         -3.10810      -10.78280        4.27020
C         -7.15380       -3.92940        1.40190
C         -7.97820       -3.28970        2.53800
C         -8.65950       -2.11000        1.88210
C         -7.73360       -1.18820        1.64930
C         -6.40840       -1.73630        2.12830
C         -6.88880       -2.55640        3.33270
C         -6.06910       -2.84470        1.10590
C          0.06100       -7.53410        3.91490
C          0.74040       -7.28000        2.71300
C          2.04640       -6.86330        2.77280
C          2.94760       -6.46860        1.65850
O          2.76650       -6.59420        0.47180
C          4.12000       -5.86400        2.34530
C          3.98140       -6.01050        3.74010
C          2.70160       -6.65450        4.00540
C          2.06020       -6.98480        5.18540
C          0.75190       -7.44340        5.12590
C          4.93060       -5.44840        4.57480
C          5.93790       -4.66700        4.02670
C          6.03720       -4.45300        2.64670
C          5.13720       -5.12590        1.79880
C          6.86350       -3.40990        2.07940
C          7.85480       -2.61630        2.63320
C          8.64080       -2.95190        3.82110
C          8.96290       -1.98020        4.76410
C          9.73800       -2.31370        5.85920
C         10.20280       -3.60680        6.02020
C          9.89610       -4.58930        5.08550
C         10.44100       -5.98150        5.22740
C         11.79520       -6.09660        4.52510
C          9.11890       -4.24990        3.99010
C          8.06560       -1.44400        1.86800
S          8.98260        0.03060        2.12880
C          8.22390        0.74390        0.73670
C          8.00400        2.01150        0.16040
C          8.32770        3.32400        0.57900
C          7.57620        4.43790        0.05010
N          7.90630        5.58270        0.62430
S          9.06490        5.29920        1.71920
N          9.18410        3.69740        1.51500
C          6.62760        4.21270       -0.97410
C          5.64890        5.01330       -1.60250
S          4.88930        6.55320       -1.36480
C          3.64030        6.08880       -2.49820
C          2.35630        6.62230       -2.75390
C          1.90960        7.85280       -2.09050
C          0.76070        7.87090       -1.30490
C          0.39820        9.03010       -0.64630
C          1.17450       10.17090       -0.75880
C          2.33400       10.16400       -1.52310
C          3.16640       11.40450       -1.67220
C          2.71230       12.20980       -2.89130
C          2.69240        8.99750       -2.18280
C          1.60960        5.78080       -3.55340
S          2.52560        4.36020       -4.04170
C          3.87300        4.84450       -3.08340
C          5.01890        4.22310       -2.56950
N          5.56940        2.95800       -2.58310
C          6.49850        2.92730       -1.54830
C          7.06890        1.81480       -0.89220
N          6.72170        0.48340       -0.94510
C          7.39220       -0.15270        0.05980
C          7.28740       -1.38330        0.71450
S          6.28710       -2.77050        0.54430
C          5.59100       -0.14520       -1.58670
C          6.01720       -1.16680       -2.63760
C          5.77100        2.21260       -3.81650
C          4.49270        1.67060       -4.44440
C          0.20620        5.79960       -3.90180
C         -0.42510        4.56760       -4.14780
C         -1.78570        4.52770       -4.30490
C         -2.65530        3.33820       -4.47770
O         -2.32330        2.18330       -4.60640
C         -4.03290        3.88880       -4.41750
C         -3.97890        5.29030       -4.27740
C         -2.57510        5.69220       -4.22750
C         -1.95080        6.91710       -4.07840
C         -0.57010        6.96280       -3.92820
C         -5.15630        6.00340       -4.15520
C         -6.36100        5.30930       -4.12930
C         -6.41390        3.92030       -4.22960
C         -5.22430        3.20360       -4.41040
C         -7.69290        3.20090       -4.15410
C         -8.75570        3.60320       -4.93810
C         -9.95650        2.89720       -4.95170
C        -10.10830        1.76220       -4.18150
C        -11.37160        1.00930       -4.23450
O        -12.30750        1.34680       -4.93080
N        -11.44870       -0.12600       -3.44310
C        -12.69990       -0.87710       -3.48160
C        -13.68200       -0.35970       -2.43840
C        -10.46620       -0.58510       -2.58430
O        -10.64400       -1.57580       -1.90360
C         -9.21110        0.18500       -2.54800
C         -8.19160       -0.22890       -1.71740
C         -7.01620        0.51890       -1.62970
C         -6.84650        1.64540       -2.39350
C         -7.83880        2.06630       -3.30440
C         -9.05540        1.33650       -3.34710
H         -1.65770       -8.66850        4.56800
H         -2.92210       -3.36950        1.52480
H         -6.49560       -6.80910        2.55450
H         -7.76790       -4.28980        0.57950
H         -8.61590       -3.98120        3.08150
H         -9.69860       -2.08910        1.61200
H         -7.85070       -0.23590        1.16640
H         -5.61240       -1.01590        2.29890
H         -7.30500       -1.92660        4.11730
H         -6.13030       -3.21170        3.75730
H         -5.96640       -2.47210        0.08840
H          0.25120       -7.41210        1.76100
H          2.55230       -6.86880        6.13930
H          0.22880       -7.67640        6.04270
H          4.86450       -5.55830        5.64690
H          6.62510       -4.16320        4.68830
H          5.19950       -5.01520        0.72570
H          8.59320       -0.97320        4.64730
H          9.98120       -1.55830        6.59160
H         10.80940       -3.85890        6.87820
H         10.56160       -6.22600        6.28470
H          9.74440       -6.69820        4.78730
H         12.50670       -5.39700        4.95820
H         12.19230       -7.10400        4.62620
H         11.69260       -5.86770        3.46680
H          8.87890       -5.00070        3.25030
H          0.16520        6.97530       -1.20530
H         -0.49220        9.04200       -0.03480
H          0.88410       11.07230       -0.23860
H          4.21650       11.13100       -1.79130
H          3.07310       12.02230       -0.77710
H          1.66930       12.50080       -2.78610
H          3.31430       13.10890       -2.99900
H          2.81180       11.61510       -3.79680
H          3.59230        8.97640       -2.78100
H          4.95780        0.62990       -2.01140
H          5.01410       -0.66390       -0.81230
H          6.59150       -1.96350       -2.17210
H          6.62970       -0.71340       -3.41310
H          5.13650       -1.60320       -3.09920
H          6.26660        2.87180       -4.54170
H          6.46330        1.40200       -3.59010
H          3.91450        2.47020       -4.89590
H          3.86330        1.16940       -3.71430
H          4.75290        0.95840       -5.22290
H          0.14020        3.64790       -4.17060
H         -2.52040        7.83420       -4.05950
H         -0.08630        7.91960       -3.80670
H         -5.14920        7.07850       -4.05730
H         -7.28240        5.85710       -3.99340
H         -5.23550        2.13250       -4.54620
H         -8.64140        4.46400       -5.58040
H        -10.77690        3.21330       -5.57810
H        -12.45730       -1.92350       -3.28870
H        -13.11660       -0.76460       -4.48390
H        -14.60240       -0.93470       -2.48520
H        -13.25720       -0.45860       -1.44210
H        -13.91240        0.68630       -2.62690
H         -8.33400       -1.12070       -1.12540
H         -6.23710        0.21000       -0.94870
H         -5.94400        2.22820       -2.28940
