175

C         -0.15570        5.01450        6.65400
C          0.78930        4.13090        6.21090
C          0.95350        3.74030        4.78940
O          0.51170        4.28860        3.80060
C          1.68190        2.45830        4.81580
C          1.98560        1.65750        3.71720
C          2.64350        0.49500        4.03780
C          2.96630        0.14450        5.35580
C          2.67330        0.92670        6.44880
C          2.01170        2.12090        6.14330
C          1.52790        3.18320        7.02040
C          1.79160        3.31780        8.35830
C          2.54120        2.39760        9.11780
N          3.14130        1.68150        9.78530
C          1.38450        4.42940        9.12590
N          1.10400        5.32130        9.79250
C          3.59660       -1.16250        4.93520
C          5.13830       -1.21800        4.91930
C          5.45480       -2.39160        4.01890
C          5.16600       -2.03490        2.77360
C          4.64110       -0.61870        2.81290
C          5.47680       -0.05980        3.97160
C          3.24910       -0.76100        3.46560
C         -0.84510        5.92010        5.81270
C         -0.37640        6.65290        4.73230
C          1.05540        6.94880        4.43640
C          1.32330        8.45300        4.49670
C         -1.44510        7.18340        4.00070
C         -2.71580        6.89190        4.50530
S         -2.60310        6.03230        5.99660
C         -3.76740        7.20940        3.64180
C         -3.30690        7.72700        2.44840
S         -1.56190        7.93430        2.44900
C         -3.99610        7.81870        1.20290
C         -5.35440        7.71930        0.92770
C         -6.40410        7.95650        1.91540
C         -7.55900        7.17850        1.93890
C         -8.53030        7.41600        2.89300
C         -8.36220        8.42010        3.83040
C         -7.22180        9.21460        3.81570
C         -6.99570       10.26720        4.86210
C         -6.11460        9.71200        5.98360
C         -6.25640        8.97900        2.85030
C         -5.57110        7.34420       -0.41740
S         -6.97790        6.78970       -1.30880
C         -5.94420        6.24230       -2.59330
C         -5.97750        5.35320       -3.68910
C         -7.00970        4.65340       -4.35550
C         -6.66510        3.61470       -5.29620
N         -7.73340        3.05710       -5.84020
S         -9.05600        3.76650       -5.23340
N         -8.31770        4.81100       -4.24030
C         -5.31020        3.22580       -5.42810
C         -4.71280        2.02430       -5.85760
S         -5.17360        0.46790       -6.47720
C         -3.58310       -0.15020       -6.07530
C         -3.06160       -1.46120       -5.97460
C         -3.83160       -2.65740       -6.31140
C         -4.56420       -2.70850       -7.49430
C         -5.28820       -3.84380       -7.80460
C         -5.29210       -4.92940       -6.94500
C         -4.58550       -4.88690       -5.74980
C         -4.54520       -6.06640       -4.82120
C         -3.22060       -6.81890       -4.96630
C         -3.86450       -3.74280       -5.44160
C         -1.80590       -1.45730       -5.39800
S         -1.25060        0.16610       -5.00830
C         -2.73950        0.83370       -5.56310
C         -3.37700        2.07380       -5.44990
N         -3.09810        3.27490       -4.85730
C         -4.28490        3.98250       -4.80030
C         -4.62370        5.13760       -4.05950
N         -3.80520        5.96910       -3.31680
C         -4.60440        6.58130       -2.38540
C         -4.39510        7.21090       -1.15700
S         -2.99740        7.59560       -0.22840
C         -2.55130        6.55740       -3.73710
C         -2.68920        8.06270       -3.95960
C         -1.91580        3.39670       -4.03200
C         -2.21600        3.09640       -2.56590
C         -0.96320       -2.51470       -4.92270
C         -0.57990       -3.72710       -5.46150
C         -0.89730       -4.22990       -6.83500
C         -0.44480       -3.25390       -7.91970
C          0.24180       -4.42610       -4.55770
C          0.50320       -3.75560       -3.35460
S         -0.27590       -2.21960       -3.32490
C          1.30800       -4.44330       -2.46060
C          1.69270       -5.67730       -2.95650
S          1.02460       -5.96120       -4.57520
C          2.48520       -6.70530       -2.41170
C          3.15310       -6.80190       -1.21880
C          3.28330       -5.80080       -0.13530
O          2.76380       -4.70600       -0.02910
C          4.21170       -6.38140        0.84910
C          4.65750       -5.77040        2.01980
C          5.54920       -6.52760        2.73840
C          5.96000       -7.80300        2.32730
C          5.52120       -8.41820        1.17890
C          4.61340       -7.66240        0.42840
C          3.93410       -7.96840       -0.82910
C          4.00870       -9.17340       -1.47930
C          3.33160       -9.54060       -2.66210
N          2.82100       -9.94630       -3.60820
C          4.77450      -10.27300       -1.03540
N          5.36760      -11.21220       -0.74450
C          6.85840       -7.98590        3.52580
C          6.32650       -8.89010        4.65800
C          7.16620       -8.50190        5.85390
C          6.78320       -7.29180        6.24080
C          5.67810       -6.84150        5.31270
C          5.01010       -8.19170        5.02290
C          6.40430       -6.56150        3.98020
H         -0.50650        4.94130        7.67700
H          1.70600        1.95680        2.71930
H          2.91490        0.64240        7.45970
H          3.14070       -2.05970        5.34990
H          5.60440       -1.21520        5.90090
H          5.79520       -3.34650        4.37560
H          5.22000       -2.62400        1.87670
H          4.64980       -0.06880        1.87570
H          5.14750        0.91450        4.32790
H          6.53800       -0.01980        3.73150
H          2.57670       -1.39730        2.89320
H          1.69320        6.43260        5.15460
H          1.29070        6.57290        3.43780
H          2.37330        8.64960        4.29630
H          1.08130        8.84180        5.48360
H          0.72660        8.98220        3.75770
H         -4.80090        6.99540        3.83880
H         -7.68520        6.37900        1.22580
H         -9.42230        6.80750        2.90940
H         -9.12260        8.59210        4.57830
H         -7.95120       10.59060        5.27850
H         -6.50500       11.13450        4.41540
H         -5.15060        9.39710        5.58930
H         -5.94710       10.46870        6.74620
H         -6.59060        8.85110        6.44790
H         -5.37220        9.59970        2.81840
H         -4.55160       -1.86620       -8.16930
H         -5.85120       -3.88440       -8.72510
H         -5.85530       -5.81530       -7.20030
H         -4.65170       -5.72500       -3.78900
H         -5.37220       -6.74260       -5.04400
H         -3.19830       -7.67980       -4.30270
H         -2.38320       -6.17030       -4.71880
H         -3.09210       -7.16680       -5.98880
H         -3.32840       -3.68870       -4.50510
H         -2.26310        6.09590       -4.68240
H         -1.78550        6.37160       -2.97570
H         -1.75820        8.45560       -4.35900
H         -2.90580        8.57560       -3.02690
H         -3.48870        8.26940       -4.66780
H         -1.19580        2.66770       -4.41190
H         -1.46780        4.38220       -4.13550
H         -2.93170        3.80770       -2.16180
H         -2.62850        2.09520       -2.46600
H         -1.30020        3.15330       -1.98470
H         -1.97160       -4.39980       -6.93120
H         -0.38930       -5.18760       -6.96790
H         -0.97650       -2.31000       -7.83180
H          0.62250       -3.06010       -7.83820
H         -0.64720       -3.67260       -8.90180
H          1.60600       -4.08000       -1.49520
H          2.57590       -7.55720       -3.07480
H          4.31110       -4.78850        2.30110
H          5.85490       -9.39640        0.87770
H          7.91160       -8.15270        3.30800
H          6.28210       -9.94760        4.41310
H          7.96340       -9.10420        6.24790
H          7.19660       -6.68160        7.02240
H          5.04160       -6.03380        5.66520
H          4.54890       -8.62160        5.91040
H          4.28350       -8.16270        4.21290
H          7.15710       -5.77870        4.05850
