
  xtb     02132212103D
 energy: -336.404556249985 gnorm: 0.000960435807 xtb: 6.4.1 (unknown)
201226  0     0  0            999 V2000
  -10.7570   -8.0799   -1.2239 C   0  0  0  0  0  0  0  0  0  0  0  0
  -10.5099   -9.4253   -1.1816 C   0  0  0  0  0  0  0  0  0  0  0  0
   -9.2958  -10.0935   -1.6722 C   0  0  0  0  0  0  0  0  0  0  0  0
   -8.4431   -9.6342   -2.4126 O   0  0  0  0  0  0  0  0  0  0  0  0
   -9.2942  -11.4347   -1.0668 C   0  0  0  0  0  0  0  0  0  0  0  0
   -8.2889  -12.3951   -1.1572 C   0  0  0  0  0  0  0  0  0  0  0  0
   -8.5498  -13.5442   -0.4506 C   0  0  0  0  0  0  0  0  0  0  0  0
   -9.7217  -13.7249    0.2966 C   0  0  0  0  0  0  0  0  0  0  0  0
  -10.7243  -12.7885    0.3890 C   0  0  0  0  0  0  0  0  0  0  0  0
  -10.4826  -11.6141   -0.3284 C   0  0  0  0  0  0  0  0  0  0  0  0
  -11.3003  -10.4114   -0.4673 C   0  0  0  0  0  0  0  0  0  0  0  0
  -12.6034  -10.2761   -0.0701 C   0  0  0  0  0  0  0  0  0  0  0  0
  -13.4146   -9.1533   -0.3452 C   0  0  0  0  0  0  0  0  0  0  0  0
  -14.1422   -8.2941   -0.5679 N   0  0  0  0  0  0  0  0  0  0  0  0
  -13.3341  -11.2755    0.6060 C   0  0  0  0  0  0  0  0  0  0  0  0
  -13.9784  -12.0469    1.1605 N   0  0  0  0  0  0  0  0  0  0  0  0
   -9.3111  -15.1012    0.7565 C   0  0  0  0  0  0  0  0  0  0  0  0
   -9.9779  -16.3200    0.0726 C   0  0  0  0  0  0  0  0  0  0  0  0
  -10.3864  -15.8653   -1.3066 C   0  0  0  0  0  0  0  0  0  0  0  0
   -9.2816  -15.6950   -2.0202 C   0  0  0  0  0  0  0  0  0  0  0  0
   -8.1058  -16.0317   -1.1367 C   0  0  0  0  0  0  0  0  0  0  0  0
   -8.7253  -17.1415   -0.2725 C   0  0  0  0  0  0  0  0  0  0  0  0
   -8.0085  -14.9023   -0.0812 C   0  0  0  0  0  0  0  0  0  0  0  0
   -9.9978   -7.0579   -1.8201 C   0  0  0  0  0  0  0  0  0  0  0  0
  -10.2553   -5.6928   -1.5973 C   0  0  0  0  0  0  0  0  0  0  0  0
  -11.2748   -5.2295   -0.7471 C   0  0  0  0  0  0  0  0  0  0  0  0
  -12.0865   -4.8305   -0.0420 N   0  0  0  0  0  0  0  0  0  0  0  0
   -9.3693   -4.8406   -2.2543 C   0  0  0  0  0  0  0  0  0  0  0  0
   -8.4427   -5.5271   -3.0188 C   0  0  0  0  0  0  0  0  0  0  0  0
   -8.6418   -7.2500   -2.8961 S   0  0  0  0  0  0  0  0  0  0  0  0
   -7.3475   -4.9582   -3.7201 C   0  0  0  0  0  0  0  0  0  0  0  0
   -6.5074   -5.5725   -4.6325 C   0  0  0  0  0  0  0  0  0  0  0  0
   -6.7537   -6.9046   -5.1967 C   0  0  0  0  0  0  0  0  0  0  0  0
   -7.9018   -7.1386   -5.9471 C   0  0  0  0  0  0  0  0  0  0  0  0
   -8.1324   -8.3956   -6.4716 C   0  0  0  0  0  0  0  0  0  0  0  0
   -7.2337   -9.4212   -6.2399 C   0  0  0  0  0  0  0  0  0  0  0  0
   -6.0825   -9.2017   -5.4943 C   0  0  0  0  0  0  0  0  0  0  0  0
   -5.1462  -10.3337   -5.1875 C   0  0  0  0  0  0  0  0  0  0  0  0
   -5.6853  -11.1454   -4.0079 C   0  0  0  0  0  0  0  0  0  0  0  0
   -5.8457   -7.9337   -4.9859 C   0  0  0  0  0  0  0  0  0  0  0  0
   -5.4134   -4.7551   -4.9563 C   0  0  0  0  0  0  0  0  0  0  0  0
   -4.0121   -5.0070   -5.9686 S   0  0  0  0  0  0  0  0  0  0  0  0
   -3.4159   -3.4555   -5.4826 C   0  0  0  0  0  0  0  0  0  0  0  0
   -2.2432   -2.6907   -5.5914 C   0  0  0  0  0  0  0  0  0  0  0  0
   -0.9799   -2.9860   -6.1522 C   0  0  0  0  0  0  0  0  0  0  0  0
    0.1400   -2.1427   -5.8316 C   0  0  0  0  0  0  0  0  0  0  0  0
    1.2739   -2.5953   -6.3425 N   0  0  0  0  0  0  0  0  0  0  0  0
    0.9622   -3.9539   -7.1656 S   0  0  0  0  0  0  0  0  0  0  0  0
   -0.6322   -4.0255   -6.8936 N   0  0  0  0  0  0  0  0  0  0  0  0
   -0.0779   -0.9722   -5.0716 C   0  0  0  0  0  0  0  0  0  0  0  0
    0.7917    0.0191   -4.5809 C   0  0  0  0  0  0  0  0  0  0  0  0
    2.4908    0.3326   -4.4581 S   0  0  0  0  0  0  0  0  0  0  0  0
    2.1384    1.7546   -3.5045 C   0  0  0  0  0  0  0  0  0  0  0  0
    2.9565    2.6827   -2.8299 C   0  0  0  0  0  0  0  0  0  0  0  0
    4.4199    2.6919   -2.8899 C   0  0  0  0  0  0  0  0  0  0  0  0
    5.1060    3.8773   -3.1454 C   0  0  0  0  0  0  0  0  0  0  0  0
    6.4861    3.8800   -3.1844 C   0  0  0  0  0  0  0  0  0  0  0  0
    7.1919    2.7081   -2.9719 C   0  0  0  0  0  0  0  0  0  0  0  0
    6.5237    1.5137   -2.7368 C   0  0  0  0  0  0  0  0  0  0  0  0
    7.2871    0.2506   -2.4625 C   0  0  0  0  0  0  0  0  0  0  0  0
    7.5452    0.1090   -0.9612 C   0  0  0  0  0  0  0  0  0  0  0  0
    5.1366    1.5160   -2.7014 C   0  0  0  0  0  0  0  0  0  0  0  0
    2.1933    3.5986   -2.1273 C   0  0  0  0  0  0  0  0  0  0  0  0
    0.4679    3.3649   -2.3548 S   0  0  0  0  0  0  0  0  0  0  0  0
    0.7701    1.9806   -3.3414 C   0  0  0  0  0  0  0  0  0  0  0  0
    0.0007    0.9840   -3.9522 C   0  0  0  0  0  0  0  0  0  0  0  0
   -1.3245    0.6366   -4.0321 N   0  0  0  0  0  0  0  0  0  0  0  0
   -1.3867   -0.5914   -4.6715 C   0  0  0  0  0  0  0  0  0  0  0  0
   -2.4468   -1.5199   -4.8100 C   0  0  0  0  0  0  0  0  0  0  0  0
   -3.6958   -1.5895   -4.2246 N   0  0  0  0  0  0  0  0  0  0  0  0
   -4.2761   -2.7655   -4.6204 C   0  0  0  0  0  0  0  0  0  0  0  0
   -5.4187   -3.5122   -4.3128 C   0  0  0  0  0  0  0  0  0  0  0  0
   -6.8076   -3.3350   -3.3006 S   0  0  0  0  0  0  0  0  0  0  0  0
   -4.2418   -0.8471   -3.1105 C   0  0  0  0  0  0  0  0  0  0  0  0
   -5.4724   -0.0341   -3.5098 C   0  0  0  0  0  0  0  0  0  0  0  0
   -2.3416    1.6671   -4.0137 C   0  0  0  0  0  0  0  0  0  0  0  0
   -2.0589    2.7462   -5.0589 C   0  0  0  0  0  0  0  0  0  0  0  0
    2.6341    4.5327   -1.1426 C   0  0  0  0  0  0  0  0  0  0  0  0
    3.7712    4.4623   -0.3913 C   0  0  0  0  0  0  0  0  0  0  0  0
    3.8652    5.4709    0.5950 C   0  0  0  0  0  0  0  0  0  0  0  0
    4.8708    5.6325    1.5571 C   0  0  0  0  0  0  0  0  0  0  0  0
    6.0025    4.6996    1.6529 C   0  0  0  0  0  0  0  0  0  0  0  0
    5.7862    3.3298    1.7775 C   0  0  0  0  0  0  0  0  0  0  0  0
    6.8560    2.4612    1.8940 C   0  0  0  0  0  0  0  0  0  0  0  0
    8.1520    2.9442    1.8882 C   0  0  0  0  0  0  0  0  0  0  0  0
    8.3698    4.3091    1.7785 C   0  0  0  0  0  0  0  0  0  0  0  0
   10.0309    4.9569    1.7937 S   0  0  0  0  0  0  0  0  0  0  0  0
   10.4803    4.5366    3.5177 C   0  0  0  0  0  0  0  0  0  0  0  0
    9.7116    5.3735    4.5197 C   0  0  0  0  0  0  0  0  0  0  0  0
    7.3058    5.1842    1.6542 C   0  0  0  0  0  0  0  0  0  0  0  0
    4.7337    6.6953    2.4370 C   0  0  0  0  0  0  0  0  0  0  0  0
    3.6288    7.5883    2.3963 C   0  0  0  0  0  0  0  0  0  0  0  0
    2.6048    7.4168    1.4382 C   0  0  0  0  0  0  0  0  0  0  0  0
    1.4213    8.2856    1.4052 C   0  0  0  0  0  0  0  0  0  0  0  0
    0.6858    8.5301    2.5615 C   0  0  0  0  0  0  0  0  0  0  0  0
   -0.4312    9.3458    2.5099 C   0  0  0  0  0  0  0  0  0  0  0  0
   -0.8314    9.9092    1.3148 C   0  0  0  0  0  0  0  0  0  0  0  0
   -0.1092    9.6582    0.1505 C   0  0  0  0  0  0  0  0  0  0  0  0
   -0.6884   10.4514   -1.3194 S   0  0  0  0  0  0  0  0  0  0  0  0
    0.0254    9.4744   -2.6879 C   0  0  0  0  0  0  0  0  0  0  0  0
   -0.5601    8.0780   -2.7601 C   0  0  0  0  0  0  0  0  0  0  0  0
    1.0187    8.8552    0.2005 C   0  0  0  0  0  0  0  0  0  0  0  0
    2.7606    6.3632    0.5583 C   0  0  0  0  0  0  0  0  0  0  0  0
    1.6216    5.8873   -0.6788 S   0  0  0  0  0  0  0  0  0  0  0  0
    3.7350    8.5700    3.3947 C   0  0  0  0  0  0  0  0  0  0  0  0
    4.8344    8.4203    4.2205 C   0  0  0  0  0  0  0  0  0  0  0  0
    5.8187    7.0485    3.7507 S   0  0  0  0  0  0  0  0  0  0  0  0
    5.0762    9.2999    5.2979 C   0  0  0  0  0  0  0  0  0  0  0  0
    6.0265    9.2626    6.2774 C   0  0  0  0  0  0  0  0  0  0  0  0
    7.0408    8.2102    6.4712 C   0  0  0  0  0  0  0  0  0  0  0  0
    7.2904    7.2723    5.7385 O   0  0  0  0  0  0  0  0  0  0  0  0
    7.7007    8.5073    7.7526 C   0  0  0  0  0  0  0  0  0  0  0  0
    8.6873    7.7483    8.3778 C   0  0  0  0  0  0  0  0  0  0  0  0
    9.1056    8.2586    9.5826 C   0  0  0  0  0  0  0  0  0  0  0  0
    8.5781    9.4375   10.1273 C   0  0  0  0  0  0  0  0  0  0  0  0
    7.6063   10.1961    9.5198 C   0  0  0  0  0  0  0  0  0  0  0  0
    7.1680    9.6965    8.2895 C   0  0  0  0  0  0  0  0  0  0  0  0
    6.1552   10.2117    7.3710 C   0  0  0  0  0  0  0  0  0  0  0  0
    5.4807   11.3957    7.5179 C   0  0  0  0  0  0  0  0  0  0  0  0
    4.5217   11.9181    6.6242 C   0  0  0  0  0  0  0  0  0  0  0  0
    3.7345   12.4217    5.9557 N   0  0  0  0  0  0  0  0  0  0  0  0
    5.6640   12.2905    8.5936 C   0  0  0  0  0  0  0  0  0  0  0  0
    5.7612   13.0630    9.4375 N   0  0  0  0  0  0  0  0  0  0  0  0
    9.4524    9.3562   11.3536 C   0  0  0  0  0  0  0  0  0  0  0  0
   10.6859   10.2897   11.4238 C   0  0  0  0  0  0  0  0  0  0  0  0
   11.0798   10.5856    9.9978 C   0  0  0  0  0  0  0  0  0  0  0  0
   11.5810    9.4733    9.4774 C   0  0  0  0  0  0  0  0  0  0  0  0
   11.5360    8.4053   10.5423 C   0  0  0  0  0  0  0  0  0  0  0  0
   11.7677    9.2632   11.7964 C   0  0  0  0  0  0  0  0  0  0  0  0
   10.0430    8.0456   10.7442 C   0  0  0  0  0  0  0  0  0  0  0  0
  -11.6197   -7.7143   -0.6760 H   0  0  0  0  0  0  0  0  0  0  0  0
   -7.3970  -12.2124   -1.7359 H   0  0  0  0  0  0  0  0  0  0  0  0
  -11.6163  -12.9383    0.9741 H   0  0  0  0  0  0  0  0  0  0  0  0
   -9.2100  -15.2322    1.8320 H   0  0  0  0  0  0  0  0  0  0  0  0
  -10.7480  -16.8050    0.6661 H   0  0  0  0  0  0  0  0  0  0  0  0
  -11.4020  -15.6655   -1.5941 H   0  0  0  0  0  0  0  0  0  0  0  0
   -9.1893  -15.3239   -3.0242 H   0  0  0  0  0  0  0  0  0  0  0  0
   -7.1715  -16.2556   -1.6451 H   0  0  0  0  0  0  0  0  0  0  0  0
   -8.1234  -17.4011    0.5973 H   0  0  0  0  0  0  0  0  0  0  0  0
   -8.9552  -18.0403   -0.8424 H   0  0  0  0  0  0  0  0  0  0  0  0
   -7.0565  -14.9088    0.4462 H   0  0  0  0  0  0  0  0  0  0  0  0
   -9.4049   -3.7672   -2.1805 H   0  0  0  0  0  0  0  0  0  0  0  0
   -8.6027   -6.3342   -6.1185 H   0  0  0  0  0  0  0  0  0  0  0  0
   -9.0203   -8.5770   -7.0593 H   0  0  0  0  0  0  0  0  0  0  0  0
   -7.4268  -10.4050   -6.6428 H   0  0  0  0  0  0  0  0  0  0  0  0
   -4.1584   -9.9416   -4.9386 H   0  0  0  0  0  0  0  0  0  0  0  0
   -5.0470  -10.9836   -6.0597 H   0  0  0  0  0  0  0  0  0  0  0  0
   -4.9885  -11.9370   -3.7384 H   0  0  0  0  0  0  0  0  0  0  0  0
   -5.8384  -10.4963   -3.1486 H   0  0  0  0  0  0  0  0  0  0  0  0
   -6.6431  -11.5916   -4.2664 H   0  0  0  0  0  0  0  0  0  0  0  0
   -4.9565   -7.7442   -4.4016 H   0  0  0  0  0  0  0  0  0  0  0  0
    4.5520    4.7888   -3.3140 H   0  0  0  0  0  0  0  0  0  0  0  0
    7.0161    4.8003   -3.3797 H   0  0  0  0  0  0  0  0  0  0  0  0
    8.2718    2.7200   -2.9945 H   0  0  0  0  0  0  0  0  0  0  0  0
    8.2415    0.2730   -2.9917 H   0  0  0  0  0  0  0  0  0  0  0  0
    6.7184   -0.6114   -2.8162 H   0  0  0  0  0  0  0  0  0  0  0  0
    8.1105   -0.7970   -0.7551 H   0  0  0  0  0  0  0  0  0  0  0  0
    6.6021    0.0620   -0.4208 H   0  0  0  0  0  0  0  0  0  0  0  0
    8.1070    0.9647   -0.5928 H   0  0  0  0  0  0  0  0  0  0  0  0
    4.6053    0.5951   -2.5085 H   0  0  0  0  0  0  0  0  0  0  0  0
   -4.5401   -1.5711   -2.3434 H   0  0  0  0  0  0  0  0  0  0  0  0
   -3.4612   -0.2168   -2.6854 H   0  0  0  0  0  0  0  0  0  0  0  0
   -6.2809   -0.6991   -3.8010 H   0  0  0  0  0  0  0  0  0  0  0  0
   -5.8058    0.5636   -2.6664 H   0  0  0  0  0  0  0  0  0  0  0  0
   -5.2643    0.6277   -4.3476 H   0  0  0  0  0  0  0  0  0  0  0  0
   -3.3017    1.2145   -4.2411 H   0  0  0  0  0  0  0  0  0  0  0  0
   -2.3722    2.1190   -3.0165 H   0  0  0  0  0  0  0  0  0  0  0  0
   -1.1354    3.2735   -4.8378 H   0  0  0  0  0  0  0  0  0  0  0  0
   -2.8723    3.4665   -5.0651 H   0  0  0  0  0  0  0  0  0  0  0  0
   -1.9779    2.3000   -6.0480 H   0  0  0  0  0  0  0  0  0  0  0  0
    4.5141    3.6979   -0.5214 H   0  0  0  0  0  0  0  0  0  0  0  0
    4.7753    2.9504    1.8071 H   0  0  0  0  0  0  0  0  0  0  0  0
    6.6803    1.4001    1.9916 H   0  0  0  0  0  0  0  0  0  0  0  0
    8.9895    2.2672    1.9690 H   0  0  0  0  0  0  0  0  0  0  0  0
   11.5512    4.7289    3.5768 H   0  0  0  0  0  0  0  0  0  0  0  0
   10.2984    3.4713    3.6589 H   0  0  0  0  0  0  0  0  0  0  0  0
    9.8969    6.4322    4.3564 H   0  0  0  0  0  0  0  0  0  0  0  0
   10.0241    5.1170    5.5303 H   0  0  0  0  0  0  0  0  0  0  0  0
    8.6403    5.2039    4.4356 H   0  0  0  0  0  0  0  0  0  0  0  0
    7.4962    6.2414    1.5525 H   0  0  0  0  0  0  0  0  0  0  0  0
    0.9758    8.0613    3.4899 H   0  0  0  0  0  0  0  0  0  0  0  0
   -0.9989    9.5370    3.4082 H   0  0  0  0  0  0  0  0  0  0  0  0
   -1.7023   10.5443    1.2660 H   0  0  0  0  0  0  0  0  0  0  0  0
   -0.2308   10.0529   -3.5757 H   0  0  0  0  0  0  0  0  0  0  0  0
    1.1093    9.4644   -2.5826 H   0  0  0  0  0  0  0  0  0  0  0  0
   -1.6377    8.1291   -2.8958 H   0  0  0  0  0  0  0  0  0  0  0  0
   -0.3533    7.5225   -1.8482 H   0  0  0  0  0  0  0  0  0  0  0  0
   -0.1266    7.5373   -3.5993 H   0  0  0  0  0  0  0  0  0  0  0  0
    1.6167    8.6819   -0.6802 H   0  0  0  0  0  0  0  0  0  0  0  0
    3.0319    9.3753    3.5166 H   0  0  0  0  0  0  0  0  0  0  0  0
    4.3550   10.1072    5.3451 H   0  0  0  0  0  0  0  0  0  0  0  0
    9.0587    6.8433    7.9232 H   0  0  0  0  0  0  0  0  0  0  0  0
    7.2097   11.0967    9.9570 H   0  0  0  0  0  0  0  0  0  0  0  0
    8.9300    9.2853   12.3055 H   0  0  0  0  0  0  0  0  0  0  0  0
   10.5643   11.1496   12.0769 H   0  0  0  0  0  0  0  0  0  0  0  0
   10.9057   11.5278    9.5122 H   0  0  0  0  0  0  0  0  0  0  0  0
   11.9091    9.3003    8.4692 H   0  0  0  0  0  0  0  0  0  0  0  0
   12.1900    7.5501   10.3927 H   0  0  0  0  0  0  0  0  0  0  0  0
   12.7657    9.6973   11.8310 H   0  0  0  0  0  0  0  0  0  0  0  0
   11.5633    8.7356   12.7271 H   0  0  0  0  0  0  0  0  0  0  0  0
    9.9115    7.1197   11.3009 H   0  0  0  0  0  0  0  0  0  0  0  0
  1  2  2  0  0  0  0
  2  3  1  0  0  0  0
  3  4  2  0  0  0  0
  3  5  1  0  0  0  0
  5  6  2  0  0  0  0
  6  7  1  0  0  0  0
  7  8  2  0  0  0  0
  8  9  1  0  0  0  0
  9 10  2  0  0  0  0
 10 11  1  0  0  0  0
 11 12  2  0  0  0  0
 12 13  1  0  0  0  0
 13 14  3  0  0  0  0
 12 15  1  0  0  0  0
 15 16  3  0  0  0  0
  8 17  1  0  0  0  0
 17 18  1  0  0  0  0
 18 19  1  0  0  0  0
 19 20  2  0  0  0  0
 20 21  1  0  0  0  0
 21 22  1  0  0  0  0
 21 23  1  0  0  0  0
  1 24  1  0  0  0  0
 24 25  2  0  0  0  0
 25 26  1  0  0  0  0
 26 27  3  0  0  0  0
 25 28  1  0  0  0  0
 28 29  2  0  0  0  0
 29 30  1  0  0  0  0
 29 31  1  0  0  0  0
 31 32  2  0  0  0  0
 32 33  1  0  0  0  0
 33 34  2  0  0  0  0
 34 35  1  0  0  0  0
 35 36  2  0  0  0  0
 36 37  1  0  0  0  0
 37 38  1  0  0  0  0
 38 39  1  0  0  0  0
 37 40  2  0  0  0  0
 32 41  1  0  0  0  0
 41 42  1  0  0  0  0
 42 43  1  0  0  0  0
 43 44  1  0  0  0  0
 44 45  1  0  0  0  0
 45 46  1  0  0  0  0
 46 47  2  0  0  0  0
 47 48  1  0  0  0  0
 48 49  1  0  0  0  0
 46 50  1  0  0  0  0
 50 51  1  0  0  0  0
 51 52  1  0  0  0  0
 52 53  1  0  0  0  0
 53 54  1  0  0  0  0
 54 55  1  0  0  0  0
 55 56  2  0  0  0  0
 56 57  1  0  0  0  0
 57 58  2  0  0  0  0
 58 59  1  0  0  0  0
 59 60  1  0  0  0  0
 60 61  1  0  0  0  0
 59 62  2  0  0  0  0
 54 63  2  0  0  0  0
 63 64  1  0  0  0  0
 64 65  1  0  0  0  0
 65 66  1  0  0  0  0
 66 67  1  0  0  0  0
 67 68  1  0  0  0  0
 68 69  1  0  0  0  0
 69 70  1  0  0  0  0
 70 71  1  0  0  0  0
 71 72  1  0  0  0  0
 72 73  1  0  0  0  0
 70 74  1  0  0  0  0
 74 75  1  0  0  0  0
 67 76  1  0  0  0  0
 76 77  1  0  0  0  0
 63 78  1  0  0  0  0
 78 79  2  0  0  0  0
 79 80  1  0  0  0  0
 80 81  2  0  0  0  0
 81 82  1  0  0  0  0
 82 83  2  0  0  0  0
 83 84  1  0  0  0  0
 84 85  2  0  0  0  0
 85 86  1  0  0  0  0
 86 87  1  0  0  0  0
 87 88  1  0  0  0  0
 88 89  1  0  0  0  0
 86 90  2  0  0  0  0
 81 91  1  0  0  0  0
 91 92  2  0  0  0  0
 92 93  1  0  0  0  0
 93 94  1  0  0  0  0
 94 95  2  0  0  0  0
 95 96  1  0  0  0  0
 96 97  2  0  0  0  0
 97 98  1  0  0  0  0
 98 99  1  0  0  0  0
 99100  1  0  0  0  0
100101  1  0  0  0  0
 98102  2  0  0  0  0
 93103  2  0  0  0  0
103104  1  0  0  0  0
 92105  1  0  0  0  0
105106  2  0  0  0  0
106107  1  0  0  0  0
106108  1  0  0  0  0
108109  2  0  0  0  0
109110  1  0  0  0  0
110111  2  0  0  0  0
110112  1  0  0  0  0
112113  2  0  0  0  0
113114  1  0  0  0  0
114115  2  0  0  0  0
115116  1  0  0  0  0
116117  2  0  0  0  0
117118  1  0  0  0  0
118119  2  0  0  0  0
119120  1  0  0  0  0
120121  3  0  0  0  0
119122  1  0  0  0  0
122123  3  0  0  0  0
115124  1  0  0  0  0
124125  1  0  0  0  0
125126  1  0  0  0  0
126127  2  0  0  0  0
127128  1  0  0  0  0
128129  1  0  0  0  0
128130  1  0  0  0  0
 11  2  1  0  0  0  0
 23 17  1  0  0  0  0
 30 24  1  0  0  0  0
 73 31  1  0  0  0  0
104 78  1  0  0  0  0
118109  1  0  0  0  0
130124  1  0  0  0  0
 10  5  1  0  0  0  0
 22 18  1  0  0  0  0
 40 33  1  0  0  0  0
 72 41  2  0  0  0  0
103 80  1  0  0  0  0
117112  1  0  0  0  0
129125  1  0  0  0  0
 23  7  1  0  0  0  0
 71 43  2  0  0  0  0
 90 82  1  0  0  0  0
107 91  1  0  0  0  0
130114  1  0  0  0  0
 69 44  2  0  0  0  0
102 94  1  0  0  0  0
 49 45  2  0  0  0  0
 68 50  2  0  0  0  0
 66 51  2  0  0  0  0
 65 53  2  0  0  0  0
 62 55  1  0  0  0  0
  1131  1  0  0  0  0
  6132  1  0  0  0  0
  9133  1  0  0  0  0
 17134  1  0  0  0  0
 18135  1  0  0  0  0
 19136  1  0  0  0  0
 20137  1  0  0  0  0
 21138  1  0  0  0  0
 22139  1  0  0  0  0
 22140  1  0  0  0  0
 23141  1  0  0  0  0
 28142  1  0  0  0  0
 34143  1  0  0  0  0
 35144  1  0  0  0  0
 36145  1  0  0  0  0
 38146  1  0  0  0  0
 38147  1  0  0  0  0
 39148  1  0  0  0  0
 39149  1  0  0  0  0
 39150  1  0  0  0  0
 40151  1  0  0  0  0
 56152  1  0  0  0  0
 57153  1  0  0  0  0
 58154  1  0  0  0  0
 60155  1  0  0  0  0
 60156  1  0  0  0  0
 61157  1  0  0  0  0
 61158  1  0  0  0  0
 61159  1  0  0  0  0
 62160  1  0  0  0  0
 74161  1  0  0  0  0
 74162  1  0  0  0  0
 75163  1  0  0  0  0
 75164  1  0  0  0  0
 75165  1  0  0  0  0
 76166  1  0  0  0  0
 76167  1  0  0  0  0
 77168  1  0  0  0  0
 77169  1  0  0  0  0
 77170  1  0  0  0  0
 79171  1  0  0  0  0
 83172  1  0  0  0  0
 84173  1  0  0  0  0
 85174  1  0  0  0  0
 88175  1  0  0  0  0
 88176  1  0  0  0  0
 89177  1  0  0  0  0
 89178  1  0  0  0  0
 89179  1  0  0  0  0
 90180  1  0  0  0  0
 95181  1  0  0  0  0
 96182  1  0  0  0  0
 97183  1  0  0  0  0
100184  1  0  0  0  0
100185  1  0  0  0  0
101186  1  0  0  0  0
101187  1  0  0  0  0
101188  1  0  0  0  0
102189  1  0  0  0  0
105190  1  0  0  0  0
108191  1  0  0  0  0
113192  1  0  0  0  0
116193  1  0  0  0  0
124194  1  0  0  0  0
125195  1  0  0  0  0
126196  1  0  0  0  0
127197  1  0  0  0  0
128198  1  0  0  0  0
129199  1  0  0  0  0
129200  1  0  0  0  0
130201  1  0  0  0  0
M  END
