
  xtb     02222202323D
 energy: -378.262942415889 gnorm: 0.000508045409 xtb: 6.4.1 (unknown)
223250  0     0  0            999 V2000
    6.7678    4.2752  -12.1583 C   0  0  0  0  0  0  0  0  0  0  0  0
    7.0297    5.1579  -13.1697 C   0  0  0  0  0  0  0  0  0  0  0  0
    6.1878    6.2584  -13.6906 C   0  0  0  0  0  0  0  0  0  0  0  0
    5.0020    6.4646  -13.5136 O   0  0  0  0  0  0  0  0  0  0  0  0
    7.0867    7.1059  -14.4949 C   0  0  0  0  0  0  0  0  0  0  0  0
    6.7635    8.3168  -15.1034 C   0  0  0  0  0  0  0  0  0  0  0  0
    7.8110    8.9045  -15.7701 C   0  0  0  0  0  0  0  0  0  0  0  0
    9.0871    8.3281  -15.8321 C   0  0  0  0  0  0  0  0  0  0  0  0
    9.4162    7.1294  -15.2458 C   0  0  0  0  0  0  0  0  0  0  0  0
    8.3643    6.5167  -14.5591 C   0  0  0  0  0  0  0  0  0  0  0  0
    8.3281    5.2602  -13.8181 C   0  0  0  0  0  0  0  0  0  0  0  0
    9.3195    4.3140  -13.8149 C   0  0  0  0  0  0  0  0  0  0  0  0
   10.5549    4.4541  -14.4816 C   0  0  0  0  0  0  0  0  0  0  0  0
   11.5821    4.4989  -14.9928 N   0  0  0  0  0  0  0  0  0  0  0  0
    9.2446    3.0438  -13.2035 C   0  0  0  0  0  0  0  0  0  0  0  0
    9.2634    1.9832  -12.7625 N   0  0  0  0  0  0  0  0  0  0  0  0
    9.6508    9.4697  -16.6399 C   0  0  0  0  0  0  0  0  0  0  0  0
   10.5324   10.5072  -15.9013 C   0  0  0  0  0  0  0  0  0  0  0  0
   10.0916   10.4958  -14.4586 C   0  0  0  0  0  0  0  0  0  0  0  0
    8.8841   11.0413  -14.3998 C   0  0  0  0  0  0  0  0  0  0  0  0
    8.4865   11.4315  -15.8020 C   0  0  0  0  0  0  0  0  0  0  0  0
    9.8613   11.8050  -16.3788 C   0  0  0  0  0  0  0  0  0  0  0  0
    8.2293   10.1118  -16.5714 C   0  0  0  0  0  0  0  0  0  0  0  0
    5.5963    4.0369  -11.4100 C   0  0  0  0  0  0  0  0  0  0  0  0
    4.3019    4.4663  -11.5649 C   0  0  0  0  0  0  0  0  0  0  0  0
    3.3994    3.9918  -10.5928 C   0  0  0  0  0  0  0  0  0  0  0  0
    2.0173    4.2641  -10.4685 C   0  0  0  0  0  0  0  0  0  0  0  0
    1.2057    4.9996  -11.2641 O   0  0  0  0  0  0  0  0  0  0  0  0
    1.6528    6.0931  -12.0495 C   0  0  0  0  0  0  0  0  0  0  0  0
    2.3477    7.1733  -11.2322 C   0  0  0  0  0  0  0  0  0  0  0  0
    1.3690    3.6502   -9.4058 C   0  0  0  0  0  0  0  0  0  0  0  0
    2.0017    2.7997   -8.4816 C   0  0  0  0  0  0  0  0  0  0  0  0
    3.3778    2.5095   -8.5995 C   0  0  0  0  0  0  0  0  0  0  0  0
    3.8724    1.6992   -7.6253 O   0  0  0  0  0  0  0  0  0  0  0  0
    5.0047    0.8814   -7.8568 C   0  0  0  0  0  0  0  0  0  0  0  0
    4.7644   -0.1636   -8.9393 C   0  0  0  0  0  0  0  0  0  0  0  0
    4.0455    3.1246   -9.6450 C   0  0  0  0  0  0  0  0  0  0  0  0
    5.7494    2.9804  -10.0139 S   0  0  0  0  0  0  0  0  0  0  0  0
    1.1063    2.3392   -7.4937 C   0  0  0  0  0  0  0  0  0  0  0  0
   -0.1714    2.8106   -7.6458 C   0  0  0  0  0  0  0  0  0  0  0  0
   -0.3241    3.8509   -9.0493 S   0  0  0  0  0  0  0  0  0  0  0  0
   -1.2726    2.4902   -6.8011 C   0  0  0  0  0  0  0  0  0  0  0  0
   -2.6075    2.8345   -6.8931 C   0  0  0  0  0  0  0  0  0  0  0  0
   -3.2084    3.7365   -7.8830 C   0  0  0  0  0  0  0  0  0  0  0  0
   -4.2205    3.2722   -8.7153 C   0  0  0  0  0  0  0  0  0  0  0  0
   -4.8060    4.1301   -9.6271 C   0  0  0  0  0  0  0  0  0  0  0  0
   -4.3947    5.4486   -9.7076 C   0  0  0  0  0  0  0  0  0  0  0  0
   -3.3967    5.9316   -8.8709 C   0  0  0  0  0  0  0  0  0  0  0  0
   -2.9862    7.3750   -8.9179 C   0  0  0  0  0  0  0  0  0  0  0  0
   -3.8467    8.2068   -7.9649 C   0  0  0  0  0  0  0  0  0  0  0  0
   -2.8156    5.0677   -7.9552 C   0  0  0  0  0  0  0  0  0  0  0  0
   -3.3693    2.2180   -5.8812 C   0  0  0  0  0  0  0  0  0  0  0  0
   -5.0698    2.2760   -5.4844 S   0  0  0  0  0  0  0  0  0  0  0  0
   -4.7637    1.2516   -4.1210 C   0  0  0  0  0  0  0  0  0  0  0  0
   -5.4650    0.6401   -3.0637 C   0  0  0  0  0  0  0  0  0  0  0  0
   -6.8379    0.5094   -2.7524 C   0  0  0  0  0  0  0  0  0  0  0  0
   -7.2338   -0.3236   -1.6437 C   0  0  0  0  0  0  0  0  0  0  0  0
   -8.5487   -0.4098   -1.5247 N   0  0  0  0  0  0  0  0  0  0  0  0
   -9.2331    0.4802   -2.6913 S   0  0  0  0  0  0  0  0  0  0  0  0
   -7.8779    1.0107   -3.3991 N   0  0  0  0  0  0  0  0  0  0  0  0
   -6.2396   -0.8664   -0.7975 C   0  0  0  0  0  0  0  0  0  0  0  0
   -6.2852   -1.5593    0.4275 C   0  0  0  0  0  0  0  0  0  0  0  0
   -7.4540   -2.2586    1.4980 S   0  0  0  0  0  0  0  0  0  0  0  0
   -6.1607   -2.6880    2.5899 C   0  0  0  0  0  0  0  0  0  0  0  0
   -6.1437   -3.3297    3.8396 C   0  0  0  0  0  0  0  0  0  0  0  0
   -7.3469   -3.7944    4.5510 C   0  0  0  0  0  0  0  0  0  0  0  0
   -7.8430   -5.0762    4.3485 C   0  0  0  0  0  0  0  0  0  0  0  0
   -8.9626   -5.4922    5.0451 C   0  0  0  0  0  0  0  0  0  0  0  0
   -9.5924   -4.6369    5.9320 C   0  0  0  0  0  0  0  0  0  0  0  0
   -9.1224   -3.3441    6.1240 C   0  0  0  0  0  0  0  0  0  0  0  0
   -9.7874   -2.4083    7.0915 C   0  0  0  0  0  0  0  0  0  0  0  0
   -9.0879   -2.4495    8.4513 C   0  0  0  0  0  0  0  0  0  0  0  0
   -7.9936   -2.9351    5.4290 C   0  0  0  0  0  0  0  0  0  0  0  0
   -4.8625   -3.4248    4.3426 C   0  0  0  0  0  0  0  0  0  0  0  0
   -3.6606   -2.7281    3.2612 S   0  0  0  0  0  0  0  0  0  0  0  0
   -4.8977   -2.3015    2.1334 C   0  0  0  0  0  0  0  0  0  0  0  0
   -4.9688   -1.6632    0.8912 C   0  0  0  0  0  0  0  0  0  0  0  0
   -4.1017   -1.0939   -0.0092 N   0  0  0  0  0  0  0  0  0  0  0  0
   -4.8676   -0.6265   -1.0616 C   0  0  0  0  0  0  0  0  0  0  0  0
   -4.4891   -0.0262   -2.2803 C   0  0  0  0  0  0  0  0  0  0  0  0
   -3.2466    0.1046   -2.8733 N   0  0  0  0  0  0  0  0  0  0  0  0
   -3.4186    0.8903   -3.9863 C   0  0  0  0  0  0  0  0  0  0  0  0
   -2.6233    1.4346   -5.0001 C   0  0  0  0  0  0  0  0  0  0  0  0
   -0.9533    1.4188   -5.4369 S   0  0  0  0  0  0  0  0  0  0  0  0
   -2.1663   -0.8596   -2.8136 C   0  0  0  0  0  0  0  0  0  0  0  0
   -2.2030   -1.8075   -4.0120 C   0  0  0  0  0  0  0  0  0  0  0  0
   -2.8395   -0.5432    0.4418 C   0  0  0  0  0  0  0  0  0  0  0  0
   -3.0527    0.5203    1.5190 C   0  0  0  0  0  0  0  0  0  0  0  0
   -4.4316   -3.9866    5.5761 C   0  0  0  0  0  0  0  0  0  0  0  0
   -3.1826   -3.8953    6.1243 C   0  0  0  0  0  0  0  0  0  0  0  0
   -3.0548   -4.5603    7.3656 C   0  0  0  0  0  0  0  0  0  0  0  0
   -1.9194   -4.6527    8.1887 C   0  0  0  0  0  0  0  0  0  0  0  0
   -0.6384   -4.0416    7.8142 C   0  0  0  0  0  0  0  0  0  0  0  0
    0.0348   -3.1993    8.6987 C   0  0  0  0  0  0  0  0  0  0  0  0
    1.2346   -2.6233    8.3441 C   0  0  0  0  0  0  0  0  0  0  0  0
    1.8185   -2.8682    7.1008 C   0  0  0  0  0  0  0  0  0  0  0  0
    3.3755   -2.1038    6.7793 S   0  0  0  0  0  0  0  0  0  0  0  0
    3.3652   -1.8195    4.9626 C   0  0  0  0  0  0  0  0  0  0  0  0
    4.3130   -0.6802    4.6430 C   0  0  0  0  0  0  0  0  0  0  0  0
    1.1471   -3.7300    6.2383 C   0  0  0  0  0  0  0  0  0  0  0  0
    1.6675   -4.0532    5.0309 F   0  0  0  0  0  0  0  0  0  0  0  0
   -0.0648   -4.2989    6.5738 C   0  0  0  0  0  0  0  0  0  0  0  0
   -2.0758   -5.3349    9.3830 C   0  0  0  0  0  0  0  0  0  0  0  0
   -3.2905   -5.9479    9.7839 C   0  0  0  0  0  0  0  0  0  0  0  0
   -4.4188   -5.8782    8.9463 C   0  0  0  0  0  0  0  0  0  0  0  0
   -5.6723   -6.5675    9.2690 C   0  0  0  0  0  0  0  0  0  0  0  0
   -5.6698   -7.9148    9.6310 C   0  0  0  0  0  0  0  0  0  0  0  0
   -6.8530   -8.5851    9.8512 C   0  0  0  0  0  0  0  0  0  0  0  0
   -8.0847   -7.9412    9.7385 C   0  0  0  0  0  0  0  0  0  0  0  0
   -9.5296   -8.9050   10.0604 S   0  0  0  0  0  0  0  0  0  0  0  0
  -10.7765   -8.2698    8.8788 C   0  0  0  0  0  0  0  0  0  0  0  0
  -10.2940   -8.3405    7.4441 C   0  0  0  0  0  0  0  0  0  0  0  0
   -8.0679   -6.5862    9.4222 C   0  0  0  0  0  0  0  0  0  0  0  0
   -6.8932   -5.9082    9.1710 C   0  0  0  0  0  0  0  0  0  0  0  0
   -9.2177   -5.8790    9.3538 F   0  0  0  0  0  0  0  0  0  0  0  0
   -4.2739   -5.1624    7.7686 C   0  0  0  0  0  0  0  0  0  0  0  0
   -5.5288   -4.9101    6.5815 S   0  0  0  0  0  0  0  0  0  0  0  0
   -3.1830   -6.5412   11.0627 C   0  0  0  0  0  0  0  0  0  0  0  0
   -1.9503   -6.3943   11.6398 C   0  0  0  0  0  0  0  0  0  0  0  0
   -0.8234   -5.5781   10.5662 S   0  0  0  0  0  0  0  0  0  0  0  0
   -1.5533   -6.8719   12.9195 C   0  0  0  0  0  0  0  0  0  0  0  0
   -0.5213   -6.4455   13.6878 C   0  0  0  0  0  0  0  0  0  0  0  0
    0.0274   -7.3163   14.7662 C   0  0  0  0  0  0  0  0  0  0  0  0
   -0.5061   -8.2851   15.2556 O   0  0  0  0  0  0  0  0  0  0  0  0
    1.3722   -6.7779   15.0469 C   0  0  0  0  0  0  0  0  0  0  0  0
    2.3415   -7.3247   15.8868 C   0  0  0  0  0  0  0  0  0  0  0  0
    3.5145   -6.6104   15.9285 C   0  0  0  0  0  0  0  0  0  0  0  0
    3.7181   -5.4373   15.1877 C   0  0  0  0  0  0  0  0  0  0  0  0
    2.7703   -4.8791   14.3640 C   0  0  0  0  0  0  0  0  0  0  0  0
    1.5675   -5.5887   14.3114 C   0  0  0  0  0  0  0  0  0  0  0  0
    0.3347   -5.2785   13.5965 C   0  0  0  0  0  0  0  0  0  0  0  0
   -0.0490   -4.0369   13.1661 C   0  0  0  0  0  0  0  0  0  0  0  0
   -1.3707   -3.7280   12.7773 C   0  0  0  0  0  0  0  0  0  0  0  0
   -2.4435   -3.4158   12.5137 N   0  0  0  0  0  0  0  0  0  0  0  0
    0.7938   -2.9082   13.1404 C   0  0  0  0  0  0  0  0  0  0  0  0
    1.4381   -1.9608   13.0685 N   0  0  0  0  0  0  0  0  0  0  0  0
    5.1254   -5.2619   15.7003 C   0  0  0  0  0  0  0  0  0  0  0  0
    6.2656   -5.6614   14.7397 C   0  0  0  0  0  0  0  0  0  0  0  0
    7.4588   -5.8399   15.6505 C   0  0  0  0  0  0  0  0  0  0  0  0
    7.2663   -6.9475   16.3553 C   0  0  0  0  0  0  0  0  0  0  0  0
    5.9398   -7.5367   15.9324 C   0  0  0  0  0  0  0  0  0  0  0  0
    5.9306   -7.1309   14.4529 C   0  0  0  0  0  0  0  0  0  0  0  0
    4.8978   -6.5667   16.5292 C   0  0  0  0  0  0  0  0  0  0  0  0
    7.6048    3.6693  -11.8298 H   0  0  0  0  0  0  0  0  0  0  0  0
    5.7675    8.7251  -15.0307 H   0  0  0  0  0  0  0  0  0  0  0  0
   10.4032    6.7013  -15.2994 H   0  0  0  0  0  0  0  0  0  0  0  0
   10.0474    9.2108  -17.6195 H   0  0  0  0  0  0  0  0  0  0  0  0
   11.5991   10.3999  -16.0780 H   0  0  0  0  0  0  0  0  0  0  0  0
   10.6610   10.0539  -13.6619 H   0  0  0  0  0  0  0  0  0  0  0  0
    8.2430   11.1458  -13.5441 H   0  0  0  0  0  0  0  0  0  0  0  0
    7.6908   12.1670  -15.8882 H   0  0  0  0  0  0  0  0  0  0  0  0
   10.2855   12.6940  -15.9143 H   0  0  0  0  0  0  0  0  0  0  0  0
    9.8609   11.9202  -17.4618 H   0  0  0  0  0  0  0  0  0  0  0  0
    7.6973   10.2736  -17.5069 H   0  0  0  0  0  0  0  0  0  0  0  0
    4.0433    5.1100  -12.3813 H   0  0  0  0  0  0  0  0  0  0  0  0
    2.2861    5.7563  -12.8757 H   0  0  0  0  0  0  0  0  0  0  0  0
    0.7242    6.4851  -12.4744 H   0  0  0  0  0  0  0  0  0  0  0  0
    3.2611    6.7951  -10.7800 H   0  0  0  0  0  0  0  0  0  0  0  0
    2.6063    8.0022  -11.8840 H   0  0  0  0  0  0  0  0  0  0  0  0
    1.6875    7.5280  -10.4439 H   0  0  0  0  0  0  0  0  0  0  0  0
    5.1688    0.3944   -6.8916 H   0  0  0  0  0  0  0  0  0  0  0  0
    5.8889    1.4841   -8.0926 H   0  0  0  0  0  0  0  0  0  0  0  0
    5.6274   -0.8190   -9.0088 H   0  0  0  0  0  0  0  0  0  0  0  0
    4.6093    0.3095   -9.9058 H   0  0  0  0  0  0  0  0  0  0  0  0
    3.8851   -0.7560   -8.6970 H   0  0  0  0  0  0  0  0  0  0  0  0
    1.4083    1.6831   -6.6973 H   0  0  0  0  0  0  0  0  0  0  0  0
   -4.5351    2.2411   -8.6526 H   0  0  0  0  0  0  0  0  0  0  0  0
   -5.5876    3.7678  -10.2785 H   0  0  0  0  0  0  0  0  0  0  0  0
   -4.8544    6.1122  -10.4260 H   0  0  0  0  0  0  0  0  0  0  0  0
   -1.9365    7.4681   -8.6329 H   0  0  0  0  0  0  0  0  0  0  0  0
   -3.1001    7.7580   -9.9339 H   0  0  0  0  0  0  0  0  0  0  0  0
   -3.5489    9.2524   -7.9956 H   0  0  0  0  0  0  0  0  0  0  0  0
   -3.7397    7.8442   -6.9450 H   0  0  0  0  0  0  0  0  0  0  0  0
   -4.8957    8.1357   -8.2433 H   0  0  0  0  0  0  0  0  0  0  0  0
   -2.0519    5.4326   -7.2832 H   0  0  0  0  0  0  0  0  0  0  0  0
   -7.3475   -5.7402    3.6557 H   0  0  0  0  0  0  0  0  0  0  0  0
   -9.3463   -6.4902    4.8914 H   0  0  0  0  0  0  0  0  0  0  0  0
  -10.4623   -4.9718    6.4781 H   0  0  0  0  0  0  0  0  0  0  0  0
   -9.7504   -1.3900    6.6982 H   0  0  0  0  0  0  0  0  0  0  0  0
  -10.8345   -2.6886    7.2180 H   0  0  0  0  0  0  0  0  0  0  0  0
   -8.0350   -2.1959    8.3449 H   0  0  0  0  0  0  0  0  0  0  0  0
   -9.5471   -1.7401    9.1357 H   0  0  0  0  0  0  0  0  0  0  0  0
   -9.1659   -3.4433    8.8827 H   0  0  0  0  0  0  0  0  0  0  0  0
   -7.6078   -1.9351    5.5707 H   0  0  0  0  0  0  0  0  0  0  0  0
   -2.2675   -1.4513   -1.9054 H   0  0  0  0  0  0  0  0  0  0  0  0
   -1.2143   -0.3190   -2.7982 H   0  0  0  0  0  0  0  0  0  0  0  0
   -1.4169   -2.5506   -3.9112 H   0  0  0  0  0  0  0  0  0  0  0  0
   -3.1633   -2.3169   -4.0575 H   0  0  0  0  0  0  0  0  0  0  0  0
   -2.0494   -1.2669   -4.9415 H   0  0  0  0  0  0  0  0  0  0  0  0
   -2.2274   -1.3586    0.8402 H   0  0  0  0  0  0  0  0  0  0  0  0
   -2.3284   -0.0804   -0.3999 H   0  0  0  0  0  0  0  0  0  0  0  0
   -2.0950    0.9478    1.8023 H   0  0  0  0  0  0  0  0  0  0  0  0
   -3.6925    1.3142    1.1396 H   0  0  0  0  0  0  0  0  0  0  0  0
   -3.5147    0.0924    2.4041 H   0  0  0  0  0  0  0  0  0  0  0  0
   -2.3843   -3.3461    5.6576 H   0  0  0  0  0  0  0  0  0  0  0  0
   -0.4035   -2.9676    9.6574 H   0  0  0  0  0  0  0  0  0  0  0  0
    1.7446   -1.9637    9.0287 H   0  0  0  0  0  0  0  0  0  0  0  0
    3.6732   -2.7388    4.4669 H   0  0  0  0  0  0  0  0  0  0  0  0
    2.3430   -1.5719    4.6808 H   0  0  0  0  0  0  0  0  0  0  0  0
    5.3234   -0.9246    4.9623 H   0  0  0  0  0  0  0  0  0  0  0  0
    4.3205   -0.4980    3.5705 H   0  0  0  0  0  0  0  0  0  0  0  0
    4.0020    0.2294    5.1518 H   0  0  0  0  0  0  0  0  0  0  0  0
   -0.5340   -4.9714    5.8722 H   0  0  0  0  0  0  0  0  0  0  0  0
   -4.7335   -8.4477    9.6972 H   0  0  0  0  0  0  0  0  0  0  0  0
   -6.8477   -9.6329   10.1086 H   0  0  0  0  0  0  0  0  0  0  0  0
  -11.0558   -7.2588    9.1670 H   0  0  0  0  0  0  0  0  0  0  0  0
  -11.6270   -8.9323    9.0408 H   0  0  0  0  0  0  0  0  0  0  0  0
   -9.4472   -7.6756    7.2841 H   0  0  0  0  0  0  0  0  0  0  0  0
  -11.0981   -8.0405    6.7748 H   0  0  0  0  0  0  0  0  0  0  0  0
   -9.9906   -9.3549    7.1930 H   0  0  0  0  0  0  0  0  0  0  0  0
   -6.9439   -4.8581    8.9307 H   0  0  0  0  0  0  0  0  0  0  0  0
   -4.0081   -7.0066   11.5717 H   0  0  0  0  0  0  0  0  0  0  0  0
   -2.1020   -7.7291   13.2972 H   0  0  0  0  0  0  0  0  0  0  0  0
    2.1470   -8.2283   16.4430 H   0  0  0  0  0  0  0  0  0  0  0  0
    2.9336   -3.9783   13.7953 H   0  0  0  0  0  0  0  0  0  0  0  0
    5.3229   -4.3334   16.2322 H   0  0  0  0  0  0  0  0  0  0  0  0
    6.3948   -5.0006   13.8869 H   0  0  0  0  0  0  0  0  0  0  0  0
    8.2665   -5.1359   15.7259 H   0  0  0  0  0  0  0  0  0  0  0  0
    7.8810   -7.3535   17.1371 H   0  0  0  0  0  0  0  0  0  0  0  0
    5.7731   -8.5847   16.1660 H   0  0  0  0  0  0  0  0  0  0  0  0
    6.7153   -7.6282   13.8852 H   0  0  0  0  0  0  0  0  0  0  0  0
    4.9730   -7.2795   13.9573 H   0  0  0  0  0  0  0  0  0  0  0  0
    4.9429   -6.5082   17.6150 H   0  0  0  0  0  0  0  0  0  0  0  0
  1  2  2  0  0  0  0
  2  3  1  0  0  0  0
  3  4  2  0  0  0  0
  3  5  1  0  0  0  0
  5  6  2  0  0  0  0
  6  7  1  0  0  0  0
  7  8  2  0  0  0  0
  8  9  1  0  0  0  0
  9 10  2  0  0  0  0
 10 11  1  0  0  0  0
 11 12  2  0  0  0  0
 12 13  1  0  0  0  0
 13 14  3  0  0  0  0
 12 15  1  0  0  0  0
 15 16  3  0  0  0  0
  8 17  1  0  0  0  0
 17 18  1  0  0  0  0
 18 19  1  0  0  0  0
 19 20  2  0  0  0  0
 20 21  1  0  0  0  0
 21 22  1  0  0  0  0
 21 23  1  0  0  0  0
  1 24  1  0  0  0  0
 24 25  2  0  0  0  0
 25 26  1  0  0  0  0
 26 27  2  0  0  0  0
 27 28  1  0  0  0  0
 28 29  1  0  0  0  0
 29 30  1  0  0  0  0
 27 31  1  0  0  0  0
 31 32  2  0  0  0  0
 32 33  1  0  0  0  0
 33 34  1  0  0  0  0
 34 35  1  0  0  0  0
 35 36  1  0  0  0  0
 33 37  2  0  0  0  0
 37 38  1  0  0  0  0
 32 39  1  0  0  0  0
 39 40  2  0  0  0  0
 40 41  1  0  0  0  0
 40 42  1  0  0  0  0
 42 43  2  0  0  0  0
 43 44  1  0  0  0  0
 44 45  2  0  0  0  0
 45 46  1  0  0  0  0
 46 47  2  0  0  0  0
 47 48  1  0  0  0  0
 48 49  1  0  0  0  0
 49 50  1  0  0  0  0
 48 51  2  0  0  0  0
 43 52  1  0  0  0  0
 52 53  1  0  0  0  0
 53 54  1  0  0  0  0
 54 55  1  0  0  0  0
 55 56  1  0  0  0  0
 56 57  1  0  0  0  0
 57 58  2  0  0  0  0
 58 59  1  0  0  0  0
 59 60  1  0  0  0  0
 57 61  1  0  0  0  0
 61 62  1  0  0  0  0
 62 63  1  0  0  0  0
 63 64  1  0  0  0  0
 64 65  1  0  0  0  0
 65 66  1  0  0  0  0
 66 67  2  0  0  0  0
 67 68  1  0  0  0  0
 68 69  2  0  0  0  0
 69 70  1  0  0  0  0
 70 71  1  0  0  0  0
 71 72  1  0  0  0  0
 70 73  2  0  0  0  0
 65 74  2  0  0  0  0
 74 75  1  0  0  0  0
 75 76  1  0  0  0  0
 76 77  1  0  0  0  0
 77 78  1  0  0  0  0
 78 79  1  0  0  0  0
 79 80  1  0  0  0  0
 80 81  1  0  0  0  0
 81 82  1  0  0  0  0
 82 83  1  0  0  0  0
 83 84  1  0  0  0  0
 81 85  1  0  0  0  0
 85 86  1  0  0  0  0
 78 87  1  0  0  0  0
 87 88  1  0  0  0  0
 74 89  1  0  0  0  0
 89 90  2  0  0  0  0
 90 91  1  0  0  0  0
 91 92  2  0  0  0  0
 92 93  1  0  0  0  0
 93 94  2  0  0  0  0
 94 95  1  0  0  0  0
 95 96  2  0  0  0  0
 96 97  1  0  0  0  0
 97 98  1  0  0  0  0
 98 99  1  0  0  0  0
 96100  1  0  0  0  0
100101  1  0  0  0  0
100102  2  0  0  0  0
 92103  1  0  0  0  0
103104  2  0  0  0  0
104105  1  0  0  0  0
105106  1  0  0  0  0
106107  2  0  0  0  0
107108  1  0  0  0  0
108109  2  0  0  0  0
109110  1  0  0  0  0
110111  1  0  0  0  0
111112  1  0  0  0  0
109113  1  0  0  0  0
113114  2  0  0  0  0
113115  1  0  0  0  0
105116  2  0  0  0  0
116117  1  0  0  0  0
104118  1  0  0  0  0
118119  2  0  0  0  0
119120  1  0  0  0  0
119121  1  0  0  0  0
121122  2  0  0  0  0
122123  1  0  0  0  0
123124  2  0  0  0  0
123125  1  0  0  0  0
125126  2  0  0  0  0
126127  1  0  0  0  0
127128  2  0  0  0  0
128129  1  0  0  0  0
129130  2  0  0  0  0
130131  1  0  0  0  0
131132  2  0  0  0  0
132133  1  0  0  0  0
133134  3  0  0  0  0
132135  1  0  0  0  0
135136  3  0  0  0  0
128137  1  0  0  0  0
137138  1  0  0  0  0
138139  1  0  0  0  0
139140  2  0  0  0  0
140141  1  0  0  0  0
141142  1  0  0  0  0
141143  1  0  0  0  0
 11  2  1  0  0  0  0
 23 17  1  0  0  0  0
 38 24  1  0  0  0  0
 84 42  1  0  0  0  0
117 89  1  0  0  0  0
131122  1  0  0  0  0
143137  1  0  0  0  0
 10  5  1  0  0  0  0
 22 18  1  0  0  0  0
 37 26  1  0  0  0  0
 51 44  1  0  0  0  0
 83 52  2  0  0  0  0
116 91  1  0  0  0  0
130125  1  0  0  0  0
142138  1  0  0  0  0
 23  7  1  0  0  0  0
 41 31  1  0  0  0  0
 82 54  2  0  0  0  0
102 93  1  0  0  0  0
120103  1  0  0  0  0
143127  1  0  0  0  0
 80 55  2  0  0  0  0
114106  1  0  0  0  0
 60 56  2  0  0  0  0
 79 61  2  0  0  0  0
 77 62  2  0  0  0  0
 76 64  2  0  0  0  0
 73 66  1  0  0  0  0
  1144  1  0  0  0  0
  6145  1  0  0  0  0
  9146  1  0  0  0  0
 17147  1  0  0  0  0
 18148  1  0  0  0  0
 19149  1  0  0  0  0
 20150  1  0  0  0  0
 21151  1  0  0  0  0
 22152  1  0  0  0  0
 22153  1  0  0  0  0
 23154  1  0  0  0  0
 25155  1  0  0  0  0
 29156  1  0  0  0  0
 29157  1  0  0  0  0
 30158  1  0  0  0  0
 30159  1  0  0  0  0
 30160  1  0  0  0  0
 35161  1  0  0  0  0
 35162  1  0  0  0  0
 36163  1  0  0  0  0
 36164  1  0  0  0  0
 36165  1  0  0  0  0
 39166  1  0  0  0  0
 45167  1  0  0  0  0
 46168  1  0  0  0  0
 47169  1  0  0  0  0
 49170  1  0  0  0  0
 49171  1  0  0  0  0
 50172  1  0  0  0  0
 50173  1  0  0  0  0
 50174  1  0  0  0  0
 51175  1  0  0  0  0
 67176  1  0  0  0  0
 68177  1  0  0  0  0
 69178  1  0  0  0  0
 71179  1  0  0  0  0
 71180  1  0  0  0  0
 72181  1  0  0  0  0
 72182  1  0  0  0  0
 72183  1  0  0  0  0
 73184  1  0  0  0  0
 85185  1  0  0  0  0
 85186  1  0  0  0  0
 86187  1  0  0  0  0
 86188  1  0  0  0  0
 86189  1  0  0  0  0
 87190  1  0  0  0  0
 87191  1  0  0  0  0
 88192  1  0  0  0  0
 88193  1  0  0  0  0
 88194  1  0  0  0  0
 90195  1  0  0  0  0
 94196  1  0  0  0  0
 95197  1  0  0  0  0
 98198  1  0  0  0  0
 98199  1  0  0  0  0
 99200  1  0  0  0  0
 99201  1  0  0  0  0
 99202  1  0  0  0  0
102203  1  0  0  0  0
107204  1  0  0  0  0
108205  1  0  0  0  0
111206  1  0  0  0  0
111207  1  0  0  0  0
112208  1  0  0  0  0
112209  1  0  0  0  0
112210  1  0  0  0  0
114211  1  0  0  0  0
118212  1  0  0  0  0
121213  1  0  0  0  0
126214  1  0  0  0  0
129215  1  0  0  0  0
137216  1  0  0  0  0
138217  1  0  0  0  0
139218  1  0  0  0  0
140219  1  0  0  0  0
141220  1  0  0  0  0
142221  1  0  0  0  0
142222  1  0  0  0  0
143223  1  0  0  0  0
M  END
