190

C          2.11170       -6.69040        7.41990
C          0.99240       -7.40240        7.09870
C         -0.09790       -6.96750        6.21280
O         -0.09520       -6.02010        5.44700
C         -1.21150       -7.90090        6.45500
C         -2.48750       -7.84940        5.89630
C         -3.32430       -8.85380        6.31960
C         -2.92380       -9.84080        7.23080
C         -1.66720       -9.90910        7.78390
C         -0.79950       -8.89510        7.36790
C          0.59750       -8.65460        7.71600
C          1.42300       -9.50580        8.40090
C          2.81880       -9.33290        8.53870
N          3.96240       -9.30300        8.63630
C          1.00300      -10.71880        8.98470
N          0.71660      -11.70900        9.49040
C         -4.27140      -10.51770        7.21310
C         -5.19050      -10.25650        8.42520
C         -6.56640      -10.62910        7.92190
C         -6.94630       -9.69620        7.05820
C         -5.83370       -8.67710        6.96330
C         -5.30710       -8.72690        8.40340
C         -4.71790       -9.41840        6.19640
C          2.61690       -5.50630        6.85370
S          2.07310       -4.79660        5.35510
C          3.37580       -3.65340        5.37220
C          4.13910       -3.74950        6.53420
C          5.19450       -2.80200        6.93270
O          5.29590       -1.68160        6.46650
C          6.08560       -3.35490        7.95410
C          7.31520       -2.84710        8.28090
C          7.97310       -1.60350        7.80810
C          7.80540       -0.48430        8.84010
S          8.09970       -3.84780        9.45970
C          6.74500       -4.91790        9.56590
C          6.78960       -6.10290       10.46130
C          7.06510       -7.38380        9.66700
C          5.75570       -4.53710        8.69450
C          4.45360       -5.19270        8.58090
O          4.01720       -5.97260        9.41120
C          3.72970       -4.81780        7.35330
C          3.60000       -2.82350        4.23620
C          4.80250       -2.46860        3.64380
C          6.11490       -2.93770        4.08420
C          7.20650       -2.07460        4.07170
C          8.43290       -2.50650        4.54120
C          8.57920       -3.78500        5.04890
C          7.50430       -4.66550        5.05740
C          7.65280       -6.06380        5.58600
C          7.95140       -7.04570        4.45210
C          6.28940       -4.24050        4.54440
C          4.58710       -1.63710        2.52780
S          5.67540       -0.86080        1.40110
C          4.30910       -0.19500        0.57470
C          4.02890        0.68000       -0.48430
C          4.90390        1.43080       -1.29790
C          4.34660        2.36410       -2.23000
N          5.27530        3.03480       -2.89370
S          6.72880        2.52950       -2.38820
N          6.22770        1.43720       -1.30230
C          2.94370        2.43390       -2.36420
C          2.15680        3.18420       -3.24940
S          2.34340        4.37480       -4.49040
C          0.61420        4.34210       -4.75640
C         -0.23450        5.07300       -5.61450
C          0.24570        6.15980       -6.46340
C         -0.48210        7.33930       -6.61100
C          0.00900        8.35910       -7.40170
C          1.24560        8.23830       -8.01450
C          2.00700        7.08900       -7.84130
C          3.36870        6.96280       -8.46440
C          3.28050        6.48240       -9.91310
C          1.48630        6.05090       -7.08460
C         -1.55650        4.68970       -5.44630
S         -1.75020        3.47040       -4.19280
C         -0.04920        3.44690       -3.91320
C          0.83330        2.79260       -3.04470
N          0.77260        1.84660       -2.05890
C          2.05780        1.61840       -1.59800
C          2.60920        0.78990       -0.57830
N          2.06120        0.02270        0.43520
C          3.08250       -0.57050        1.12440
C          3.23940       -1.39270        2.24760
S          2.20790       -2.19100        3.37830
C          0.71280       -0.14000        0.92390
C          0.11750       -1.48600        0.50910
C         -0.49380        1.20540       -1.79450
C         -1.40180        2.07310       -0.92160
C         -2.76300        5.14850       -6.04620
S         -4.18100        5.17870       -5.04620
C         -5.13530        5.87300       -6.32710
C         -4.36770        6.01730       -7.49010
C         -4.89920        6.54280       -8.76070
O         -6.08820        6.71170       -8.97860
C         -3.85970        6.82320       -9.74610
C         -4.05090        7.54680      -10.89620
C         -5.28770        8.20580      -11.38680
C         -6.12320        7.22970      -12.22060
S         -2.59760        7.60190      -11.83500
C         -1.73430        6.62520      -10.69540
C         -0.32040        6.23240      -10.91650
C          0.25770        6.77810      -12.21400
C         -2.53000        6.31000       -9.62270
C         -2.08480        5.53560       -8.46750
O         -1.03980        4.90680       -8.44040
C         -3.03190        5.59020       -7.34190
C         -6.46140        6.32550       -6.19620
C         -7.35720        6.12300       -5.18500
C         -7.19480        5.21110       -4.04300
O         -6.17620        4.65790       -3.67210
C         -8.53500        5.08790       -3.43660
C         -8.93070        4.29620       -2.38600
C        -10.27400        4.33490       -1.98540
O        -10.59860        3.52980       -0.95110
C        -11.92890        3.50880       -0.48530
C        -11.16850        5.17210       -2.65580
C        -10.75790        5.97290       -3.71090
C         -9.43270        5.93800       -4.11360
C         -8.71170        6.65110       -5.15760
C         -9.19630        7.68590       -5.91260
C         -8.43310        8.47600       -6.80040
N         -7.88090        9.20360       -7.49620
C        -10.52600        8.14940       -5.83800
N        -11.59810        8.56020       -5.82280
H          2.71160       -7.05570        8.24650
H         -2.75430       -7.07470        5.19460
H         -1.37140      -10.67420        8.48230
H         -4.27530      -11.55760        6.89250
H         -4.86520      -10.72190        9.35150
H         -7.08080      -11.53170        8.19470
H         -7.84160       -9.66410        6.46530
H         -6.09560       -7.70320        6.55850
H         -6.03830       -8.36000        9.12160
H         -4.36180       -8.20740        8.54880
H         -5.01970       -9.72550        5.19680
H          9.03670       -1.78930        7.64380
H          7.51070       -1.29920        6.86870
H          8.30130        0.41750        8.49200
H          6.75020       -0.26690        8.98350
H          8.23790       -0.77600        9.79520
H          7.56950       -5.95980       11.21160
H          5.82460       -6.20330       10.96150
H          6.24210       -7.59280        8.98950
H          7.98470       -7.28970        9.09300
H          7.16290       -8.22330       10.34910
H          7.08510       -1.06090        3.72410
H          9.27680       -1.83260        4.52720
H          9.53370       -4.10540        5.44150
H          6.73240       -6.36650        6.09160
H          8.46560       -6.09570        6.31440
H          8.04840       -8.05630        4.84130
H          7.14900       -7.03140        3.71810
H          8.87770       -6.77370        3.95100
H          5.46380       -4.93680        4.50480
H         -1.42340        7.46150       -6.09580
H         -0.56740        9.26450       -7.52600
H          1.63000        9.05070       -8.61490
H          3.87190        7.93200       -8.43870
H          3.96430        6.25430       -7.88630
H          2.74980        7.21110      -10.52110
H          2.75120        5.53380       -9.96370
H          4.27700        6.34770      -10.32760
H          2.05090        5.13670       -6.98560
H          0.75830       -0.10380        2.01780
H          0.10070        0.69320        0.59310
H         -0.92690       -1.53430        0.80410
H          0.18930       -1.63960       -0.56590
H          0.65000       -2.29650        0.99930
H         -0.32290        0.22650       -1.35610
H         -0.98690        1.05340       -2.76080
H         -1.71300        2.95810       -1.46990
H         -0.89260        2.40190       -0.01780
H         -2.29060        1.51370       -0.64390
H         -5.88260        8.52910      -10.53030
H         -5.02470        9.07470      -11.99350
H         -7.01090        7.73160      -12.59480
H         -6.43340        6.39190      -11.60210
H         -5.54750        6.85560      -13.06500
H         -0.26520        5.13950      -10.90570
H          0.26690        6.57090      -10.05620
H          1.27990        6.43390      -12.34550
H         -0.32960        6.44010      -13.06550
H          0.25460        7.86630      -12.20730
H         -6.80830        6.88440       -7.05840
H         -8.23430        3.65300       -1.87260
H        -12.61980        3.16730       -1.26200
H        -11.93790        2.80030        0.34120
H        -12.24230        4.49220       -0.12240
H        -12.20490        5.20900       -2.36050
H        -11.47900        6.60370       -4.20470
