
  xtb     02192209373D
 energy: -288.601925068536 gnorm: 0.000945077542 xtb: 6.4.1 (unknown)
164184  0     0  0            999 V2000
    3.7662    9.8790   -7.1231 C   0  0  0  0  0  0  0  0  0  0  0  0
    4.9319    9.7016   -6.4572 C   0  0  0  0  0  0  0  0  0  0  0  0
    5.2722    8.5007   -5.6368 C   0  0  0  0  0  0  0  0  0  0  0  0
    4.5599    7.5628   -5.3558 O   0  0  0  0  0  0  0  0  0  0  0  0
    6.7037    8.6313   -5.3177 C   0  0  0  0  0  0  0  0  0  0  0  0
    7.4687    7.7336   -4.5740 C   0  0  0  0  0  0  0  0  0  0  0  0
    8.7833    8.1035   -4.4320 C   0  0  0  0  0  0  0  0  0  0  0  0
    9.3052    9.2766   -4.9968 C   0  0  0  0  0  0  0  0  0  0  0  0
    8.5630   10.1702   -5.7303 C   0  0  0  0  0  0  0  0  0  0  0  0
    7.2165    9.8169   -5.8819 C   0  0  0  0  0  0  0  0  0  0  0  0
    6.1372   10.5128   -6.5723 C   0  0  0  0  0  0  0  0  0  0  0  0
    6.2262   11.7442   -7.1629 C   0  0  0  0  0  0  0  0  0  0  0  0
    7.4074   12.5132   -7.2382 C   0  0  0  0  0  0  0  0  0  0  0  0
    8.3288   13.1903   -7.3399 N   0  0  0  0  0  0  0  0  0  0  0  0
    5.1538   12.4339   -7.7695 C   0  0  0  0  0  0  0  0  0  0  0  0
    4.3338   13.0675   -8.2639 N   0  0  0  0  0  0  0  0  0  0  0  0
   10.6914    9.0100   -4.4648 C   0  0  0  0  0  0  0  0  0  0  0  0
   11.7264    8.4652   -5.4720 C   0  0  0  0  0  0  0  0  0  0  0  0
   12.8000    7.8618   -4.5951 C   0  0  0  0  0  0  0  0  0  0  0  0
   12.3057    6.7553   -4.0550 C   0  0  0  0  0  0  0  0  0  0  0  0
   10.8895    6.5917   -4.5580 C   0  0  0  0  0  0  0  0  0  0  0  0
   11.0389    7.1852   -5.9647 C   0  0  0  0  0  0  0  0  0  0  0  0
   10.1081    7.7065   -3.8307 C   0  0  0  0  0  0  0  0  0  0  0  0
    2.5661    9.0991   -6.9174 C   0  0  0  0  0  0  0  0  0  0  0  0
    2.1541    8.7295   -5.6265 C   0  0  0  0  0  0  0  0  0  0  0  0
    1.0467    7.9301   -5.4945 C   0  0  0  0  0  0  0  0  0  0  0  0
    0.4500    7.3634   -4.2563 C   0  0  0  0  0  0  0  0  0  0  0  0
    0.7624    7.5812   -3.1108 O   0  0  0  0  0  0  0  0  0  0  0  0
   -0.6259    6.4642   -4.7526 C   0  0  0  0  0  0  0  0  0  0  0  0
   -0.7120    6.5587   -6.1558 C   0  0  0  0  0  0  0  0  0  0  0  0
    0.3242    7.4731   -6.6169 C   0  0  0  0  0  0  0  0  0  0  0  0
    0.6873    7.8920   -7.8840 C   0  0  0  0  0  0  0  0  0  0  0  0
    1.7956    8.7148   -8.0192 C   0  0  0  0  0  0  0  0  0  0  0  0
   -1.6368    5.7872   -6.8358 C   0  0  0  0  0  0  0  0  0  0  0  0
   -2.4329    4.9043   -6.1216 C   0  0  0  0  0  0  0  0  0  0  0  0
   -2.3330    4.7850   -4.7315 C   0  0  0  0  0  0  0  0  0  0  0  0
   -1.4184    5.5985   -4.0421 C   0  0  0  0  0  0  0  0  0  0  0  0
   -3.0601    3.7710   -4.0004 C   0  0  0  0  0  0  0  0  0  0  0  0
   -4.2337    3.1075   -4.2958 C   0  0  0  0  0  0  0  0  0  0  0  0
   -5.1856    3.4709   -5.3476 C   0  0  0  0  0  0  0  0  0  0  0  0
   -5.5430    4.8021   -5.5533 C   0  0  0  0  0  0  0  0  0  0  0  0
   -6.4802    5.1210   -6.5160 C   0  0  0  0  0  0  0  0  0  0  0  0
   -7.0715    4.1246   -7.2749 C   0  0  0  0  0  0  0  0  0  0  0  0
   -6.7294    2.7929   -7.0809 C   0  0  0  0  0  0  0  0  0  0  0  0
   -7.4017    1.6968   -7.8555 C   0  0  0  0  0  0  0  0  0  0  0  0
   -8.5421    1.0925   -7.0338 C   0  0  0  0  0  0  0  0  0  0  0  0
   -5.7866    2.4784   -6.1130 C   0  0  0  0  0  0  0  0  0  0  0  0
   -4.4703    2.0524   -3.3848 C   0  0  0  0  0  0  0  0  0  0  0  0
   -5.7458    0.8636   -3.2428 S   0  0  0  0  0  0  0  0  0  0  0  0
   -4.9468    0.1983   -1.8570 C   0  0  0  0  0  0  0  0  0  0  0  0
   -5.1255   -0.8196   -0.9046 C   0  0  0  0  0  0  0  0  0  0  0  0
   -6.1943   -1.7132   -0.6753 C   0  0  0  0  0  0  0  0  0  0  0  0
   -6.1505   -2.5692    0.4771 C   0  0  0  0  0  0  0  0  0  0  0  0
   -7.2411   -3.3097    0.5981 N   0  0  0  0  0  0  0  0  0  0  0  0
   -8.2352   -2.9649   -0.6321 S   0  0  0  0  0  0  0  0  0  0  0  0
   -7.3134   -1.8564   -1.3682 N   0  0  0  0  0  0  0  0  0  0  0  0
   -4.9883   -2.5795    1.2794 C   0  0  0  0  0  0  0  0  0  0  0  0
   -4.6125   -3.3954    2.3601 C   0  0  0  0  0  0  0  0  0  0  0  0
   -5.2629   -4.6696    3.3357 S   0  0  0  0  0  0  0  0  0  0  0  0
   -3.7304   -4.7786    4.1699 C   0  0  0  0  0  0  0  0  0  0  0  0
   -3.2786   -5.5994    5.2165 C   0  0  0  0  0  0  0  0  0  0  0  0
   -4.1350   -6.6022    5.8574 C   0  0  0  0  0  0  0  0  0  0  0  0
   -4.4000   -6.5521    7.2222 C   0  0  0  0  0  0  0  0  0  0  0  0
   -5.2358   -7.4927    7.7913 C   0  0  0  0  0  0  0  0  0  0  0  0
   -5.8138   -8.4770    7.0093 C   0  0  0  0  0  0  0  0  0  0  0  0
   -5.5724   -8.5297    5.6431 C   0  0  0  0  0  0  0  0  0  0  0  0
   -6.2501   -9.5504    4.7756 C   0  0  0  0  0  0  0  0  0  0  0  0
   -7.5516   -8.9796    4.2080 C   0  0  0  0  0  0  0  0  0  0  0  0
   -4.7349   -7.5812    5.0759 C   0  0  0  0  0  0  0  0  0  0  0  0
   -1.9599   -5.3251    5.5450 C   0  0  0  0  0  0  0  0  0  0  0  0
   -1.2947   -4.0128    4.5663 S   0  0  0  0  0  0  0  0  0  0  0  0
   -2.7821   -3.8621    3.7051 C   0  0  0  0  0  0  0  0  0  0  0  0
   -3.2901   -3.0686    2.6729 C   0  0  0  0  0  0  0  0  0  0  0  0
   -2.8406   -2.0618    1.8564 N   0  0  0  0  0  0  0  0  0  0  0  0
   -3.8771   -1.7392    0.9918 C   0  0  0  0  0  0  0  0  0  0  0  0
   -4.0015   -0.7668   -0.0328 C   0  0  0  0  0  0  0  0  0  0  0  0
   -3.1966    0.2893   -0.4193 N   0  0  0  0  0  0  0  0  0  0  0  0
   -3.7646    0.8623   -1.5250 C   0  0  0  0  0  0  0  0  0  0  0  0
   -3.4969    1.9277   -2.3943 C   0  0  0  0  0  0  0  0  0  0  0  0
   -2.2699    3.1253   -2.5706 S   0  0  0  0  0  0  0  0  0  0  0  0
   -2.1955    1.0137    0.3310 C   0  0  0  0  0  0  0  0  0  0  0  0
   -0.8028    0.8929   -0.2858 C   0  0  0  0  0  0  0  0  0  0  0  0
   -1.4131   -1.9448    1.6451 C   0  0  0  0  0  0  0  0  0  0  0  0
   -0.9707   -2.7702    0.4386 C   0  0  0  0  0  0  0  0  0  0  0  0
   -1.0948   -5.9874    6.4485 C   0  0  0  0  0  0  0  0  0  0  0  0
    0.2111   -5.5976    6.7216 C   0  0  0  0  0  0  0  0  0  0  0  0
    0.8574   -6.4557    7.6004 C   0  0  0  0  0  0  0  0  0  0  0  0
    2.1147   -6.3955    8.0567 O   0  0  0  0  0  0  0  0  0  0  0  0
    2.9200   -5.2747    7.7294 C   0  0  0  0  0  0  0  0  0  0  0  0
    2.5521   -4.0409    8.5451 C   0  0  0  0  0  0  0  0  0  0  0  0
    0.0412   -7.5379    8.0214 C   0  0  0  0  0  0  0  0  0  0  0  0
   -1.5405   -7.4401    7.2807 S   0  0  0  0  0  0  0  0  0  0  0  0
    0.5091   -8.4927    8.9165 C   0  0  0  0  0  0  0  0  0  0  0  0
   -0.1180   -9.6075    9.4333 C   0  0  0  0  0  0  0  0  0  0  0  0
   -1.4701  -10.0478    9.1019 C   0  0  0  0  0  0  0  0  0  0  0  0
   -2.2794   -9.5120    8.3639 O   0  0  0  0  0  0  0  0  0  0  0  0
   -1.6813  -11.3071    9.8505 C   0  0  0  0  0  0  0  0  0  0  0  0
   -2.7954  -12.1195    9.8645 C   0  0  0  0  0  0  0  0  0  0  0  0
   -2.7614  -13.2679   10.6468 C   0  0  0  0  0  0  0  0  0  0  0  0
   -4.1165  -14.3271   10.7098 Cl  0  0  0  0  0  0  0  0  0  0  0  0
   -1.6138  -13.5591   11.3850 C   0  0  0  0  0  0  0  0  0  0  0  0
   -1.5866  -14.6689   12.1351 F   0  0  0  0  0  0  0  0  0  0  0  0
   -0.4913  -12.7443   11.3759 C   0  0  0  0  0  0  0  0  0  0  0  0
   -0.5270  -11.5999   10.5961 C   0  0  0  0  0  0  0  0  0  0  0  0
    0.4622  -10.5449   10.3658 C   0  0  0  0  0  0  0  0  0  0  0  0
    1.6983  -10.4845   10.9606 C   0  0  0  0  0  0  0  0  0  0  0  0
    2.1863  -11.4519   11.8628 C   0  0  0  0  0  0  0  0  0  0  0  0
    2.6469  -12.2011   12.6013 N   0  0  0  0  0  0  0  0  0  0  0  0
    2.6561   -9.4649   10.7827 C   0  0  0  0  0  0  0  0  0  0  0  0
    3.4955   -8.6833   10.7121 N   0  0  0  0  0  0  0  0  0  0  0  0
    3.7122   10.6295   -7.9023 H   0  0  0  0  0  0  0  0  0  0  0  0
    7.0241    6.8436   -4.1570 H   0  0  0  0  0  0  0  0  0  0  0  0
    8.9786   11.0684   -6.1553 H   0  0  0  0  0  0  0  0  0  0  0  0
   11.1005    9.7733   -3.8060 H   0  0  0  0  0  0  0  0  0  0  0  0
   12.0518    9.1807   -6.2221 H   0  0  0  0  0  0  0  0  0  0  0  0
   13.7573    8.3165   -4.4202 H   0  0  0  0  0  0  0  0  0  0  0  0
   12.7672    6.1011   -3.3388 H   0  0  0  0  0  0  0  0  0  0  0  0
   10.4521    5.6004   -4.4755 H   0  0  0  0  0  0  0  0  0  0  0  0
   11.6915    6.5853   -6.5969 H   0  0  0  0  0  0  0  0  0  0  0  0
   10.0938    7.3570   -6.4768 H   0  0  0  0  0  0  0  0  0  0  0  0
   10.1248    7.6016   -2.7476 H   0  0  0  0  0  0  0  0  0  0  0  0
    2.6817    9.0760   -4.7526 H   0  0  0  0  0  0  0  0  0  0  0  0
    0.1324    7.5792   -8.7556 H   0  0  0  0  0  0  0  0  0  0  0  0
    2.1038    9.0322   -9.0053 H   0  0  0  0  0  0  0  0  0  0  0  0
   -1.7247    5.8404   -7.9104 H   0  0  0  0  0  0  0  0  0  0  0  0
   -3.1236    4.2683   -6.6536 H   0  0  0  0  0  0  0  0  0  0  0  0
   -1.3232    5.5344   -2.9678 H   0  0  0  0  0  0  0  0  0  0  0  0
   -5.0911    5.5767   -4.9514 H   0  0  0  0  0  0  0  0  0  0  0  0
   -6.7574    6.1532   -6.6722 H   0  0  0  0  0  0  0  0  0  0  0  0
   -7.8070    4.3836   -8.0229 H   0  0  0  0  0  0  0  0  0  0  0  0
   -6.6777    0.9144   -8.0933 H   0  0  0  0  0  0  0  0  0  0  0  0
   -7.7989    2.0921   -8.7923 H   0  0  0  0  0  0  0  0  0  0  0  0
   -9.2816    1.8543   -6.7973 H   0  0  0  0  0  0  0  0  0  0  0  0
   -9.0299    0.2954   -7.5898 H   0  0  0  0  0  0  0  0  0  0  0  0
   -8.1617    0.6845   -6.1002 H   0  0  0  0  0  0  0  0  0  0  0  0
   -5.5058    1.4463   -5.9610 H   0  0  0  0  0  0  0  0  0  0  0  0
   -3.9584   -5.7735    7.8265 H   0  0  0  0  0  0  0  0  0  0  0  0
   -5.4383   -7.4573    8.8511 H   0  0  0  0  0  0  0  0  0  0  0  0
   -6.4627   -9.2118    7.4635 H   0  0  0  0  0  0  0  0  0  0  0  0
   -6.4711  -10.4462    5.3587 H   0  0  0  0  0  0  0  0  0  0  0  0
   -5.5914   -9.8321    3.9517 H   0  0  0  0  0  0  0  0  0  0  0  0
   -8.0433   -9.7120    3.5720 H   0  0  0  0  0  0  0  0  0  0  0  0
   -7.3490   -8.0872    3.6200 H   0  0  0  0  0  0  0  0  0  0  0  0
   -8.2291   -8.7093    5.0149 H   0  0  0  0  0  0  0  0  0  0  0  0
   -4.5318   -7.6114    4.0147 H   0  0  0  0  0  0  0  0  0  0  0  0
   -2.4832    2.0715    0.3297 H   0  0  0  0  0  0  0  0  0  0  0  0
   -2.2205    0.6725    1.3667 H   0  0  0  0  0  0  0  0  0  0  0  0
   -0.5155   -0.1447   -0.4282 H   0  0  0  0  0  0  0  0  0  0  0  0
   -0.0738    1.3789    0.3568 H   0  0  0  0  0  0  0  0  0  0  0  0
   -0.7819    1.3838   -1.2546 H   0  0  0  0  0  0  0  0  0  0  0  0
   -1.1140   -0.9077    1.5264 H   0  0  0  0  0  0  0  0  0  0  0  0
   -0.9322   -2.3271    2.5490 H   0  0  0  0  0  0  0  0  0  0  0  0
    0.1045   -2.6873    0.3045 H   0  0  0  0  0  0  0  0  0  0  0  0
   -1.4690   -2.4247   -0.4650 H   0  0  0  0  0  0  0  0  0  0  0  0
   -1.2218   -3.8179    0.5877 H   0  0  0  0  0  0  0  0  0  0  0  0
    0.6481   -4.7198    6.2787 H   0  0  0  0  0  0  0  0  0  0  0  0
    2.8633   -5.0672    6.6543 H   0  0  0  0  0  0  0  0  0  0  0  0
    3.9350   -5.5968    7.9741 H   0  0  0  0  0  0  0  0  0  0  0  0
    2.6303   -4.2661    9.6055 H   0  0  0  0  0  0  0  0  0  0  0  0
    3.2331   -3.2294    8.3053 H   0  0  0  0  0  0  0  0  0  0  0  0
    1.5343   -3.7222    8.3327 H   0  0  0  0  0  0  0  0  0  0  0  0
    1.5284   -8.3057    9.2322 H   0  0  0  0  0  0  0  0  0  0  0  0
   -3.6665  -11.8669    9.2815 H   0  0  0  0  0  0  0  0  0  0  0  0
    0.3620  -13.0290   11.9694 H   0  0  0  0  0  0  0  0  0  0  0  0
  1  2  2  0  0  0  0
  2  3  1  0  0  0  0
  3  4  2  0  0  0  0
  3  5  1  0  0  0  0
  5  6  2  0  0  0  0
  6  7  1  0  0  0  0
  7  8  2  0  0  0  0
  8  9  1  0  0  0  0
  9 10  2  0  0  0  0
 10 11  1  0  0  0  0
 11 12  2  0  0  0  0
 12 13  1  0  0  0  0
 13 14  3  0  0  0  0
 12 15  1  0  0  0  0
 15 16  3  0  0  0  0
  8 17  1  0  0  0  0
 17 18  1  0  0  0  0
 18 19  1  0  0  0  0
 19 20  2  0  0  0  0
 20 21  1  0  0  0  0
 21 22  1  0  0  0  0
 21 23  1  0  0  0  0
  1 24  1  0  0  0  0
 24 25  2  0  0  0  0
 25 26  1  0  0  0  0
 26 27  1  0  0  0  0
 27 28  2  0  0  0  0
 27 29  1  0  0  0  0
 29 30  2  0  0  0  0
 30 31  1  0  0  0  0
 31 32  1  0  0  0  0
 32 33  2  0  0  0  0
 30 34  1  0  0  0  0
 34 35  2  0  0  0  0
 35 36  1  0  0  0  0
 36 37  2  0  0  0  0
 36 38  1  0  0  0  0
 38 39  2  0  0  0  0
 39 40  1  0  0  0  0
 40 41  2  0  0  0  0
 41 42  1  0  0  0  0
 42 43  2  0  0  0  0
 43 44  1  0  0  0  0
 44 45  1  0  0  0  0
 45 46  1  0  0  0  0
 44 47  2  0  0  0  0
 39 48  1  0  0  0  0
 48 49  1  0  0  0  0
 49 50  1  0  0  0  0
 50 51  1  0  0  0  0
 51 52  1  0  0  0  0
 52 53  1  0  0  0  0
 53 54  2  0  0  0  0
 54 55  1  0  0  0  0
 55 56  1  0  0  0  0
 53 57  1  0  0  0  0
 57 58  1  0  0  0  0
 58 59  1  0  0  0  0
 59 60  1  0  0  0  0
 60 61  1  0  0  0  0
 61 62  1  0  0  0  0
 62 63  2  0  0  0  0
 63 64  1  0  0  0  0
 64 65  2  0  0  0  0
 65 66  1  0  0  0  0
 66 67  1  0  0  0  0
 67 68  1  0  0  0  0
 66 69  2  0  0  0  0
 61 70  2  0  0  0  0
 70 71  1  0  0  0  0
 71 72  1  0  0  0  0
 72 73  1  0  0  0  0
 73 74  1  0  0  0  0
 74 75  1  0  0  0  0
 75 76  1  0  0  0  0
 76 77  1  0  0  0  0
 77 78  1  0  0  0  0
 78 79  1  0  0  0  0
 79 80  1  0  0  0  0
 77 81  1  0  0  0  0
 81 82  1  0  0  0  0
 74 83  1  0  0  0  0
 83 84  1  0  0  0  0
 70 85  1  0  0  0  0
 85 86  2  0  0  0  0
 86 87  1  0  0  0  0
 87 88  1  0  0  0  0
 88 89  1  0  0  0  0
 89 90  1  0  0  0  0
 87 91  2  0  0  0  0
 91 92  1  0  0  0  0
 91 93  1  0  0  0  0
 93 94  2  0  0  0  0
 94 95  1  0  0  0  0
 95 96  2  0  0  0  0
 95 97  1  0  0  0  0
 97 98  2  0  0  0  0
 98 99  1  0  0  0  0
 99100  1  0  0  0  0
 99101  2  0  0  0  0
101102  1  0  0  0  0
101103  1  0  0  0  0
103104  2  0  0  0  0
104105  1  0  0  0  0
105106  2  0  0  0  0
106107  1  0  0  0  0
107108  3  0  0  0  0
106109  1  0  0  0  0
109110  3  0  0  0  0
 11  2  1  0  0  0  0
 23 17  1  0  0  0  0
 33 24  1  0  0  0  0
 80 38  1  0  0  0  0
 92 85  1  0  0  0  0
105 94  1  0  0  0  0
 10  5  1  0  0  0  0
 22 18  1  0  0  0  0
 31 26  2  0  0  0  0
 47 40  1  0  0  0  0
 79 48  2  0  0  0  0
104 97  1  0  0  0  0
 23  7  1  0  0  0  0
 37 29  1  0  0  0  0
 78 50  2  0  0  0  0
 76 51  2  0  0  0  0
 56 52  2  0  0  0  0
 75 57  2  0  0  0  0
 73 58  2  0  0  0  0
 72 60  2  0  0  0  0
 69 62  1  0  0  0  0
  1111  1  0  0  0  0
  6112  1  0  0  0  0
  9113  1  0  0  0  0
 17114  1  0  0  0  0
 18115  1  0  0  0  0
 19116  1  0  0  0  0
 20117  1  0  0  0  0
 21118  1  0  0  0  0
 22119  1  0  0  0  0
 22120  1  0  0  0  0
 23121  1  0  0  0  0
 25122  1  0  0  0  0
 32123  1  0  0  0  0
 33124  1  0  0  0  0
 34125  1  0  0  0  0
 35126  1  0  0  0  0
 37127  1  0  0  0  0
 41128  1  0  0  0  0
 42129  1  0  0  0  0
 43130  1  0  0  0  0
 45131  1  0  0  0  0
 45132  1  0  0  0  0
 46133  1  0  0  0  0
 46134  1  0  0  0  0
 46135  1  0  0  0  0
 47136  1  0  0  0  0
 63137  1  0  0  0  0
 64138  1  0  0  0  0
 65139  1  0  0  0  0
 67140  1  0  0  0  0
 67141  1  0  0  0  0
 68142  1  0  0  0  0
 68143  1  0  0  0  0
 68144  1  0  0  0  0
 69145  1  0  0  0  0
 81146  1  0  0  0  0
 81147  1  0  0  0  0
 82148  1  0  0  0  0
 82149  1  0  0  0  0
 82150  1  0  0  0  0
 83151  1  0  0  0  0
 83152  1  0  0  0  0
 84153  1  0  0  0  0
 84154  1  0  0  0  0
 84155  1  0  0  0  0
 86156  1  0  0  0  0
 89157  1  0  0  0  0
 89158  1  0  0  0  0
 90159  1  0  0  0  0
 90160  1  0  0  0  0
 90161  1  0  0  0  0
 93162  1  0  0  0  0
 98163  1  0  0  0  0
103164  1  0  0  0  0
M  END
