
  xtb     02162216083D
 energy: -366.364912875727 gnorm: 0.000806912571 xtb: 6.4.1 (unknown)
225252  0     0  0            999 V2000
    7.4105    0.7809  -12.5048 C   0  0  0  0  0  0  0  0  0  0  0  0
    7.6996    1.2898  -13.7430 C   0  0  0  0  0  0  0  0  0  0  0  0
    8.1150    2.6791  -14.0275 C   0  0  0  0  0  0  0  0  0  0  0  0
    8.1905    3.6075  -13.2468 O   0  0  0  0  0  0  0  0  0  0  0  0
    8.5562    2.6850  -15.4369 C   0  0  0  0  0  0  0  0  0  0  0  0
    9.0316    3.7767  -16.1588 C   0  0  0  0  0  0  0  0  0  0  0  0
    9.3803    3.4826  -17.4554 C   0  0  0  0  0  0  0  0  0  0  0  0
    9.2832    2.1914  -17.9905 C   0  0  0  0  0  0  0  0  0  0  0  0
    8.8231    1.1037  -17.2878 C   0  0  0  0  0  0  0  0  0  0  0  0
    8.4470    1.3859  -15.9716 C   0  0  0  0  0  0  0  0  0  0  0  0
    7.8957    0.5065  -14.9455 C   0  0  0  0  0  0  0  0  0  0  0  0
    7.5340   -0.8048  -15.1215 C   0  0  0  0  0  0  0  0  0  0  0  0
    7.7305   -1.5361  -16.3106 C   0  0  0  0  0  0  0  0  0  0  0  0
    7.8660   -2.1952  -17.2413 N   0  0  0  0  0  0  0  0  0  0  0  0
    6.8799   -1.5981  -14.1555 C   0  0  0  0  0  0  0  0  0  0  0  0
    6.3183   -2.2989  -13.4391 N   0  0  0  0  0  0  0  0  0  0  0  0
    9.7965    2.6249  -19.3405 C   0  0  0  0  0  0  0  0  0  0  0  0
    8.7623    2.7929  -20.4808 C   0  0  0  0  0  0  0  0  0  0  0  0
    7.4438    3.1090  -19.8195 C   0  0  0  0  0  0  0  0  0  0  0  0
    7.5273    4.3328  -19.3150 C   0  0  0  0  0  0  0  0  0  0  0  0
    8.9039    4.8662  -19.6260 C   0  0  0  0  0  0  0  0  0  0  0  0
    9.1551    4.1911  -20.9839 C   0  0  0  0  0  0  0  0  0  0  0  0
    9.8972    4.0655  -18.7471 C   0  0  0  0  0  0  0  0  0  0  0  0
    7.0079    1.4721  -11.3454 C   0  0  0  0  0  0  0  0  0  0  0  0
    6.2210    2.6118  -11.1779 C   0  0  0  0  0  0  0  0  0  0  0  0
    5.5863    3.3677  -12.2944 C   0  0  0  0  0  0  0  0  0  0  0  0
    4.1798    3.8645  -11.9767 C   0  0  0  0  0  0  0  0  0  0  0  0
    6.0126    2.8656   -9.8156 C   0  0  0  0  0  0  0  0  0  0  0  0
    6.6050    1.9434   -8.9446 C   0  0  0  0  0  0  0  0  0  0  0  0
    7.4253    0.7049   -9.8085 S   0  0  0  0  0  0  0  0  0  0  0  0
    6.3830    2.2006   -7.5918 C   0  0  0  0  0  0  0  0  0  0  0  0
    5.6211    3.3336   -7.4024 C   0  0  0  0  0  0  0  0  0  0  0  0
    5.1746    4.0917   -8.9184 S   0  0  0  0  0  0  0  0  0  0  0  0
    5.1106    3.8065   -6.1632 C   0  0  0  0  0  0  0  0  0  0  0  0
    4.4400    4.9819   -5.8792 C   0  0  0  0  0  0  0  0  0  0  0  0
    4.3127    6.1238   -6.7885 C   0  0  0  0  0  0  0  0  0  0  0  0
    5.4466    6.7032   -7.3514 C   0  0  0  0  0  0  0  0  0  0  0  0
    5.3168    7.7995   -8.1817 C   0  0  0  0  0  0  0  0  0  0  0  0
    4.0647    8.3212   -8.4559 C   0  0  0  0  0  0  0  0  0  0  0  0
    2.9247    7.7616   -7.8928 C   0  0  0  0  0  0  0  0  0  0  0  0
    1.5627    8.2987   -8.2248 C   0  0  0  0  0  0  0  0  0  0  0  0
    1.0079    7.6015   -9.4688 C   0  0  0  0  0  0  0  0  0  0  0  0
    3.0610    6.6646   -7.0557 C   0  0  0  0  0  0  0  0  0  0  0  0
    3.9162    4.9714   -4.5736 C   0  0  0  0  0  0  0  0  0  0  0  0
    2.9602    6.1322   -3.6870 S   0  0  0  0  0  0  0  0  0  0  0  0
    2.9199    5.0350   -2.3502 C   0  0  0  0  0  0  0  0  0  0  0  0
    2.3860    4.9679   -1.0524 C   0  0  0  0  0  0  0  0  0  0  0  0
    1.7036    5.9198   -0.2640 C   0  0  0  0  0  0  0  0  0  0  0  0
    1.3624    5.5852    1.0912 C   0  0  0  0  0  0  0  0  0  0  0  0
    0.7692    6.5856    1.7238 N   0  0  0  0  0  0  0  0  0  0  0  0
    0.6500    7.8392    0.7059 S   0  0  0  0  0  0  0  0  0  0  0  0
    1.3474    7.1536   -0.5849 N   0  0  0  0  0  0  0  0  0  0  0  0
    1.5986    4.2713    1.5515 C   0  0  0  0  0  0  0  0  0  0  0  0
    1.1868    3.6057    2.7200 C   0  0  0  0  0  0  0  0  0  0  0  0
    0.3261    3.9314    4.1872 S   0  0  0  0  0  0  0  0  0  0  0  0
    0.3342    2.2241    4.5581 C   0  0  0  0  0  0  0  0  0  0  0  0
   -0.2474    1.4537    5.5924 C   0  0  0  0  0  0  0  0  0  0  0  0
   -0.9167    1.9863    6.7763 C   0  0  0  0  0  0  0  0  0  0  0  0
   -0.8483    1.3083    7.9930 C   0  0  0  0  0  0  0  0  0  0  0  0
   -1.4887    1.8148    9.1065 C   0  0  0  0  0  0  0  0  0  0  0  0
   -2.2027    2.9980    9.0267 C   0  0  0  0  0  0  0  0  0  0  0  0
   -2.2627    3.7001    7.8308 C   0  0  0  0  0  0  0  0  0  0  0  0
   -2.9805    5.0157    7.7367 C   0  0  0  0  0  0  0  0  0  0  0  0
   -1.9874    6.1732    7.8537 C   0  0  0  0  0  0  0  0  0  0  0  0
   -1.6086    3.1915    6.7192 C   0  0  0  0  0  0  0  0  0  0  0  0
   -0.0579    0.1049    5.3655 C   0  0  0  0  0  0  0  0  0  0  0  0
    0.9353   -0.2188    3.9530 S   0  0  0  0  0  0  0  0  0  0  0  0
    1.0011    1.4675    3.5960 C   0  0  0  0  0  0  0  0  0  0  0  0
    1.4996    2.2568    2.5509 C   0  0  0  0  0  0  0  0  0  0  0  0
    2.1412    2.0643    1.3557 N   0  0  0  0  0  0  0  0  0  0  0  0
    2.2134    3.2948    0.7210 C   0  0  0  0  0  0  0  0  0  0  0  0
    2.7339    3.6905   -0.5368 C   0  0  0  0  0  0  0  0  0  0  0  0
    3.5132    3.0291   -1.4716 N   0  0  0  0  0  0  0  0  0  0  0  0
    3.6139    3.8420   -2.5740 C   0  0  0  0  0  0  0  0  0  0  0  0
    4.1953    3.8100   -3.8478 C   0  0  0  0  0  0  0  0  0  0  0  0
    5.1380    2.7068   -4.7877 S   0  0  0  0  0  0  0  0  0  0  0  0
    4.4961    1.9916   -1.2391 C   0  0  0  0  0  0  0  0  0  0  0  0
    4.2335    0.7238   -2.0483 C   0  0  0  0  0  0  0  0  0  0  0  0
    2.1405    0.7477    0.7558 C   0  0  0  0  0  0  0  0  0  0  0  0
    1.0520    0.6332   -0.3081 C   0  0  0  0  0  0  0  0  0  0  0  0
   -0.7301   -1.0010    5.9803 C   0  0  0  0  0  0  0  0  0  0  0  0
   -2.0998   -1.1417    6.1509 C   0  0  0  0  0  0  0  0  0  0  0  0
   -3.0561   -0.2068    5.7945 N   0  0  0  0  0  0  0  0  0  0  0  0
   -4.2153   -0.1073    6.5810 C   0  0  0  0  0  0  0  0  0  0  0  0
   -4.1309   -0.2136    7.9667 C   0  0  0  0  0  0  0  0  0  0  0  0
   -5.2743   -0.1665    8.7366 C   0  0  0  0  0  0  0  0  0  0  0  0
   -6.5256   -0.0049    8.1542 C   0  0  0  0  0  0  0  0  0  0  0  0
   -7.7606   -0.0002    9.0014 C   0  0  0  0  0  0  0  0  0  0  0  0
   -6.5979    0.1236    6.7736 C   0  0  0  0  0  0  0  0  0  0  0  0
   -5.4620    0.0702    5.9903 C   0  0  0  0  0  0  0  0  0  0  0  0
   -2.9149    0.5584    4.6319 C   0  0  0  0  0  0  0  0  0  0  0  0
   -2.3095    0.0272    3.4957 C   0  0  0  0  0  0  0  0  0  0  0  0
   -2.0957    0.8190    2.3846 C   0  0  0  0  0  0  0  0  0  0  0  0
   -2.4866    2.1508    2.3624 C   0  0  0  0  0  0  0  0  0  0  0  0
   -2.1967    3.0341    1.1873 C   0  0  0  0  0  0  0  0  0  0  0  0
   -3.1489    2.6548    3.4767 C   0  0  0  0  0  0  0  0  0  0  0  0
   -3.3674    1.8758    4.5941 C   0  0  0  0  0  0  0  0  0  0  0  0
   -2.4167   -2.4157    6.6833 C   0  0  0  0  0  0  0  0  0  0  0  0
   -3.9040   -3.1829    7.1086 S   0  0  0  0  0  0  0  0  0  0  0  0
   -3.0310   -4.6704    7.4935 C   0  0  0  0  0  0  0  0  0  0  0  0
   -1.6250   -4.5047    7.3901 C   0  0  0  0  0  0  0  0  0  0  0  0
   -0.6862   -5.4432    7.7220 N   0  0  0  0  0  0  0  0  0  0  0  0
    0.5321   -5.4532    7.0134 C   0  0  0  0  0  0  0  0  0  0  0  0
    0.5263   -5.3846    5.6229 C   0  0  0  0  0  0  0  0  0  0  0  0
    1.7177   -5.3796    4.9263 C   0  0  0  0  0  0  0  0  0  0  0  0
    2.9365   -5.4502    5.5910 C   0  0  0  0  0  0  0  0  0  0  0  0
    4.2237   -5.4152    4.8265 C   0  0  0  0  0  0  0  0  0  0  0  0
    2.9303   -5.5327    6.9782 C   0  0  0  0  0  0  0  0  0  0  0  0
    1.7459   -5.5331    7.6877 C   0  0  0  0  0  0  0  0  0  0  0  0
   -0.8292   -6.3048    8.8250 C   0  0  0  0  0  0  0  0  0  0  0  0
   -1.4782   -5.8819    9.9821 C   0  0  0  0  0  0  0  0  0  0  0  0
   -1.6030   -6.7399   11.0564 C   0  0  0  0  0  0  0  0  0  0  0  0
   -1.0757   -8.0251   11.0148 C   0  0  0  0  0  0  0  0  0  0  0  0
   -1.2211   -8.9645   12.1720 C   0  0  0  0  0  0  0  0  0  0  0  0
   -0.4099   -8.4287    9.8633 C   0  0  0  0  0  0  0  0  0  0  0  0
   -0.2875   -7.5871    8.7765 C   0  0  0  0  0  0  0  0  0  0  0  0
   -1.3109   -3.2324    6.8831 C   0  0  0  0  0  0  0  0  0  0  0  0
    0.1652   -2.4462    6.4224 S   0  0  0  0  0  0  0  0  0  0  0  0
   -3.6288   -5.9101    7.7046 C   0  0  0  0  0  0  0  0  0  0  0  0
   -4.9601   -6.2596    7.7629 C   0  0  0  0  0  0  0  0  0  0  0  0
   -6.0973   -5.3389    7.8012 C   0  0  0  0  0  0  0  0  0  0  0  0
   -6.0737   -4.1197    7.7539 O   0  0  0  0  0  0  0  0  0  0  0  0
   -7.3034   -6.1771    7.9384 C   0  0  0  0  0  0  0  0  0  0  0  0
   -8.6262   -5.7464    7.9864 C   0  0  0  0  0  0  0  0  0  0  0  0
   -9.5436   -6.7655    8.0858 C   0  0  0  0  0  0  0  0  0  0  0  0
   -9.1709   -8.1146    8.1265 C   0  0  0  0  0  0  0  0  0  0  0  0
   -7.8682   -8.5525    8.0829 C   0  0  0  0  0  0  0  0  0  0  0  0
   -6.9195   -7.5316    7.9910 C   0  0  0  0  0  0  0  0  0  0  0  0
   -5.4618   -7.6062    7.8823 C   0  0  0  0  0  0  0  0  0  0  0  0
   -4.7298   -8.7705    7.8660 C   0  0  0  0  0  0  0  0  0  0  0  0
   -3.3510   -8.8728    7.6030 C   0  0  0  0  0  0  0  0  0  0  0  0
   -2.2445   -9.0640    7.3530 N   0  0  0  0  0  0  0  0  0  0  0  0
   -5.2669  -10.0535    8.0877 C   0  0  0  0  0  0  0  0  0  0  0  0
   -5.6245  -11.1279    8.2844 N   0  0  0  0  0  0  0  0  0  0  0  0
  -10.5997   -8.5906    8.2113 C   0  0  0  0  0  0  0  0  0  0  0  0
  -11.1254   -9.0612    9.5892 C   0  0  0  0  0  0  0  0  0  0  0  0
  -10.3057   -8.3369   10.6279 C   0  0  0  0  0  0  0  0  0  0  0  0
  -10.6554   -7.0578   10.5992 C   0  0  0  0  0  0  0  0  0  0  0  0
  -11.7183   -6.8943    9.5413 C   0  0  0  0  0  0  0  0  0  0  0  0
  -12.4299   -8.2516    9.6603 C   0  0  0  0  0  0  0  0  0  0  0  0
  -11.0152   -7.0861    8.1744 C   0  0  0  0  0  0  0  0  0  0  0  0
    7.5370   -0.2869  -12.3638 H   0  0  0  0  0  0  0  0  0  0  0  0
    9.0991    4.7535  -15.7057 H   0  0  0  0  0  0  0  0  0  0  0  0
    8.7602    0.1150  -17.7107 H   0  0  0  0  0  0  0  0  0  0  0  0
   10.7141    2.1478  -19.6787 H   0  0  0  0  0  0  0  0  0  0  0  0
    8.7536    1.9830  -21.2053 H   0  0  0  0  0  0  0  0  0  0  0  0
    6.6319    2.4100  -19.7385 H   0  0  0  0  0  0  0  0  0  0  0  0
    6.7988    4.8609  -18.7279 H   0  0  0  0  0  0  0  0  0  0  0  0
    9.0237    5.9453  -19.5739 H   0  0  0  0  0  0  0  0  0  0  0  0
   10.1899    4.2576  -21.3169 H   0  0  0  0  0  0  0  0  0  0  0  0
    8.4924    4.5587  -21.7660 H   0  0  0  0  0  0  0  0  0  0  0  0
   10.8797    4.5318  -18.7026 H   0  0  0  0  0  0  0  0  0  0  0  0
    6.2300    4.2184  -12.5423 H   0  0  0  0  0  0  0  0  0  0  0  0
    5.5582    2.7235  -13.1772 H   0  0  0  0  0  0  0  0  0  0  0  0
    4.1966    4.6386  -11.2139 H   0  0  0  0  0  0  0  0  0  0  0  0
    3.5525    3.0466  -11.6288 H   0  0  0  0  0  0  0  0  0  0  0  0
    3.7320    4.2838  -12.8744 H   0  0  0  0  0  0  0  0  0  0  0  0
    6.7493    1.5910   -6.7858 H   0  0  0  0  0  0  0  0  0  0  0  0
    6.4228    6.2994   -7.1255 H   0  0  0  0  0  0  0  0  0  0  0  0
    6.1968    8.2507   -8.6153 H   0  0  0  0  0  0  0  0  0  0  0  0
    3.9705    9.1773   -9.1083 H   0  0  0  0  0  0  0  0  0  0  0  0
    1.6231    9.3727   -8.4104 H   0  0  0  0  0  0  0  0  0  0  0  0
    0.8850    8.1337   -7.3853 H   0  0  0  0  0  0  0  0  0  0  0  0
    0.9266    6.5304   -9.2977 H   0  0  0  0  0  0  0  0  0  0  0  0
    1.6680    7.7615  -10.3183 H   0  0  0  0  0  0  0  0  0  0  0  0
    0.0228    7.9903   -9.7157 H   0  0  0  0  0  0  0  0  0  0  0  0
    2.1838    6.2159   -6.6120 H   0  0  0  0  0  0  0  0  0  0  0  0
   -0.2780    0.3943    8.0671 H   0  0  0  0  0  0  0  0  0  0  0  0
   -1.4292    1.2850   10.0464 H   0  0  0  0  0  0  0  0  0  0  0  0
   -2.7097    3.3817    9.9003 H   0  0  0  0  0  0  0  0  0  0  0  0
   -3.7234    5.0913    8.5330 H   0  0  0  0  0  0  0  0  0  0  0  0
   -3.4983    5.0847    6.7776 H   0  0  0  0  0  0  0  0  0  0  0  0
   -1.2479    6.1176    7.0582 H   0  0  0  0  0  0  0  0  0  0  0  0
   -1.4677    6.1296    8.8084 H   0  0  0  0  0  0  0  0  0  0  0  0
   -2.5044    7.1272    7.7828 H   0  0  0  0  0  0  0  0  0  0  0  0
   -1.6573    3.7330    5.7872 H   0  0  0  0  0  0  0  0  0  0  0  0
    5.4753    2.3899   -1.5314 H   0  0  0  0  0  0  0  0  0  0  0  0
    4.5341    1.7890   -0.1679 H   0  0  0  0  0  0  0  0  0  0  0  0
    4.3163    0.9341   -3.1107 H   0  0  0  0  0  0  0  0  0  0  0  0
    4.9748   -0.0284   -1.7914 H   0  0  0  0  0  0  0  0  0  0  0  0
    3.2435    0.3219   -1.8593 H   0  0  0  0  0  0  0  0  0  0  0  0
    1.9401    0.0382    1.5622 H   0  0  0  0  0  0  0  0  0  0  0  0
    3.1165    0.5040    0.3401 H   0  0  0  0  0  0  0  0  0  0  0  0
    1.0307   -0.3746   -0.7149 H   0  0  0  0  0  0  0  0  0  0  0  0
    0.0829    0.8506    0.1341 H   0  0  0  0  0  0  0  0  0  0  0  0
    1.2224    1.3410   -1.1162 H   0  0  0  0  0  0  0  0  0  0  0  0
   -3.1641   -0.3322    8.4324 H   0  0  0  0  0  0  0  0  0  0  0  0
   -5.1954   -0.2594    9.8101 H   0  0  0  0  0  0  0  0  0  0  0  0
   -7.9736   -1.0133    9.3419 H   0  0  0  0  0  0  0  0  0  0  0  0
   -7.6251    0.6258    9.8813 H   0  0  0  0  0  0  0  0  0  0  0  0
   -8.6189    0.3604    8.4405 H   0  0  0  0  0  0  0  0  0  0  0  0
   -7.5601    0.2507    6.2986 H   0  0  0  0  0  0  0  0  0  0  0  0
   -5.5364    0.1515    4.9158 H   0  0  0  0  0  0  0  0  0  0  0  0
   -2.0037   -1.0089    3.4871 H   0  0  0  0  0  0  0  0  0  0  0  0
   -1.6192    0.3832    1.5177 H   0  0  0  0  0  0  0  0  0  0  0  0
   -1.9510    2.4485    0.3044 H   0  0  0  0  0  0  0  0  0  0  0  0
   -1.3521    3.6877    1.4097 H   0  0  0  0  0  0  0  0  0  0  0  0
   -3.0518    3.6670    0.9605 H   0  0  0  0  0  0  0  0  0  0  0  0
   -3.4839    3.6821    3.4719 H   0  0  0  0  0  0  0  0  0  0  0  0
   -3.8722    2.2840    5.4567 H   0  0  0  0  0  0  0  0  0  0  0  0
   -0.4162   -5.3424    5.0967 H   0  0  0  0  0  0  0  0  0  0  0  0
    1.7015   -5.3254    3.8475 H   0  0  0  0  0  0  0  0  0  0  0  0
    4.4826   -4.3836    4.5856 H   0  0  0  0  0  0  0  0  0  0  0  0
    4.1340   -5.9646    3.8919 H   0  0  0  0  0  0  0  0  0  0  0  0
    5.0356   -5.8409    5.4107 H   0  0  0  0  0  0  0  0  0  0  0  0
    3.8670   -5.5900    7.5133 H   0  0  0  0  0  0  0  0  0  0  0  0
    1.7537   -5.5897    8.7661 H   0  0  0  0  0  0  0  0  0  0  0  0
   -1.8859   -4.8829   10.0344 H   0  0  0  0  0  0  0  0  0  0  0  0
   -2.1122   -6.3992   11.9465 H   0  0  0  0  0  0  0  0  0  0  0  0
   -0.2552   -9.3845   12.4472 H   0  0  0  0  0  0  0  0  0  0  0  0
   -1.8768   -9.7920   11.9015 H   0  0  0  0  0  0  0  0  0  0  0  0
   -1.6431   -8.4583   13.0365 H   0  0  0  0  0  0  0  0  0  0  0  0
    0.0047   -9.4239    9.8092 H   0  0  0  0  0  0  0  0  0  0  0  0
    0.2163   -7.9210    7.8836 H   0  0  0  0  0  0  0  0  0  0  0  0
   -2.9238   -6.7260    7.8008 H   0  0  0  0  0  0  0  0  0  0  0  0
   -8.8686   -4.6961    7.9365 H   0  0  0  0  0  0  0  0  0  0  0  0
   -7.6002   -9.5954    8.1113 H   0  0  0  0  0  0  0  0  0  0  0  0
  -10.9360   -9.2307    7.3978 H   0  0  0  0  0  0  0  0  0  0  0  0
  -11.1977  -10.1397    9.7008 H   0  0  0  0  0  0  0  0  0  0  0  0
   -9.5374   -8.8036   11.2161 H   0  0  0  0  0  0  0  0  0  0  0  0
  -10.2373   -6.2419   11.1592 H   0  0  0  0  0  0  0  0  0  0  0  0
  -12.3322   -5.9999    9.6117 H   0  0  0  0  0  0  0  0  0  0  0  0
  -13.1130   -8.4570    8.8371 H   0  0  0  0  0  0  0  0  0  0  0  0
  -12.9504   -8.3732   10.6092 H   0  0  0  0  0  0  0  0  0  0  0  0
  -11.6297   -6.7473    7.3423 H   0  0  0  0  0  0  0  0  0  0  0  0
  1  2  2  0  0  0  0
  2  3  1  0  0  0  0
  3  4  2  0  0  0  0
  3  5  1  0  0  0  0
  5  6  2  0  0  0  0
  6  7  1  0  0  0  0
  7  8  2  0  0  0  0
  8  9  1  0  0  0  0
  9 10  2  0  0  0  0
 10 11  1  0  0  0  0
 11 12  2  0  0  0  0
 12 13  1  0  0  0  0
 13 14  3  0  0  0  0
 12 15  1  0  0  0  0
 15 16  3  0  0  0  0
  8 17  1  0  0  0  0
 17 18  1  0  0  0  0
 18 19  1  0  0  0  0
 19 20  2  0  0  0  0
 20 21  1  0  0  0  0
 21 22  1  0  0  0  0
 21 23  1  0  0  0  0
  1 24  1  0  0  0  0
 24 25  2  0  0  0  0
 25 26  1  0  0  0  0
 26 27  1  0  0  0  0
 25 28  1  0  0  0  0
 28 29  2  0  0  0  0
 29 30  1  0  0  0  0
 29 31  1  0  0  0  0
 31 32  2  0  0  0  0
 32 33  1  0  0  0  0
 32 34  1  0  0  0  0
 34 35  2  0  0  0  0
 35 36  1  0  0  0  0
 36 37  2  0  0  0  0
 37 38  1  0  0  0  0
 38 39  2  0  0  0  0
 39 40  1  0  0  0  0
 40 41  1  0  0  0  0
 41 42  1  0  0  0  0
 40 43  2  0  0  0  0
 35 44  1  0  0  0  0
 44 45  1  0  0  0  0
 45 46  1  0  0  0  0
 46 47  1  0  0  0  0
 47 48  1  0  0  0  0
 48 49  1  0  0  0  0
 49 50  2  0  0  0  0
 50 51  1  0  0  0  0
 51 52  1  0  0  0  0
 49 53  1  0  0  0  0
 53 54  1  0  0  0  0
 54 55  1  0  0  0  0
 55 56  1  0  0  0  0
 56 57  1  0  0  0  0
 57 58  1  0  0  0  0
 58 59  2  0  0  0  0
 59 60  1  0  0  0  0
 60 61  2  0  0  0  0
 61 62  1  0  0  0  0
 62 63  1  0  0  0  0
 63 64  1  0  0  0  0
 62 65  2  0  0  0  0
 57 66  2  0  0  0  0
 66 67  1  0  0  0  0
 67 68  1  0  0  0  0
 68 69  1  0  0  0  0
 69 70  1  0  0  0  0
 70 71  1  0  0  0  0
 71 72  1  0  0  0  0
 72 73  1  0  0  0  0
 73 74  1  0  0  0  0
 74 75  1  0  0  0  0
 75 76  1  0  0  0  0
 73 77  1  0  0  0  0
 77 78  1  0  0  0  0
 70 79  1  0  0  0  0
 79 80  1  0  0  0  0
 66 81  1  0  0  0  0
 81 82  2  0  0  0  0
 82 83  1  0  0  0  0
 83 84  1  0  0  0  0
 84 85  2  0  0  0  0
 85 86  1  0  0  0  0
 86 87  2  0  0  0  0
 87 88  1  0  0  0  0
 87 89  1  0  0  0  0
 89 90  2  0  0  0  0
 83 91  1  0  0  0  0
 91 92  2  0  0  0  0
 92 93  1  0  0  0  0
 93 94  2  0  0  0  0
 94 95  1  0  0  0  0
 94 96  1  0  0  0  0
 96 97  2  0  0  0  0
 82 98  1  0  0  0  0
 98 99  1  0  0  0  0
 99100  1  0  0  0  0
100101  2  0  0  0  0
101102  1  0  0  0  0
102103  1  0  0  0  0
103104  2  0  0  0  0
104105  1  0  0  0  0
105106  2  0  0  0  0
106107  1  0  0  0  0
106108  1  0  0  0  0
108109  2  0  0  0  0
102110  1  0  0  0  0
110111  2  0  0  0  0
111112  1  0  0  0  0
112113  2  0  0  0  0
113114  1  0  0  0  0
113115  1  0  0  0  0
115116  2  0  0  0  0
101117  1  0  0  0  0
117118  1  0  0  0  0
100119  1  0  0  0  0
119120  2  0  0  0  0
120121  1  0  0  0  0
121122  2  0  0  0  0
121123  1  0  0  0  0
123124  2  0  0  0  0
124125  1  0  0  0  0
125126  2  0  0  0  0
126127  1  0  0  0  0
127128  2  0  0  0  0
128129  1  0  0  0  0
129130  2  0  0  0  0
130131  1  0  0  0  0
131132  3  0  0  0  0
130133  1  0  0  0  0
133134  3  0  0  0  0
126135  1  0  0  0  0
135136  1  0  0  0  0
136137  1  0  0  0  0
137138  2  0  0  0  0
138139  1  0  0  0  0
139140  1  0  0  0  0
139141  1  0  0  0  0
 11  2  1  0  0  0  0
 23 17  1  0  0  0  0
 30 24  1  0  0  0  0
 76 34  1  0  0  0  0
118 81  1  0  0  0  0
129120  1  0  0  0  0
141135  1  0  0  0  0
 10  5  1  0  0  0  0
 22 18  1  0  0  0  0
 33 28  1  0  0  0  0
 43 36  1  0  0  0  0
 75 44  2  0  0  0  0
 90 84  1  0  0  0  0
 97 91  1  0  0  0  0
117 98  2  0  0  0  0
128123  1  0  0  0  0
140136  1  0  0  0  0
 23  7  1  0  0  0  0
 74 46  2  0  0  0  0
109103  1  0  0  0  0
116110  1  0  0  0  0
141125  1  0  0  0  0
 72 47  2  0  0  0  0
 52 48  2  0  0  0  0
 71 53  2  0  0  0  0
 69 54  2  0  0  0  0
 68 56  2  0  0  0  0
 65 58  1  0  0  0  0
  1142  1  0  0  0  0
  6143  1  0  0  0  0
  9144  1  0  0  0  0
 17145  1  0  0  0  0
 18146  1  0  0  0  0
 19147  1  0  0  0  0
 20148  1  0  0  0  0
 21149  1  0  0  0  0
 22150  1  0  0  0  0
 22151  1  0  0  0  0
 23152  1  0  0  0  0
 26153  1  0  0  0  0
 26154  1  0  0  0  0
 27155  1  0  0  0  0
 27156  1  0  0  0  0
 27157  1  0  0  0  0
 31158  1  0  0  0  0
 37159  1  0  0  0  0
 38160  1  0  0  0  0
 39161  1  0  0  0  0
 41162  1  0  0  0  0
 41163  1  0  0  0  0
 42164  1  0  0  0  0
 42165  1  0  0  0  0
 42166  1  0  0  0  0
 43167  1  0  0  0  0
 59168  1  0  0  0  0
 60169  1  0  0  0  0
 61170  1  0  0  0  0
 63171  1  0  0  0  0
 63172  1  0  0  0  0
 64173  1  0  0  0  0
 64174  1  0  0  0  0
 64175  1  0  0  0  0
 65176  1  0  0  0  0
 77177  1  0  0  0  0
 77178  1  0  0  0  0
 78179  1  0  0  0  0
 78180  1  0  0  0  0
 78181  1  0  0  0  0
 79182  1  0  0  0  0
 79183  1  0  0  0  0
 80184  1  0  0  0  0
 80185  1  0  0  0  0
 80186  1  0  0  0  0
 85187  1  0  0  0  0
 86188  1  0  0  0  0
 88189  1  0  0  0  0
 88190  1  0  0  0  0
 88191  1  0  0  0  0
 89192  1  0  0  0  0
 90193  1  0  0  0  0
 92194  1  0  0  0  0
 93195  1  0  0  0  0
 95196  1  0  0  0  0
 95197  1  0  0  0  0
 95198  1  0  0  0  0
 96199  1  0  0  0  0
 97200  1  0  0  0  0
104201  1  0  0  0  0
105202  1  0  0  0  0
107203  1  0  0  0  0
107204  1  0  0  0  0
107205  1  0  0  0  0
108206  1  0  0  0  0
109207  1  0  0  0  0
111208  1  0  0  0  0
112209  1  0  0  0  0
114210  1  0  0  0  0
114211  1  0  0  0  0
114212  1  0  0  0  0
115213  1  0  0  0  0
116214  1  0  0  0  0
119215  1  0  0  0  0
124216  1  0  0  0  0
127217  1  0  0  0  0
135218  1  0  0  0  0
136219  1  0  0  0  0
137220  1  0  0  0  0
138221  1  0  0  0  0
139222  1  0  0  0  0
140223  1  0  0  0  0
140224  1  0  0  0  0
141225  1  0  0  0  0
M  END
