
  xtb     02092201473D
 energy: -293.750666510742 gnorm: 0.000268960863 xtb: 6.4.1 (unknown)
166186  0     0  0            999 V2000
   -3.0317    8.2026   -4.3615 C   0  0  0  0  0  0  0  0  0  0  0  0
   -3.9336    8.4046   -3.3670 C   0  0  0  0  0  0  0  0  0  0  0  0
   -4.3686    7.3677   -2.3915 C   0  0  0  0  0  0  0  0  0  0  0  0
   -4.0366    6.2033   -2.3327 O   0  0  0  0  0  0  0  0  0  0  0  0
   -5.1902    8.0783   -1.3945 C   0  0  0  0  0  0  0  0  0  0  0  0
   -5.8022    7.5179   -0.2755 C   0  0  0  0  0  0  0  0  0  0  0  0
   -6.4675    8.4245    0.5127 C   0  0  0  0  0  0  0  0  0  0  0  0
   -6.5139    9.7938    0.2155 C   0  0  0  0  0  0  0  0  0  0  0  0
   -5.9164   10.3593   -0.8851 C   0  0  0  0  0  0  0  0  0  0  0  0
   -5.2371    9.4517   -1.7050 C   0  0  0  0  0  0  0  0  0  0  0  0
   -4.4870    9.6779   -2.9364 C   0  0  0  0  0  0  0  0  0  0  0  0
   -4.3814   10.8714   -3.6002 C   0  0  0  0  0  0  0  0  0  0  0  0
   -4.9486   12.0857   -3.1601 C   0  0  0  0  0  0  0  0  0  0  0  0
   -5.3751   13.1093   -2.8619 N   0  0  0  0  0  0  0  0  0  0  0  0
   -3.7078   11.0633   -4.8253 C   0  0  0  0  0  0  0  0  0  0  0  0
   -3.1922   11.3063   -5.8224 N   0  0  0  0  0  0  0  0  0  0  0  0
   -7.3224   10.1139    1.4480 C   0  0  0  0  0  0  0  0  0  0  0  0
   -6.5808   10.7447    2.6528 C   0  0  0  0  0  0  0  0  0  0  0  0
   -5.1440   10.2950    2.5576 C   0  0  0  0  0  0  0  0  0  0  0  0
   -5.1057    8.9989    2.8365 C   0  0  0  0  0  0  0  0  0  0  0  0
   -6.5166    8.5486    3.1249 C   0  0  0  0  0  0  0  0  0  0  0  0
   -7.0790    9.8218    3.7766 C   0  0  0  0  0  0  0  0  0  0  0  0
   -7.2756    8.5881    1.7753 C   0  0  0  0  0  0  0  0  0  0  0  0
   -2.6031    6.9096   -4.8158 C   0  0  0  0  0  0  0  0  0  0  0  0
   -3.4958    5.8267   -4.9626 C   0  0  0  0  0  0  0  0  0  0  0  0
   -4.8312    5.7651   -4.8714 N   0  0  0  0  0  0  0  0  0  0  0  0
   -5.1039    4.5072   -5.0669 N   0  0  0  0  0  0  0  0  0  0  0  0
   -6.4445    4.0058   -4.9906 C   0  0  0  0  0  0  0  0  0  0  0  0
   -6.7105    3.4532   -3.5939 C   0  0  0  0  0  0  0  0  0  0  0  0
   -4.1018    3.7107   -5.2890 N   0  0  0  0  0  0  0  0  0  0  0  0
   -3.0292    4.5134   -5.2599 C   0  0  0  0  0  0  0  0  0  0  0  0
   -1.6529    4.2474   -5.4350 C   0  0  0  0  0  0  0  0  0  0  0  0
   -0.8106    5.3503   -5.3660 C   0  0  0  0  0  0  0  0  0  0  0  0
   -1.2702    6.6368   -5.0971 C   0  0  0  0  0  0  0  0  0  0  0  0
   -1.1532    2.9032   -5.5454 C   0  0  0  0  0  0  0  0  0  0  0  0
   -1.7627    1.7740   -6.0599 C   0  0  0  0  0  0  0  0  0  0  0  0
   -2.9719    1.8010   -6.8786 C   0  0  0  0  0  0  0  0  0  0  0  0
   -3.9641    0.8395   -6.7154 C   0  0  0  0  0  0  0  0  0  0  0  0
   -5.1212    0.9110   -7.4670 C   0  0  0  0  0  0  0  0  0  0  0  0
   -5.3011    1.9347   -8.3809 C   0  0  0  0  0  0  0  0  0  0  0  0
   -4.3093    2.8883   -8.5752 C   0  0  0  0  0  0  0  0  0  0  0  0
   -4.5123    4.0366   -9.5220 C   0  0  0  0  0  0  0  0  0  0  0  0
   -5.0103    5.2669   -8.7601 C   0  0  0  0  0  0  0  0  0  0  0  0
   -3.1458    2.8031   -7.8286 C   0  0  0  0  0  0  0  0  0  0  0  0
   -1.0420    0.6074   -5.7238 C   0  0  0  0  0  0  0  0  0  0  0  0
   -1.3477   -1.0979   -5.9679 S   0  0  0  0  0  0  0  0  0  0  0  0
    0.0496   -1.4663   -5.0125 C   0  0  0  0  0  0  0  0  0  0  0  0
    0.6931   -2.5772   -4.4425 C   0  0  0  0  0  0  0  0  0  0  0  0
    0.4367   -3.9603   -4.5610 C   0  0  0  0  0  0  0  0  0  0  0  0
    1.2250   -4.8813   -3.7942 C   0  0  0  0  0  0  0  0  0  0  0  0
    0.8853   -6.1420   -4.0118 N   0  0  0  0  0  0  0  0  0  0  0  0
   -0.3230   -6.1680   -5.0900 S   0  0  0  0  0  0  0  0  0  0  0  0
   -0.4626   -4.5711   -5.3163 N   0  0  0  0  0  0  0  0  0  0  0  0
    2.1746   -4.3699   -2.8829 C   0  0  0  0  0  0  0  0  0  0  0  0
    2.9007   -5.0052   -1.8643 C   0  0  0  0  0  0  0  0  0  0  0  0
    3.0793   -6.5793   -1.1641 S   0  0  0  0  0  0  0  0  0  0  0  0
    4.0195   -5.8718    0.1332 C   0  0  0  0  0  0  0  0  0  0  0  0
    4.5759   -6.3999    1.3128 C   0  0  0  0  0  0  0  0  0  0  0  0
    4.5653   -7.8249    1.6432 C   0  0  0  0  0  0  0  0  0  0  0  0
    5.7164   -8.4480    2.1228 C   0  0  0  0  0  0  0  0  0  0  0  0
    5.7046   -9.8022    2.3928 C   0  0  0  0  0  0  0  0  0  0  0  0
    4.5549  -10.5463    2.1874 C   0  0  0  0  0  0  0  0  0  0  0  0
    3.4013   -9.9440    1.7015 C   0  0  0  0  0  0  0  0  0  0  0  0
    2.1396  -10.7353    1.5121 C   0  0  0  0  0  0  0  0  0  0  0  0
    1.2829  -10.6864    2.7789 C   0  0  0  0  0  0  0  0  0  0  0  0
    3.4184   -8.5834    1.4329 C   0  0  0  0  0  0  0  0  0  0  0  0
    5.1889   -5.4066    2.0642 C   0  0  0  0  0  0  0  0  0  0  0  0
    5.1487   -3.8401    1.2755 S   0  0  0  0  0  0  0  0  0  0  0  0
    4.2154   -4.4950   -0.0188 C   0  0  0  0  0  0  0  0  0  0  0  0
    3.5683   -4.0023   -1.1573 C   0  0  0  0  0  0  0  0  0  0  0  0
    3.3170   -2.7817   -1.7217 N   0  0  0  0  0  0  0  0  0  0  0  0
    2.4383   -2.9729   -2.7739 C   0  0  0  0  0  0  0  0  0  0  0  0
    1.7498   -2.0742   -3.6305 C   0  0  0  0  0  0  0  0  0  0  0  0
    1.7801   -0.6924   -3.7638 N   0  0  0  0  0  0  0  0  0  0  0  0
    0.7381   -0.3340   -4.5762 C   0  0  0  0  0  0  0  0  0  0  0  0
    0.1178    0.8519   -4.9871 C   0  0  0  0  0  0  0  0  0  0  0  0
    0.3559    2.5403   -4.7220 S   0  0  0  0  0  0  0  0  0  0  0  0
    2.8686    0.2412   -3.5690 C   0  0  0  0  0  0  0  0  0  0  0  0
    4.1401   -0.2285   -4.2712 C   0  0  0  0  0  0  0  0  0  0  0  0
    3.6746   -1.5850   -0.9965 C   0  0  0  0  0  0  0  0  0  0  0  0
    2.4638   -0.9702   -0.2982 C   0  0  0  0  0  0  0  0  0  0  0  0
    5.6707   -5.4264    3.4097 C   0  0  0  0  0  0  0  0  0  0  0  0
    6.5820   -4.4413    3.8498 C   0  0  0  0  0  0  0  0  0  0  0  0
    7.2284   -3.4861    3.1677 N   0  0  0  0  0  0  0  0  0  0  0  0
    7.9339   -2.8688    4.0708 N   0  0  0  0  0  0  0  0  0  0  0  0
    8.7498   -1.7365    3.7391 C   0  0  0  0  0  0  0  0  0  0  0  0
    7.8698   -0.5268    3.4419 C   0  0  0  0  0  0  0  0  0  0  0  0
    7.8322   -3.3033    5.2967 N   0  0  0  0  0  0  0  0  0  0  0  0
    6.9731   -4.3267    5.2131 C   0  0  0  0  0  0  0  0  0  0  0  0
    6.3861   -5.1399    6.2084 C   0  0  0  0  0  0  0  0  0  0  0  0
    5.5205   -6.1298    5.7384 C   0  0  0  0  0  0  0  0  0  0  0  0
    5.1987   -6.2894    4.3988 C   0  0  0  0  0  0  0  0  0  0  0  0
    6.6792   -4.9226    7.5851 C   0  0  0  0  0  0  0  0  0  0  0  0
    5.8479   -5.1202    8.6473 C   0  0  0  0  0  0  0  0  0  0  0  0
    6.3990   -5.2309   10.0199 C   0  0  0  0  0  0  0  0  0  0  0  0
    7.5276   -4.9970   10.3742 O   0  0  0  0  0  0  0  0  0  0  0  0
    5.2664   -5.7348   10.8432 C   0  0  0  0  0  0  0  0  0  0  0  0
    4.1038   -5.8054   10.0534 C   0  0  0  0  0  0  0  0  0  0  0  0
    2.9137   -6.2729   10.5832 C   0  0  0  0  0  0  0  0  0  0  0  0
    2.9022   -6.6626   11.9146 C   0  0  0  0  0  0  0  0  0  0  0  0
    1.7683   -7.1261   12.4466 F   0  0  0  0  0  0  0  0  0  0  0  0
    4.0392   -6.5873   12.7158 C   0  0  0  0  0  0  0  0  0  0  0  0
    3.9845   -6.9641   13.9964 F   0  0  0  0  0  0  0  0  0  0  0  0
    5.2378   -6.1178   12.1723 C   0  0  0  0  0  0  0  0  0  0  0  0
    6.3192   -6.0512   12.9422 F   0  0  0  0  0  0  0  0  0  0  0  0
    4.4157   -5.2939    8.7172 C   0  0  0  0  0  0  0  0  0  0  0  0
    3.4865   -4.8187    7.8270 C   0  0  0  0  0  0  0  0  0  0  0  0
    2.0933   -4.9468    7.9973 C   0  0  0  0  0  0  0  0  0  0  0  0
    0.9519   -5.0443    8.0741 N   0  0  0  0  0  0  0  0  0  0  0  0
    3.7953   -4.0509    6.6843 C   0  0  0  0  0  0  0  0  0  0  0  0
    3.9515   -3.3559    5.7839 N   0  0  0  0  0  0  0  0  0  0  0  0
   -2.5510    9.0541   -4.8273 H   0  0  0  0  0  0  0  0  0  0  0  0
   -5.7329    6.4591   -0.0794 H   0  0  0  0  0  0  0  0  0  0  0  0
   -5.9569   11.4149   -1.0960 H   0  0  0  0  0  0  0  0  0  0  0  0
   -8.2954   10.5698    1.2760 H   0  0  0  0  0  0  0  0  0  0  0  0
   -6.7422   11.8125    2.7728 H   0  0  0  0  0  0  0  0  0  0  0  0
   -4.3359   10.9331    2.2512 H   0  0  0  0  0  0  0  0  0  0  0  0
   -4.2595    8.3375    2.8091 H   0  0  0  0  0  0  0  0  0  0  0  0
   -6.6203    7.6167    3.6746 H   0  0  0  0  0  0  0  0  0  0  0  0
   -8.1630    9.8126    3.8825 H   0  0  0  0  0  0  0  0  0  0  0  0
   -6.6173   10.0417    4.7380 H   0  0  0  0  0  0  0  0  0  0  0  0
   -8.2187    8.0462    1.8133 H   0  0  0  0  0  0  0  0  0  0  0  0
   -7.1159    4.8371   -5.2131 H   0  0  0  0  0  0  0  0  0  0  0  0
   -6.5458    3.2189   -5.7418 H   0  0  0  0  0  0  0  0  0  0  0  0
   -6.5381    4.2275   -2.8500 H   0  0  0  0  0  0  0  0  0  0  0  0
   -6.0414    2.6205   -3.3928 H   0  0  0  0  0  0  0  0  0  0  0  0
   -7.7380    3.1092   -3.5176 H   0  0  0  0  0  0  0  0  0  0  0  0
    0.2505    5.1979   -5.5063 H   0  0  0  0  0  0  0  0  0  0  0  0
   -0.5507    7.4399   -5.0276 H   0  0  0  0  0  0  0  0  0  0  0  0
   -3.8405    0.0569   -5.9831 H   0  0  0  0  0  0  0  0  0  0  0  0
   -5.8941    0.1681   -7.3323 H   0  0  0  0  0  0  0  0  0  0  0  0
   -6.2159    1.9925   -8.9540 H   0  0  0  0  0  0  0  0  0  0  0  0
   -3.5701    4.2800  -10.0172 H   0  0  0  0  0  0  0  0  0  0  0  0
   -5.2419    3.7664  -10.2877 H   0  0  0  0  0  0  0  0  0  0  0  0
   -4.2917    5.5587   -7.9968 H   0  0  0  0  0  0  0  0  0  0  0  0
   -5.9592    5.0528   -8.2721 H   0  0  0  0  0  0  0  0  0  0  0  0
   -5.1509    6.1055   -9.4378 H   0  0  0  0  0  0  0  0  0  0  0  0
   -2.3622    3.5328   -7.9799 H   0  0  0  0  0  0  0  0  0  0  0  0
    6.6164   -7.8689    2.2685 H   0  0  0  0  0  0  0  0  0  0  0  0
    6.5993  -10.2831    2.7601 H   0  0  0  0  0  0  0  0  0  0  0  0
    4.5551  -11.6058    2.3990 H   0  0  0  0  0  0  0  0  0  0  0  0
    2.3854  -11.7740    1.2835 H   0  0  0  0  0  0  0  0  0  0  0  0
    1.5703  -10.3253    0.6759 H   0  0  0  0  0  0  0  0  0  0  0  0
    1.0141   -9.6592    3.0155 H   0  0  0  0  0  0  0  0  0  0  0  0
    1.8301  -11.1002    3.6233 H   0  0  0  0  0  0  0  0  0  0  0  0
    0.3698  -11.2607    2.6423 H   0  0  0  0  0  0  0  0  0  0  0  0
    2.5233   -8.1032    1.0657 H   0  0  0  0  0  0  0  0  0  0  0  0
    3.0397    0.4286   -2.5085 H   0  0  0  0  0  0  0  0  0  0  0  0
    2.5439    1.1874   -4.0092 H   0  0  0  0  0  0  0  0  0  0  0  0
    4.9412    0.4870   -4.1050 H   0  0  0  0  0  0  0  0  0  0  0  0
    4.4562   -1.2030   -3.9061 H   0  0  0  0  0  0  0  0  0  0  0  0
    3.9648   -0.3101   -5.3415 H   0  0  0  0  0  0  0  0  0  0  0  0
    4.4073   -1.8864   -0.2438 H   0  0  0  0  0  0  0  0  0  0  0  0
    4.1674   -0.8733   -1.6577 H   0  0  0  0  0  0  0  0  0  0  0  0
    1.6746   -0.7380   -1.0094 H   0  0  0  0  0  0  0  0  0  0  0  0
    2.0666   -1.6695    0.4336 H   0  0  0  0  0  0  0  0  0  0  0  0
    2.7540   -0.0593    0.2182 H   0  0  0  0  0  0  0  0  0  0  0  0
    9.4000   -1.5504    4.5950 H   0  0  0  0  0  0  0  0  0  0  0  0
    9.3482   -1.9919    2.8610 H   0  0  0  0  0  0  0  0  0  0  0  0
    8.4890    0.3237    3.1719 H   0  0  0  0  0  0  0  0  0  0  0  0
    7.1980   -0.7539    2.6178 H   0  0  0  0  0  0  0  0  0  0  0  0
    7.2773   -0.2673    4.3157 H   0  0  0  0  0  0  0  0  0  0  0  0
    5.0885   -6.8166    6.4527 H   0  0  0  0  0  0  0  0  0  0  0  0
    4.5101   -7.0723    4.1216 H   0  0  0  0  0  0  0  0  0  0  0  0
    7.6832   -4.5850    7.8183 H   0  0  0  0  0  0  0  0  0  0  0  0
    2.0063   -6.3522   10.0075 H   0  0  0  0  0  0  0  0  0  0  0  0
  1  2  2  0  0  0  0
  2  3  1  0  0  0  0
  3  4  2  0  0  0  0
  3  5  1  0  0  0  0
  5  6  2  0  0  0  0
  6  7  1  0  0  0  0
  7  8  2  0  0  0  0
  8  9  1  0  0  0  0
  9 10  2  0  0  0  0
 10 11  1  0  0  0  0
 11 12  2  0  0  0  0
 12 13  1  0  0  0  0
 13 14  3  0  0  0  0
 12 15  1  0  0  0  0
 15 16  3  0  0  0  0
  8 17  1  0  0  0  0
 17 18  1  0  0  0  0
 18 19  1  0  0  0  0
 19 20  2  0  0  0  0
 20 21  1  0  0  0  0
 21 22  1  0  0  0  0
 21 23  1  0  0  0  0
  1 24  1  0  0  0  0
 24 25  1  0  0  0  0
 25 26  2  0  0  0  0
 26 27  1  0  0  0  0
 27 28  1  0  0  0  0
 28 29  1  0  0  0  0
 27 30  1  0  0  0  0
 30 31  2  0  0  0  0
 31 32  1  0  0  0  0
 32 33  2  0  0  0  0
 33 34  1  0  0  0  0
 32 35  1  0  0  0  0
 35 36  2  0  0  0  0
 36 37  1  0  0  0  0
 37 38  2  0  0  0  0
 38 39  1  0  0  0  0
 39 40  2  0  0  0  0
 40 41  1  0  0  0  0
 41 42  1  0  0  0  0
 42 43  1  0  0  0  0
 41 44  2  0  0  0  0
 36 45  1  0  0  0  0
 45 46  1  0  0  0  0
 46 47  1  0  0  0  0
 47 48  1  0  0  0  0
 48 49  1  0  0  0  0
 49 50  1  0  0  0  0
 50 51  2  0  0  0  0
 51 52  1  0  0  0  0
 52 53  1  0  0  0  0
 50 54  1  0  0  0  0
 54 55  1  0  0  0  0
 55 56  1  0  0  0  0
 56 57  1  0  0  0  0
 57 58  1  0  0  0  0
 58 59  1  0  0  0  0
 59 60  2  0  0  0  0
 60 61  1  0  0  0  0
 61 62  2  0  0  0  0
 62 63  1  0  0  0  0
 63 64  1  0  0  0  0
 64 65  1  0  0  0  0
 63 66  2  0  0  0  0
 58 67  2  0  0  0  0
 67 68  1  0  0  0  0
 68 69  1  0  0  0  0
 69 70  1  0  0  0  0
 70 71  1  0  0  0  0
 71 72  1  0  0  0  0
 72 73  1  0  0  0  0
 73 74  1  0  0  0  0
 74 75  1  0  0  0  0
 75 76  1  0  0  0  0
 76 77  1  0  0  0  0
 74 78  1  0  0  0  0
 78 79  1  0  0  0  0
 71 80  1  0  0  0  0
 80 81  1  0  0  0  0
 67 82  1  0  0  0  0
 82 83  1  0  0  0  0
 83 84  2  0  0  0  0
 84 85  1  0  0  0  0
 85 86  1  0  0  0  0
 86 87  1  0  0  0  0
 85 88  1  0  0  0  0
 88 89  2  0  0  0  0
 89 90  1  0  0  0  0
 90 91  2  0  0  0  0
 91 92  1  0  0  0  0
 90 93  1  0  0  0  0
 93 94  2  0  0  0  0
 94 95  1  0  0  0  0
 95 96  2  0  0  0  0
 95 97  1  0  0  0  0
 97 98  2  0  0  0  0
 98 99  1  0  0  0  0
 99100  2  0  0  0  0
100101  1  0  0  0  0
100102  1  0  0  0  0
102103  1  0  0  0  0
102104  2  0  0  0  0
104105  1  0  0  0  0
 98106  1  0  0  0  0
106107  2  0  0  0  0
107108  1  0  0  0  0
108109  3  0  0  0  0
107110  1  0  0  0  0
110111  3  0  0  0  0
 11  2  1  0  0  0  0
 23 17  1  0  0  0  0
 34 24  2  0  0  0  0
 77 35  1  0  0  0  0
 92 82  2  0  0  0  0
106 94  1  0  0  0  0
 10  5  1  0  0  0  0
 22 18  1  0  0  0  0
 31 25  1  0  0  0  0
 44 37  1  0  0  0  0
 76 45  2  0  0  0  0
 89 83  1  0  0  0  0
104 97  1  0  0  0  0
 23  7  1  0  0  0  0
 75 47  2  0  0  0  0
 73 48  2  0  0  0  0
 53 49  2  0  0  0  0
 72 54  2  0  0  0  0
 70 55  2  0  0  0  0
 69 57  2  0  0  0  0
 66 59  1  0  0  0  0
  1112  1  0  0  0  0
  6113  1  0  0  0  0
  9114  1  0  0  0  0
 17115  1  0  0  0  0
 18116  1  0  0  0  0
 19117  1  0  0  0  0
 20118  1  0  0  0  0
 21119  1  0  0  0  0
 22120  1  0  0  0  0
 22121  1  0  0  0  0
 23122  1  0  0  0  0
 28123  1  0  0  0  0
 28124  1  0  0  0  0
 29125  1  0  0  0  0
 29126  1  0  0  0  0
 29127  1  0  0  0  0
 33128  1  0  0  0  0
 34129  1  0  0  0  0
 38130  1  0  0  0  0
 39131  1  0  0  0  0
 40132  1  0  0  0  0
 42133  1  0  0  0  0
 42134  1  0  0  0  0
 43135  1  0  0  0  0
 43136  1  0  0  0  0
 43137  1  0  0  0  0
 44138  1  0  0  0  0
 60139  1  0  0  0  0
 61140  1  0  0  0  0
 62141  1  0  0  0  0
 64142  1  0  0  0  0
 64143  1  0  0  0  0
 65144  1  0  0  0  0
 65145  1  0  0  0  0
 65146  1  0  0  0  0
 66147  1  0  0  0  0
 78148  1  0  0  0  0
 78149  1  0  0  0  0
 79150  1  0  0  0  0
 79151  1  0  0  0  0
 79152  1  0  0  0  0
 80153  1  0  0  0  0
 80154  1  0  0  0  0
 81155  1  0  0  0  0
 81156  1  0  0  0  0
 81157  1  0  0  0  0
 86158  1  0  0  0  0
 86159  1  0  0  0  0
 87160  1  0  0  0  0
 87161  1  0  0  0  0
 87162  1  0  0  0  0
 91163  1  0  0  0  0
 92164  1  0  0  0  0
 93165  1  0  0  0  0
 99166  1  0  0  0  0
M  END
