232

C          8.56000       10.98240        5.90520
C          7.33760       11.36000        6.35030
C          6.21180       10.43340        6.67320
O          6.17510        9.23070        6.53820
C          5.17440       11.27070        7.29920
C          3.93380       10.83850        7.76450
C          3.16450       11.83440        8.31420
C          3.60190       13.16380        8.40720
C          4.82040       13.60370        7.95010
C          5.61770       12.60660        7.37680
C          6.94650       12.69610        6.78310
C          7.66850       13.84650        6.61200
C          7.24930       15.12640        7.03500
N          6.98010       16.19520        7.35610
C          8.92830       13.93720        5.98140
N          9.94610       14.10380        5.47630
C          2.33690       13.61490        9.09200
C          2.38870       13.83960       10.62390
C          3.47830       12.94200       11.15540
C          3.05470       11.68890       11.05890
C          1.67100       11.71650       10.45830
C          1.14740       13.03680       11.04520
C          1.84490       12.13770        8.97820
C          8.91610        9.67540        5.40240
C          8.04020        8.93160        4.59440
C          8.42450        7.67730        4.19070
C          7.66710        6.68670        3.38020
O          6.59930        6.83020        2.83560
C          8.53420        5.47820        3.38200
C          9.73560        5.75930        4.06270
C          9.66680        7.12400        4.56690
C         10.55570        7.87730        5.31230
C         10.17720        9.15100        5.70750
C         10.70360        4.77730        4.17280
C         10.44380        3.51640        3.65780
C          9.22500        3.21190        3.04260
C          8.27370        4.23100        2.87200
C          8.90350        1.87150        2.60620
C          9.29810        0.65980        3.13460
C         10.13490        0.45680        4.32190
C          9.86470        1.12860        5.51120
C         10.64280        0.88830        6.62690
C         11.68740       -0.01870        6.56940
C         11.96030       -0.70860        5.39550
C         13.11220       -1.66840        5.31530
C         14.37750       -0.94700        4.84630
C         11.17510       -0.46410        4.27840
C          8.69870       -0.41980        2.44990
S          8.70320       -2.14600        2.72910
C          7.52010       -2.32950        1.47610
C          6.71980       -3.33420        0.90080
C          6.65770       -4.73080        1.09910
C          5.67310       -5.49460        0.38150
N          5.74850       -6.78920        0.64570
S          6.94940       -7.02970        1.70430
N          7.42000       -5.48880        1.87120
C          4.72550       -4.81520       -0.41600
C          3.52400       -5.24520       -1.00470
S          2.57360       -6.68720       -1.13910
C          1.27780       -5.74360       -1.83650
C         -0.02640       -6.07300       -2.26070
C         -0.60030       -7.41780       -2.21420
C         -0.45580       -8.20330       -1.07500
C         -1.02720       -9.46080       -1.03100
C         -1.73960       -9.94360       -2.11440
C         -1.87960       -9.17920       -3.26620
C         -2.61010       -9.71530       -4.46370
C         -1.64260      -10.43780       -5.40290
C         -1.29760       -7.92240       -3.30800
C         -0.69200       -4.96060       -2.73810
S          0.29820       -3.50860       -2.69170
C          1.60230       -4.39420       -1.98680
C          2.88530       -4.10730       -1.50440
N          3.65170       -2.99690       -1.26970
C          4.79060       -3.40690       -0.60270
C          5.87070       -2.68580       -0.03600
N          6.20040       -1.34110       -0.08530
C          7.17420       -1.12700        0.85750
C          7.84720       -0.03330        1.41610
S          7.79600        1.68310        1.25440
C          6.08470       -0.44080       -1.21280
C          7.42350       -0.27120       -1.93130
C          3.06710       -1.68070       -1.39980
C          3.00020       -1.22200       -2.85630
C         -2.05630       -4.79930       -3.12320
C         -2.55400       -3.81390       -3.92590
C         -3.96420       -3.81690       -4.03080
C         -4.77820       -2.96240       -4.79720
C         -4.20920       -1.88450       -5.58100
C         -3.22300       -1.01080       -5.20840
C         -2.91340       -0.10660       -6.23660
S         -1.80470        1.20270       -6.42600
C         -2.35360        1.48350       -8.06680
Si        -1.58920        2.89410       -9.06070
C         -1.96950        4.51300       -8.11430
C         -3.46340        4.78390       -7.97180
C         -2.39940        2.93280      -10.79300
C         -1.92940        1.82750      -11.73300
C          0.30990        2.65200       -9.14170
C          0.74820        1.19360       -9.23770
C         -3.33850        0.60940       -8.42460
C         -3.65930       -0.29290       -7.39630
S         -4.77430       -1.59930       -7.21670
C         -6.14970       -3.19420       -4.75380
C         -6.73010       -4.22500       -3.96810
C         -5.90920       -5.10680       -3.21930
C         -6.47400       -6.18740       -2.44480
S         -5.81170       -6.57230       -0.86280
C         -6.97600       -7.83040       -0.65560
C         -7.27390       -8.75390        0.35810
C         -8.32520       -9.56440        0.03460
Si        -9.06780      -10.95300        1.07980
C        -10.73960      -11.46050        0.30630
C        -11.84850      -10.42580        0.46560
C         -7.88340      -12.45670        0.99900
C         -6.43730      -12.11830        1.34250
C         -9.22180      -10.33830        2.88870
C         -9.65890       -8.88320        3.03700
S         -8.96360       -9.19520       -1.55160
C         -7.80660       -7.93430       -1.76870
C         -7.52400       -7.00290       -2.77920
C         -4.54490       -4.85890       -3.26260
S         -3.32350       -5.80070       -2.44370
C         -8.13000       -4.16200       -4.00930
C         -8.63090       -3.14740       -4.80690
S         -7.34920       -2.21770       -5.55100
C        -10.01890       -2.93930       -4.94680
C        -10.71120       -2.00080       -5.65870
C        -10.12130       -0.92860       -6.48840
O         -8.94120       -0.72690       -6.69200
C        -11.25700       -0.15920       -7.01410
C        -11.23640        0.96640       -7.84340
O        -10.03970        1.42860       -8.23300
C         -9.97400        2.55910       -9.06960
C        -12.47310        1.51950       -8.19770
C        -13.65400        0.96410       -7.73920
C        -13.67410       -0.15450       -6.91680
C        -12.46170       -0.71710       -6.55460
C        -12.15420       -1.87520       -5.71460
C        -13.08570       -2.67940       -5.11000
C        -14.48140       -2.49890       -5.21070
N        -15.62640       -2.41910       -5.24300
C        -12.81270       -3.80520       -4.30460
N        -12.69080       -4.73440       -3.63970
H          9.37420       11.69550        5.95290
H          3.64130        9.80390        7.67630
H          5.13970       14.62920        8.02940
H          1.76510       14.38610        8.58010
H          2.43720       14.88250       10.92480
H          4.43780       13.29580       11.48430
H          3.58920       10.78640       11.29030
H          1.06470       10.82690       10.60680
H          1.01970       12.99520       12.12570
H          0.22670       13.38450       10.57900
H          0.95570       11.94210        8.38230
H          7.09320        9.33650        4.27690
H         11.52250        7.48570        5.59070
H         10.85590        9.74480        6.30330
H         11.64690        4.97600        4.65880
H         11.19560        2.74660        3.73970
H          7.33480        4.03180        2.37640
H          9.04170        1.82630        5.55800
H         10.42990        1.40760        7.54980
H         12.29070       -0.20030        7.44730
H         12.87430       -2.47140        4.61520
H         13.29340       -2.11170        6.29630
H         14.63700       -0.14850        5.53810
H         15.21230       -1.64160        4.78910
H         14.22190       -0.51000        3.86230
H         11.37760       -0.99190        3.35730
H          0.08450       -7.81950       -0.22300
H         -0.92120      -10.06580       -0.14280
H         -2.19210      -10.92380       -2.06770
H         -3.08910       -8.89400       -5.00090
H         -3.38730      -10.41090       -4.14100
H         -1.16740      -11.27040       -4.88900
H         -2.17100      -10.82160       -6.27250
H         -0.86460       -9.75700       -5.74120
H         -1.38270       -7.32400       -4.20450
H          5.37120       -0.85240       -1.91850
H          5.73260        0.53270       -0.85530
H          7.28630        0.35820       -2.80640
H          7.80380       -1.23900       -2.25130
H          8.16010        0.19630       -1.28450
H          2.04460       -1.73320       -1.00840
H          3.62230       -0.97930       -0.77770
H          3.97200       -1.27650       -3.34200
H          2.64200       -0.19760       -2.90230
H          2.31250       -1.85170       -3.41410
H         -1.91850       -3.12310       -4.44970
H         -2.77780       -0.99090       -4.23060
H         -1.52600        4.45690       -7.11920
H         -1.49970        5.36030       -8.61480
H         -3.95400        3.95600       -7.46540
H         -3.92560        4.90630       -8.94810
H         -3.64020        5.68990       -7.39490
H         -2.19290        3.89770      -11.25810
H         -3.48320        2.87060      -10.68750
H         -2.11110        0.84740      -11.29900
H         -0.86460        1.92100      -11.92960
H         -2.45450        1.88120      -12.68550
H          0.70950        3.19950       -9.99630
H          0.76640        3.09320       -8.25440
H          1.83300        1.12120       -9.29720
H          0.32630        0.71660      -10.11800
H          0.41880        0.63900       -8.36280
H         -3.81570        0.61700       -9.38670
H         -6.73980       -8.82240        1.28780
H        -11.07230      -12.40340        0.74260
H        -10.59050      -11.65010       -0.75800
H        -11.54480       -9.46970        0.04700
H        -12.09120      -10.28210        1.51530
H        -12.75210      -10.74800       -0.04880
H         -8.23690      -13.23090        1.68070
H         -7.91400      -12.89020       -0.00130
H         -5.80750      -13.00410        1.28290
H         -6.04550      -11.37390        0.65370
H         -6.36410      -11.71970        2.35130
H         -9.93000      -10.97550        3.42070
H         -8.26270      -10.46500        3.39310
H        -10.63620       -8.72300        2.59080
H         -9.71510       -8.60600        4.08840
H         -8.95340       -8.21770        2.54640
H         -8.03480       -6.96400       -3.72360
H         -8.77640       -4.81250       -3.44790
H        -10.60530       -3.65150       -4.37820
H        -10.47570        2.38110      -10.02600
H        -10.40660        3.44150       -8.58760
H         -8.91310        2.72830       -9.24490
H        -12.51830        2.38900       -8.83430
H        -14.58990        1.41650       -8.03100
H        -14.61360       -0.55710       -6.57970
