211

C         -1.33200       -8.31470        0.49930
C         -2.57990       -7.79610        0.29940
C         -2.92470       -6.63020       -0.55460
O         -2.24860       -6.07530       -1.39470
C         -4.26830       -6.20410       -0.12210
C         -4.97670       -5.10360       -0.59910
C         -6.19930       -4.92390        0.00040
C         -6.67830       -5.77170        1.00880
C         -5.99480       -6.86870        1.47790
C         -4.75040       -7.07470        0.87410
C         -3.74940       -8.11330        1.10120
C         -3.91700       -9.22990        1.87730
C         -2.97130      -10.26850        2.01450
N         -2.26750      -11.16410        2.16050
C         -5.08200       -9.51630        2.61860
N         -5.99580       -9.80570        3.25080
C         -7.95400       -4.98380        1.17290
C         -8.06180       -4.02000        2.38100
C         -6.65520       -3.60000        2.72780
C         -6.21940       -2.80290        1.76140
C         -7.32240       -2.67410        0.74020
C         -8.55120       -2.75410        1.65930
C         -7.42890       -4.05000        0.03730
C         -0.15680       -8.01470       -0.22910
C          0.00540       -7.57960       -1.51910
C          1.32310       -7.19590       -1.83310
C          1.77880       -6.58780       -3.02630
C          0.95020       -6.36480       -4.18770
C          1.36210       -6.40650       -5.49530
C          0.35290       -6.10020       -6.42010
C         -0.83390       -5.79280       -5.81470
S         -2.37630       -5.36050       -6.51480
C         -1.89140       -4.77970       -8.18010
C         -1.09220       -3.49270       -8.12780
S         -0.72850       -5.89980       -4.08910
C          3.08440       -6.11080       -2.99930
C          3.96180       -6.29240       -1.90590
C          3.55670       -7.04470       -0.77980
C          4.50910       -7.33920        0.26150
C          5.84530       -7.60810        0.11030
C          6.50920       -7.87320        1.31650
C          5.68360       -7.79750        2.40410
S          6.19340       -7.98110        4.06170
C          4.60780       -8.29020        4.91640
C          4.04260       -9.66080        4.60310
S          4.05650       -7.39760        1.94310
C          2.21560       -7.41290       -0.74810
S          1.38980       -8.12190        0.60900
C          5.11760       -5.48550       -2.00810
C          5.13670       -4.69320       -3.12140
S          3.77440       -5.02160       -4.17600
C          5.93940       -3.53430       -3.33920
C          7.09990       -3.15110       -2.68630
C          7.91340       -4.06960       -1.88710
C          8.29040       -5.30990       -2.39710
C          9.00730       -6.18830       -1.60810
C          9.34230       -5.84660       -0.30860
C          8.98350       -4.61020        0.21210
C          9.29200       -4.25230        1.63690
C          8.11740       -4.62450        2.54470
C          8.27750       -3.72550       -0.59030
C          7.32860       -1.76640       -2.82700
S          8.46980       -0.64860       -2.10380
C          7.53300        0.68680       -2.70490
C          7.38670        2.07650       -2.49990
C          8.15330        3.07730       -1.85740
C          7.61450        4.41270       -1.72950
N          8.46180        5.23920       -1.14110
S          9.81390        4.42620       -0.77500
N          9.36940        2.97780       -1.34820
C          6.26560        4.65270       -2.08930
C          5.33500        5.64080       -1.70800
S          5.26440        7.12340       -0.80600
C          3.51230        7.01720       -0.79940
C          2.50510        7.75880       -0.14770
C          2.82870        9.03340        0.50350
C          2.17120       10.20250        0.12480
C          2.54630       11.41200        0.67670
C          3.57640       11.46890        1.60030
C          4.24960       10.31510        1.98020
C          5.34660       10.36470        3.00400
C          4.77980       10.14420        4.40790
C          3.86760        9.10290        1.42400
C          1.25880        7.16100       -0.28510
S          1.32640        5.75220       -1.33880
C          3.03280        5.91770       -1.50620
C          4.06990        5.15570       -2.05410
N          4.17690        3.96460       -2.71960
C          5.51800        3.63290       -2.73270
C          6.15110        2.42690       -3.10220
N          5.63250        1.33680       -3.77250
C          6.45100        0.27420       -3.48930
C          6.35120       -1.11520       -3.58150
S          5.17630       -2.20990       -4.20650
C          4.81630        1.37080       -4.96590
C          5.62500        0.97390       -6.20030
C          3.03340        3.08180       -2.79790
C          3.02330        2.07310       -1.65180
C          0.04000        7.39020        0.44830
C         -1.07890        6.55990        0.22610
O         -1.02560        5.62840       -0.78530
C         -2.01020        5.76750       -1.80870
C         -1.86740        7.07470       -2.57470
C         -2.19590        6.60540        1.05750
O         -3.17250        5.63830        0.94220
C         -2.76790        4.31460        1.27100
C         -2.56240        4.13740        2.77090
C         -2.30650        7.61090        2.03620
C         -1.20750        8.45520        2.22810
C         -0.06120        8.33220        1.48340
C         -3.44470        7.66060        2.91860
C         -4.69140        7.27530        2.56890
C         -5.15530        6.98250        1.17860
O         -4.82920        7.54550        0.16070
C         -6.23220        5.98220        1.35280
C         -6.80290        5.16950        0.37660
C         -7.73980        4.28700        0.85910
C         -8.11010        4.23500        2.21030
C         -7.57570        5.04690        3.18080
C         -6.59920        5.93440        2.71410
C         -5.76800        6.87310        3.46210
C         -5.95760        7.28370        4.75190
C         -5.12880        8.22090        5.40520
N         -4.49260        8.98260        5.98170
C         -7.02580        6.86080        5.56990
N         -7.87320        6.55060        6.27940
C         -9.08410        3.10480        1.98300
C         -8.62150        1.69770        2.41680
C         -9.53260        0.76590        1.65110
C         -9.17420        0.80990        0.37420
C         -8.01710        1.77520        0.25550
C         -7.33030        1.53040        1.60530
C         -8.66700        3.15870        0.47840
H         -1.18000       -8.94850        1.36550
H         -4.56480       -4.47610       -1.37400
H         -6.37840       -7.51290        2.25160
H         -8.87840       -5.53090        0.99880
H         -8.66620       -4.39430        3.20280
H         -6.11730       -3.95980        3.58540
H         -5.24400       -2.36600        1.64980
H         -7.25950       -1.82330        0.06640
H         -8.63520       -1.89380        2.32140
H         -9.48680       -2.89430        1.12030
H         -8.00400       -4.00190       -0.88540
H         -0.80590       -7.54550       -2.21810
H          2.35460       -6.69510       -5.79170
H          0.50800       -6.11630       -7.48310
H         -1.34780       -5.58420       -8.67290
H         -2.84200       -4.63210       -8.69200
H         -0.16520       -3.63530       -7.57640
H         -0.85030       -3.16780       -9.13780
H         -1.66820       -2.71110       -7.63800
H          6.32870       -7.65910       -0.84870
H          7.55130       -8.12350        1.38910
H          4.85160       -8.19460        5.97410
H          3.92270       -7.49200        4.63070
H          3.12310       -9.81380        5.16390
H          4.75340      -10.43680        4.87730
H          3.81570       -9.75350        3.54330
H          5.84370       -5.39790       -1.22220
H          8.01860       -5.57560       -3.40810
H          9.30280       -7.14830       -2.00600
H          9.89220       -6.54410        0.30650
H         10.18580       -4.78320        1.96900
H          9.48110       -3.17970        1.71380
H          7.21390       -4.10820        2.22700
H          8.33070       -4.34860        3.57440
H          7.92860       -5.69500        2.50760
H          7.98430       -2.76390       -0.19450
H          1.37510       10.15470       -0.60390
H          2.03710       12.31710        0.38010
H          3.86660       12.41960        2.02380
H          5.84460       11.33530        2.96510
H          6.08610        9.59140        2.78770
H          5.57520       10.17980        5.14860
H          4.04830       10.91320        4.64670
H          4.28990        9.17500        4.47090
H          4.38080        8.19760        1.71420
H          3.97040        0.68450       -4.84710
H          4.45630        2.39120       -5.10210
H          5.95210       -0.05990       -6.13340
H          5.00950        1.08370       -7.08900
H          6.49990        1.61290       -6.29920
H          3.00440        2.56160       -3.75330
H          2.14640        3.71640       -2.73310
H          3.01330        2.59220       -0.69630
H          3.90260        1.43470       -1.69130
H          2.13610        1.44990       -1.71880
H         -3.01320        5.69850       -1.37570
H         -1.83450        4.90950       -2.46230
H         -2.07920        7.91740       -1.91990
H         -2.57470        7.08990       -3.39880
H         -0.85880        7.17470       -2.96970
H         -1.85510        4.04330        0.72970
H         -3.59030        3.68480        0.92060
H         -2.31180        3.10230        2.98530
H         -3.47000        4.40010        3.31040
H         -1.75270        4.77500        3.12070
H         -1.26670        9.21190        2.99590
H          0.77930        8.96770        1.70340
H         -3.23370        7.93020        3.94620
H         -6.49740        5.24400       -0.65530
H         -7.86460        4.99900        4.21800
H        -10.12020        3.31180        2.24340
H         -8.56080        1.54900        3.49150
H        -10.35640        0.23580        2.09190
H         -9.63690        0.32060       -0.46280
H         -7.40550        1.69870       -0.63990
H         -6.55760        2.25780        1.84820
H         -6.92160        0.52390        1.68540
H         -9.42640        3.39560       -0.26450
