
  xtb     02122217503D
 energy: -329.148981535372 gnorm: 0.000907584684 xtb: 6.4.1 (unknown)
189212  0     0  0            999 V2000
    3.6682    5.0220   -7.6726 C   0  0  0  0  0  0  0  0  0  0  0  0
    4.5484    5.4514   -6.7189 C   0  0  0  0  0  0  0  0  0  0  0  0
    4.4015    5.3124   -5.2642 C   0  0  0  0  0  0  0  0  0  0  0  0
    3.5443    4.6886   -4.6620 O   0  0  0  0  0  0  0  0  0  0  0  0
    5.4927    6.0976   -4.6651 C   0  0  0  0  0  0  0  0  0  0  0  0
    5.7465    6.2782   -3.3065 C   0  0  0  0  0  0  0  0  0  0  0  0
    6.8479    7.0555   -3.0424 C   0  0  0  0  0  0  0  0  0  0  0  0
    7.6383    7.6169   -4.0546 C   0  0  0  0  0  0  0  0  0  0  0  0
    7.4015    7.4446   -5.3978 C   0  0  0  0  0  0  0  0  0  0  0  0
    6.2874    6.6520   -5.6901 C   0  0  0  0  0  0  0  0  0  0  0  0
    5.7555    6.2139   -6.9788 C   0  0  0  0  0  0  0  0  0  0  0  0
    6.3509    6.3999   -8.1984 C   0  0  0  0  0  0  0  0  0  0  0  0
    5.9373    5.8114   -9.4151 C   0  0  0  0  0  0  0  0  0  0  0  0
    5.7252    5.3397  -10.4404 N   0  0  0  0  0  0  0  0  0  0  0  0
    7.5237    7.1573   -8.4007 C   0  0  0  0  0  0  0  0  0  0  0  0
    8.4692    7.7654   -8.6344 N   0  0  0  0  0  0  0  0  0  0  0  0
    8.5735    8.2742   -3.0703 C   0  0  0  0  0  0  0  0  0  0  0  0
    8.3891    9.7897   -2.8448 C   0  0  0  0  0  0  0  0  0  0  0  0
    9.0830   10.0452   -1.5262 C   0  0  0  0  0  0  0  0  0  0  0  0
    8.3363    9.5124   -0.5674 C   0  0  0  0  0  0  0  0  0  0  0  0
    7.1251    8.8878   -1.2217 C   0  0  0  0  0  0  0  0  0  0  0  0
    6.9253    9.8608   -2.3909 C   0  0  0  0  0  0  0  0  0  0  0  0
    7.6935    7.6467   -1.9418 C   0  0  0  0  0  0  0  0  0  0  0  0
    2.5367    4.1979   -7.5499 C   0  0  0  0  0  0  0  0  0  0  0  0
    1.9709    3.4459   -6.0807 S   0  0  0  0  0  0  0  0  0  0  0  0
    0.7826    2.5259   -6.9516 C   0  0  0  0  0  0  0  0  0  0  0  0
    0.8601    2.7464   -8.3292 C   0  0  0  0  0  0  0  0  0  0  0  0
    0.2524    1.8891   -9.3569 C   0  0  0  0  0  0  0  0  0  0  0  0
   -0.2249    0.7938   -9.1070 O   0  0  0  0  0  0  0  0  0  0  0  0
    0.3539    2.4385  -10.7060 C   0  0  0  0  0  0  0  0  0  0  0  0
   -0.2862    1.9181  -11.8019 C   0  0  0  0  0  0  0  0  0  0  0  0
   -1.1242    0.6954  -11.8785 C   0  0  0  0  0  0  0  0  0  0  0  0
   -2.1601    0.7486  -12.9937 C   0  0  0  0  0  0  0  0  0  0  0  0
    0.0083    2.8943  -13.2039 S   0  0  0  0  0  0  0  0  0  0  0  0
    1.0111    3.9938  -12.3236 C   0  0  0  0  0  0  0  0  0  0  0  0
    1.6730    5.1238  -13.0238 C   0  0  0  0  0  0  0  0  0  0  0  0
    3.1438    4.8057  -13.3136 C   0  0  0  0  0  0  0  0  0  0  0  0
    1.1027    3.6225  -11.0043 C   0  0  0  0  0  0  0  0  0  0  0  0
    1.8682    4.3497   -9.9978 C   0  0  0  0  0  0  0  0  0  0  0  0
    2.4611    5.3917  -10.2301 O   0  0  0  0  0  0  0  0  0  0  0  0
    1.7864    3.7577   -8.6501 C   0  0  0  0  0  0  0  0  0  0  0  0
   -0.1476    1.7509   -6.2118 C   0  0  0  0  0  0  0  0  0  0  0  0
   -1.4660    1.4131   -6.4915 C   0  0  0  0  0  0  0  0  0  0  0  0
   -2.2168    1.8618   -7.6615 C   0  0  0  0  0  0  0  0  0  0  0  0
   -3.0549    0.9792   -8.3354 C   0  0  0  0  0  0  0  0  0  0  0  0
   -3.7239    1.3965   -9.4714 C   0  0  0  0  0  0  0  0  0  0  0  0
   -3.5537    2.6826   -9.9511 C   0  0  0  0  0  0  0  0  0  0  0  0
   -2.7317    3.5823   -9.2819 C   0  0  0  0  0  0  0  0  0  0  0  0
   -2.5631    4.9886   -9.7820 C   0  0  0  0  0  0  0  0  0  0  0  0
   -3.6081    5.9136   -9.1558 C   0  0  0  0  0  0  0  0  0  0  0  0
   -2.0918    3.1689   -8.1253 C   0  0  0  0  0  0  0  0  0  0  0  0
   -2.0204    0.6398   -5.4557 C   0  0  0  0  0  0  0  0  0  0  0  0
   -3.5949   -0.0893   -5.2368 S   0  0  0  0  0  0  0  0  0  0  0  0
   -3.0936   -0.6514   -3.6790 C   0  0  0  0  0  0  0  0  0  0  0  0
   -3.5895   -1.4128   -2.6109 C   0  0  0  0  0  0  0  0  0  0  0  0
   -4.7911   -2.1432   -2.4817 C   0  0  0  0  0  0  0  0  0  0  0  0
   -4.9924   -2.9418   -1.3085 C   0  0  0  0  0  0  0  0  0  0  0  0
   -6.1312   -3.6153   -1.3433 N   0  0  0  0  0  0  0  0  0  0  0  0
   -6.8877   -3.2703   -2.7332 S   0  0  0  0  0  0  0  0  0  0  0  0
   -5.7897   -2.2483   -3.3439 N   0  0  0  0  0  0  0  0  0  0  0  0
   -4.0377   -2.8792   -0.2697 C   0  0  0  0  0  0  0  0  0  0  0  0
   -4.0661   -3.4101    1.0269 C   0  0  0  0  0  0  0  0  0  0  0  0
   -5.0837   -4.3961    2.0244 S   0  0  0  0  0  0  0  0  0  0  0  0
   -3.9985   -4.0961    3.3674 C   0  0  0  0  0  0  0  0  0  0  0  0
   -4.0428   -4.4650    4.7128 C   0  0  0  0  0  0  0  0  0  0  0  0
   -5.1742   -5.2285    5.2511 C   0  0  0  0  0  0  0  0  0  0  0  0
   -5.9812   -4.6900    6.2514 C   0  0  0  0  0  0  0  0  0  0  0  0
   -7.0851   -5.3921    6.6932 C   0  0  0  0  0  0  0  0  0  0  0  0
   -7.3998   -6.6204    6.1370 C   0  0  0  0  0  0  0  0  0  0  0  0
   -6.6165   -7.1617    5.1264 C   0  0  0  0  0  0  0  0  0  0  0  0
   -6.9937   -8.4544    4.4636 C   0  0  0  0  0  0  0  0  0  0  0  0
   -7.8415   -8.1773    3.2201 C   0  0  0  0  0  0  0  0  0  0  0  0
   -5.5066   -6.4540    4.6885 C   0  0  0  0  0  0  0  0  0  0  0  0
   -2.9653   -3.9375    5.4328 C   0  0  0  0  0  0  0  0  0  0  0  0
   -1.9384   -2.9226    4.4230 S   0  0  0  0  0  0  0  0  0  0  0  0
   -2.9055   -3.2853    3.0405 C   0  0  0  0  0  0  0  0  0  0  0  0
   -2.9460   -2.9057    1.6947 C   0  0  0  0  0  0  0  0  0  0  0  0
   -2.2183   -2.1112    0.8528 N   0  0  0  0  0  0  0  0  0  0  0  0
   -2.8554   -2.0846   -0.3725 C   0  0  0  0  0  0  0  0  0  0  0  0
   -2.5770   -1.4340   -1.6067 C   0  0  0  0  0  0  0  0  0  0  0  0
   -1.4779   -0.7504   -2.0952 N   0  0  0  0  0  0  0  0  0  0  0  0
   -1.7899   -0.2784   -3.3404 C   0  0  0  0  0  0  0  0  0  0  0  0
   -1.1660    0.4413   -4.3657 C   0  0  0  0  0  0  0  0  0  0  0  0
    0.3734    1.1709   -4.6370 S   0  0  0  0  0  0  0  0  0  0  0  0
   -0.1146   -0.6600   -1.6272 C   0  0  0  0  0  0  0  0  0  0  0  0
    0.2357    0.7464   -1.1393 C   0  0  0  0  0  0  0  0  0  0  0  0
   -1.1272   -1.3390    1.3991 C   0  0  0  0  0  0  0  0  0  0  0  0
    0.1255   -2.1890    1.6103 C   0  0  0  0  0  0  0  0  0  0  0  0
   -2.6473   -4.2450    6.7780 C   0  0  0  0  0  0  0  0  0  0  0  0
   -3.4192   -5.6238    7.5160 S   0  0  0  0  0  0  0  0  0  0  0  0
   -2.5787   -5.3817    9.0266 C   0  0  0  0  0  0  0  0  0  0  0  0
   -1.7852   -4.2530    8.9650 C   0  0  0  0  0  0  0  0  0  0  0  0
   -1.1754   -3.6194   10.1544 C   0  0  0  0  0  0  0  0  0  0  0  0
   -1.6038   -3.7687   11.2826 O   0  0  0  0  0  0  0  0  0  0  0  0
   -0.0815   -2.7195    9.8024 C   0  0  0  0  0  0  0  0  0  0  0  0
    0.8899   -2.2896   10.6643 C   0  0  0  0  0  0  0  0  0  0  0  0
    1.0416   -2.5909   12.1101 C   0  0  0  0  0  0  0  0  0  0  0  0
    0.2713   -1.5737   12.9569 C   0  0  0  0  0  0  0  0  0  0  0  0
    2.0134   -1.2533    9.8489 S   0  0  0  0  0  0  0  0  0  0  0  0
    1.1619   -1.3834    8.3479 C   0  0  0  0  0  0  0  0  0  0  0  0
    1.6284   -0.6254    7.1583 C   0  0  0  0  0  0  0  0  0  0  0  0
    0.8718    0.7002    7.0305 C   0  0  0  0  0  0  0  0  0  0  0  0
    0.0703   -2.2073    8.4754 C   0  0  0  0  0  0  0  0  0  0  0  0
   -0.8339   -2.5614    7.3840 C   0  0  0  0  0  0  0  0  0  0  0  0
   -0.7615   -2.0235    6.2825 O   0  0  0  0  0  0  0  0  0  0  0  0
   -1.7594   -3.6447    7.6866 C   0  0  0  0  0  0  0  0  0  0  0  0
   -2.7873   -6.3043   10.0794 C   0  0  0  0  0  0  0  0  0  0  0  0
   -1.8899   -6.6402   11.0502 C   0  0  0  0  0  0  0  0  0  0  0  0
   -0.4369   -6.3373   11.0288 C   0  0  0  0  0  0  0  0  0  0  0  0
    0.1883   -5.6820   10.2171 O   0  0  0  0  0  0  0  0  0  0  0  0
    0.1368   -7.0609   12.1730 C   0  0  0  0  0  0  0  0  0  0  0  0
    1.4510   -7.0890   12.5747 C   0  0  0  0  0  0  0  0  0  0  0  0
    1.7681   -7.8265   13.7187 C   0  0  0  0  0  0  0  0  0  0  0  0
    3.0319   -8.0128   14.3470 C   0  0  0  0  0  0  0  0  0  0  0  0
    2.9566   -8.7990   15.4428 C   0  0  0  0  0  0  0  0  0  0  0  0
    1.3567   -9.3618   15.7839 S   0  0  0  0  0  0  0  0  0  0  0  0
    0.7367   -8.5131   14.4033 C   0  0  0  0  0  0  0  0  0  0  0  0
   -0.5923   -8.4859   13.9960 C   0  0  0  0  0  0  0  0  0  0  0  0
   -0.8910   -7.7463   12.8675 C   0  0  0  0  0  0  0  0  0  0  0  0
   -2.1580   -7.4928   12.1931 C   0  0  0  0  0  0  0  0  0  0  0  0
   -3.3869   -7.9294   12.6164 C   0  0  0  0  0  0  0  0  0  0  0  0
   -4.6202   -7.6345   11.9983 C   0  0  0  0  0  0  0  0  0  0  0  0
   -5.6659   -7.4439   11.5634 N   0  0  0  0  0  0  0  0  0  0  0  0
   -3.5880   -8.7381   13.7543 C   0  0  0  0  0  0  0  0  0  0  0  0
   -3.8152   -9.3991   14.6650 N   0  0  0  0  0  0  0  0  0  0  0  0
    3.8515    5.3407   -8.6922 H   0  0  0  0  0  0  0  0  0  0  0  0
    5.1144    5.8229   -2.5601 H   0  0  0  0  0  0  0  0  0  0  0  0
    8.0212    7.8799   -6.1636 H   0  0  0  0  0  0  0  0  0  0  0  0
    9.6185    7.9789   -3.1415 H   0  0  0  0  0  0  0  0  0  0  0  0
    8.6855   10.4139   -3.6832 H   0  0  0  0  0  0  0  0  0  0  0  0
   10.0412   10.5218   -1.4352 H   0  0  0  0  0  0  0  0  0  0  0  0
    8.5464    9.4552    0.4846 H   0  0  0  0  0  0  0  0  0  0  0  0
    6.2696    8.6914   -0.5810 H   0  0  0  0  0  0  0  0  0  0  0  0
    6.2120    9.5168   -3.1376 H   0  0  0  0  0  0  0  0  0  0  0  0
    6.6472   10.8579   -2.0535 H   0  0  0  0  0  0  0  0  0  0  0  0
    8.1525    6.9322   -1.2608 H   0  0  0  0  0  0  0  0  0  0  0  0
   -0.4647   -0.1660  -12.0305 H   0  0  0  0  0  0  0  0  0  0  0  0
   -1.6041    0.5523  -10.9070 H   0  0  0  0  0  0  0  0  0  0  0  0
   -2.8216    1.6007  -12.8563 H   0  0  0  0  0  0  0  0  0  0  0  0
   -2.7589   -0.1582  -12.9902 H   0  0  0  0  0  0  0  0  0  0  0  0
   -1.6769    0.8396  -13.9647 H   0  0  0  0  0  0  0  0  0  0  0  0
    1.1475    5.3274  -13.9591 H   0  0  0  0  0  0  0  0  0  0  0  0
    1.6308    6.0088  -12.3857 H   0  0  0  0  0  0  0  0  0  0  0  0
    3.2316    3.8831  -13.8834 H   0  0  0  0  0  0  0  0  0  0  0  0
    3.6965    4.7054  -12.3839 H   0  0  0  0  0  0  0  0  0  0  0  0
    3.5860    5.6150  -13.8878 H   0  0  0  0  0  0  0  0  0  0  0  0
   -3.1513   -0.0378   -7.9899 H   0  0  0  0  0  0  0  0  0  0  0  0
   -4.3701    0.7074   -9.9950 H   0  0  0  0  0  0  0  0  0  0  0  0
   -4.0621    2.9960  -10.8519 H   0  0  0  0  0  0  0  0  0  0  0  0
   -2.6695    5.0072  -10.8689 H   0  0  0  0  0  0  0  0  0  0  0  0
   -1.5629    5.3515   -9.5335 H   0  0  0  0  0  0  0  0  0  0  0  0
   -3.5102    5.9154   -8.0726 H   0  0  0  0  0  0  0  0  0  0  0  0
   -4.6110    5.5760   -9.4075 H   0  0  0  0  0  0  0  0  0  0  0  0
   -3.4816    6.9310   -9.5183 H   0  0  0  0  0  0  0  0  0  0  0  0
   -1.4801    3.8731   -7.5789 H   0  0  0  0  0  0  0  0  0  0  0  0
   -5.7409   -3.7237    6.6710 H   0  0  0  0  0  0  0  0  0  0  0  0
   -7.7082   -4.9771    7.4712 H   0  0  0  0  0  0  0  0  0  0  0  0
   -8.2660   -7.1618    6.4883 H   0  0  0  0  0  0  0  0  0  0  0  0
   -6.0931   -8.9979    4.1712 H   0  0  0  0  0  0  0  0  0  0  0  0
   -7.5604   -9.0775    5.1578 H   0  0  0  0  0  0  0  0  0  0  0  0
   -8.1100   -9.1086    2.7271 H   0  0  0  0  0  0  0  0  0  0  0  0
   -7.2909   -7.5559    2.5175 H   0  0  0  0  0  0  0  0  0  0  0  0
   -8.7543   -7.6536    3.4949 H   0  0  0  0  0  0  0  0  0  0  0  0
   -4.8849   -6.8622    3.9046 H   0  0  0  0  0  0  0  0  0  0  0  0
    0.0484   -1.4071   -0.8554 H   0  0  0  0  0  0  0  0  0  0  0  0
    0.5390   -0.9053   -2.4718 H   0  0  0  0  0  0  0  0  0  0  0  0
   -0.4954    1.1167   -0.4236 H   0  0  0  0  0  0  0  0  0  0  0  0
    0.2633    1.4392   -1.9755 H   0  0  0  0  0  0  0  0  0  0  0  0
    1.2154    0.7381   -0.6702 H   0  0  0  0  0  0  0  0  0  0  0  0
   -0.9331   -0.4843    0.7585 H   0  0  0  0  0  0  0  0  0  0  0  0
   -1.4514   -0.9606    2.3748 H   0  0  0  0  0  0  0  0  0  0  0  0
   -0.0504   -2.9211    2.3933 H   0  0  0  0  0  0  0  0  0  0  0  0
    0.4063   -2.7237    0.7051 H   0  0  0  0  0  0  0  0  0  0  0  0
    0.9518   -1.5534    1.9154 H   0  0  0  0  0  0  0  0  0  0  0  0
    2.0991   -2.5728   12.3821 H   0  0  0  0  0  0  0  0  0  0  0  0
    0.6369   -3.5868   12.3016 H   0  0  0  0  0  0  0  0  0  0  0  0
    0.6226   -0.5637   12.7555 H   0  0  0  0  0  0  0  0  0  0  0  0
   -0.7889   -1.6347   12.7266 H   0  0  0  0  0  0  0  0  0  0  0  0
    0.4105   -1.7892   14.0127 H   0  0  0  0  0  0  0  0  0  0  0  0
    2.6990   -0.4310    7.2467 H   0  0  0  0  0  0  0  0  0  0  0  0
    1.4401   -1.2219    6.2634 H   0  0  0  0  0  0  0  0  0  0  0  0
    1.2458    1.2592    6.1772 H   0  0  0  0  0  0  0  0  0  0  0  0
   -0.1869    0.5063    6.8818 H   0  0  0  0  0  0  0  0  0  0  0  0
    1.0002    1.3019    7.9276 H   0  0  0  0  0  0  0  0  0  0  0  0
   -3.7420   -6.8152   10.0552 H   0  0  0  0  0  0  0  0  0  0  0  0
    2.2085   -6.5528   12.0238 H   0  0  0  0  0  0  0  0  0  0  0  0
    3.9427   -7.5732   13.9824 H   0  0  0  0  0  0  0  0  0  0  0  0
    3.7545   -9.0973   16.0948 H   0  0  0  0  0  0  0  0  0  0  0  0
   -1.3394   -9.0271   14.5519 H   0  0  0  0  0  0  0  0  0  0  0  0
  1  2  2  0  0  0  0
  2  3  1  0  0  0  0
  3  4  2  0  0  0  0
  3  5  1  0  0  0  0
  5  6  2  0  0  0  0
  6  7  1  0  0  0  0
  7  8  2  0  0  0  0
  8  9  1  0  0  0  0
  9 10  2  0  0  0  0
 10 11  1  0  0  0  0
 11 12  2  0  0  0  0
 12 13  1  0  0  0  0
 13 14  3  0  0  0  0
 12 15  1  0  0  0  0
 15 16  3  0  0  0  0
  8 17  1  0  0  0  0
 17 18  1  0  0  0  0
 18 19  1  0  0  0  0
 19 20  2  0  0  0  0
 20 21  1  0  0  0  0
 21 22  1  0  0  0  0
 21 23  1  0  0  0  0
  1 24  1  0  0  0  0
 24 25  1  0  0  0  0
 25 26  1  0  0  0  0
 26 27  2  0  0  0  0
 27 28  1  0  0  0  0
 28 29  2  0  0  0  0
 28 30  1  0  0  0  0
 30 31  2  0  0  0  0
 31 32  1  0  0  0  0
 32 33  1  0  0  0  0
 31 34  1  0  0  0  0
 34 35  1  0  0  0  0
 35 36  1  0  0  0  0
 36 37  1  0  0  0  0
 35 38  2  0  0  0  0
 38 39  1  0  0  0  0
 39 40  2  0  0  0  0
 39 41  1  0  0  0  0
 26 42  1  0  0  0  0
 42 43  2  0  0  0  0
 43 44  1  0  0  0  0
 44 45  2  0  0  0  0
 45 46  1  0  0  0  0
 46 47  2  0  0  0  0
 47 48  1  0  0  0  0
 48 49  1  0  0  0  0
 49 50  1  0  0  0  0
 48 51  2  0  0  0  0
 43 52  1  0  0  0  0
 52 53  1  0  0  0  0
 53 54  1  0  0  0  0
 54 55  1  0  0  0  0
 55 56  1  0  0  0  0
 56 57  1  0  0  0  0
 57 58  2  0  0  0  0
 58 59  1  0  0  0  0
 59 60  1  0  0  0  0
 57 61  1  0  0  0  0
 61 62  1  0  0  0  0
 62 63  1  0  0  0  0
 63 64  1  0  0  0  0
 64 65  1  0  0  0  0
 65 66  1  0  0  0  0
 66 67  2  0  0  0  0
 67 68  1  0  0  0  0
 68 69  2  0  0  0  0
 69 70  1  0  0  0  0
 70 71  1  0  0  0  0
 71 72  1  0  0  0  0
 70 73  2  0  0  0  0
 65 74  2  0  0  0  0
 74 75  1  0  0  0  0
 75 76  1  0  0  0  0
 76 77  1  0  0  0  0
 77 78  1  0  0  0  0
 78 79  1  0  0  0  0
 79 80  1  0  0  0  0
 80 81  1  0  0  0  0
 81 82  1  0  0  0  0
 82 83  1  0  0  0  0
 83 84  1  0  0  0  0
 81 85  1  0  0  0  0
 85 86  1  0  0  0  0
 78 87  1  0  0  0  0
 87 88  1  0  0  0  0
 74 89  1  0  0  0  0
 89 90  1  0  0  0  0
 90 91  1  0  0  0  0
 91 92  2  0  0  0  0
 92 93  1  0  0  0  0
 93 94  2  0  0  0  0
 93 95  1  0  0  0  0
 95 96  2  0  0  0  0
 96 97  1  0  0  0  0
 97 98  1  0  0  0  0
 96 99  1  0  0  0  0
 99100  1  0  0  0  0
100101  1  0  0  0  0
101102  1  0  0  0  0
100103  2  0  0  0  0
103104  1  0  0  0  0
104105  2  0  0  0  0
104106  1  0  0  0  0
 91107  1  0  0  0  0
107108  2  0  0  0  0
108109  1  0  0  0  0
109110  2  0  0  0  0
109111  1  0  0  0  0
111112  2  0  0  0  0
112113  1  0  0  0  0
113114  1  0  0  0  0
114115  2  0  0  0  0
115116  1  0  0  0  0
116117  1  0  0  0  0
117118  1  0  0  0  0
118119  2  0  0  0  0
119120  1  0  0  0  0
120121  2  0  0  0  0
121122  1  0  0  0  0
122123  3  0  0  0  0
121124  1  0  0  0  0
124125  3  0  0  0  0
 11  2  1  0  0  0  0
 23 17  1  0  0  0  0
 41 24  2  0  0  0  0
 84 42  1  0  0  0  0
106 89  2  0  0  0  0
120108  1  0  0  0  0
 10  5  1  0  0  0  0
 22 18  1  0  0  0  0
 41 27  1  0  0  0  0
 51 44  1  0  0  0  0
 83 52  2  0  0  0  0
106 92  1  0  0  0  0
119111  1  0  0  0  0
 23  7  1  0  0  0  0
 38 30  1  0  0  0  0
 82 54  2  0  0  0  0
103 95  1  0  0  0  0
117113  2  0  0  0  0
 80 55  2  0  0  0  0
 60 56  2  0  0  0  0
 79 61  2  0  0  0  0
 77 62  2  0  0  0  0
 76 64  2  0  0  0  0
 73 66  1  0  0  0  0
  1126  1  0  0  0  0
  6127  1  0  0  0  0
  9128  1  0  0  0  0
 17129  1  0  0  0  0
 18130  1  0  0  0  0
 19131  1  0  0  0  0
 20132  1  0  0  0  0
 21133  1  0  0  0  0
 22134  1  0  0  0  0
 22135  1  0  0  0  0
 23136  1  0  0  0  0
 32137  1  0  0  0  0
 32138  1  0  0  0  0
 33139  1  0  0  0  0
 33140  1  0  0  0  0
 33141  1  0  0  0  0
 36142  1  0  0  0  0
 36143  1  0  0  0  0
 37144  1  0  0  0  0
 37145  1  0  0  0  0
 37146  1  0  0  0  0
 45147  1  0  0  0  0
 46148  1  0  0  0  0
 47149  1  0  0  0  0
 49150  1  0  0  0  0
 49151  1  0  0  0  0
 50152  1  0  0  0  0
 50153  1  0  0  0  0
 50154  1  0  0  0  0
 51155  1  0  0  0  0
 67156  1  0  0  0  0
 68157  1  0  0  0  0
 69158  1  0  0  0  0
 71159  1  0  0  0  0
 71160  1  0  0  0  0
 72161  1  0  0  0  0
 72162  1  0  0  0  0
 72163  1  0  0  0  0
 73164  1  0  0  0  0
 85165  1  0  0  0  0
 85166  1  0  0  0  0
 86167  1  0  0  0  0
 86168  1  0  0  0  0
 86169  1  0  0  0  0
 87170  1  0  0  0  0
 87171  1  0  0  0  0
 88172  1  0  0  0  0
 88173  1  0  0  0  0
 88174  1  0  0  0  0
 97175  1  0  0  0  0
 97176  1  0  0  0  0
 98177  1  0  0  0  0
 98178  1  0  0  0  0
 98179  1  0  0  0  0
101180  1  0  0  0  0
101181  1  0  0  0  0
102182  1  0  0  0  0
102183  1  0  0  0  0
102184  1  0  0  0  0
107185  1  0  0  0  0
112186  1  0  0  0  0
114187  1  0  0  0  0
115188  1  0  0  0  0
118189  1  0  0  0  0
M  END
