
  xtb     02162204473D
 energy: -388.279023702283 gnorm: 0.000343837716 xtb: 6.4.1 (unknown)
239268  0     0  0            999 V2000
   -1.9412   -6.0871    3.8822 C   0  0  0  0  0  0  0  0  0  0  0  0
   -2.1823   -6.7258    2.7043 C   0  0  0  0  0  0  0  0  0  0  0  0
   -2.4295   -8.1929    2.7376 C   0  0  0  0  0  0  0  0  0  0  0  0
   -2.1640   -8.9502    3.6450 O   0  0  0  0  0  0  0  0  0  0  0  0
   -3.1028   -8.5044    1.4657 C   0  0  0  0  0  0  0  0  0  0  0  0
   -3.6343   -9.7327    1.0781 C   0  0  0  0  0  0  0  0  0  0  0  0
   -4.1984   -9.7304   -0.1743 C   0  0  0  0  0  0  0  0  0  0  0  0
   -4.2224   -8.5916   -0.9925 C   0  0  0  0  0  0  0  0  0  0  0  0
   -3.7179   -7.3689   -0.6159 C   0  0  0  0  0  0  0  0  0  0  0  0
   -3.1470   -7.3451    0.6603 C   0  0  0  0  0  0  0  0  0  0  0  0
   -2.4553   -6.2623    1.3605 C   0  0  0  0  0  0  0  0  0  0  0  0
   -1.9709   -5.1232    0.7689 C   0  0  0  0  0  0  0  0  0  0  0  0
   -2.3370   -4.6828   -0.5136 C   0  0  0  0  0  0  0  0  0  0  0  0
   -2.6387   -4.2509   -1.5353 N   0  0  0  0  0  0  0  0  0  0  0  0
   -0.9494   -4.3274    1.3294 C   0  0  0  0  0  0  0  0  0  0  0  0
   -0.0294   -3.7396    1.6851 N   0  0  0  0  0  0  0  0  0  0  0  0
   -4.9105   -9.3201   -2.1180 C   0  0  0  0  0  0  0  0  0  0  0  0
   -4.0474   -9.7832   -3.3193 C   0  0  0  0  0  0  0  0  0  0  0  0
   -2.6501  -10.0007   -2.7958 C   0  0  0  0  0  0  0  0  0  0  0  0
   -2.6643  -11.0760   -2.0202 C   0  0  0  0  0  0  0  0  0  0  0  0
   -4.0771  -11.6049   -2.0001 C   0  0  0  0  0  0  0  0  0  0  0  0
   -4.5225  -11.2415   -3.4259 C   0  0  0  0  0  0  0  0  0  0  0  0
   -4.9125  -10.5801   -1.1956 C   0  0  0  0  0  0  0  0  0  0  0  0
   -1.9998   -4.7101    4.1946 C   0  0  0  0  0  0  0  0  0  0  0  0
   -1.6478   -4.0895    5.3771 C   0  0  0  0  0  0  0  0  0  0  0  0
   -1.8277   -2.7022    5.1842 C   0  0  0  0  0  0  0  0  0  0  0  0
   -1.5711   -1.5682    5.9799 C   0  0  0  0  0  0  0  0  0  0  0  0
   -0.9689   -1.6047    7.3131 C   0  0  0  0  0  0  0  0  0  0  0  0
   -1.4179   -0.7410    8.3104 C   0  0  0  0  0  0  0  0  0  0  0  0
   -0.8202   -0.7345    9.5537 C   0  0  0  0  0  0  0  0  0  0  0  0
    0.2496   -1.5743    9.8369 C   0  0  0  0  0  0  0  0  0  0  0  0
    0.8781   -1.5843   11.2001 C   0  0  0  0  0  0  0  0  0  0  0  0
    0.1654   -2.5860   12.1110 C   0  0  0  0  0  0  0  0  0  0  0  0
    0.6988   -2.4323    8.8404 C   0  0  0  0  0  0  0  0  0  0  0  0
    0.1009   -2.4515    7.5957 C   0  0  0  0  0  0  0  0  0  0  0  0
   -1.8603   -0.3667    5.3530 C   0  0  0  0  0  0  0  0  0  0  0  0
   -2.3138   -0.2487    4.0106 C   0  0  0  0  0  0  0  0  0  0  0  0
   -2.5511   -1.3746    3.2093 C   0  0  0  0  0  0  0  0  0  0  0  0
   -2.8613   -1.2979    1.7777 C   0  0  0  0  0  0  0  0  0  0  0  0
   -2.0760   -0.5035    0.9460 C   0  0  0  0  0  0  0  0  0  0  0  0
   -2.3023   -0.4776   -0.4157 C   0  0  0  0  0  0  0  0  0  0  0  0
   -3.3262   -1.2254   -0.9826 C   0  0  0  0  0  0  0  0  0  0  0  0
   -3.5783   -1.1774   -2.4614 C   0  0  0  0  0  0  0  0  0  0  0  0
   -4.6167   -0.1078   -2.8043 C   0  0  0  0  0  0  0  0  0  0  0  0
   -4.1214   -2.0006   -0.1474 C   0  0  0  0  0  0  0  0  0  0  0  0
   -3.8841   -2.0534    1.2126 C   0  0  0  0  0  0  0  0  0  0  0  0
   -2.3279   -2.5781    3.8557 C   0  0  0  0  0  0  0  0  0  0  0  0
   -2.4457   -3.7986    3.2859 O   0  0  0  0  0  0  0  0  0  0  0  0
   -2.3445    1.1419    3.7493 C   0  0  0  0  0  0  0  0  0  0  0  0
   -1.8871    1.7639    4.8855 C   0  0  0  0  0  0  0  0  0  0  0  0
   -1.6259    0.8660    5.8700 O   0  0  0  0  0  0  0  0  0  0  0  0
   -1.5259    3.1366    5.0299 C   0  0  0  0  0  0  0  0  0  0  0  0
   -0.6074    3.7343    5.8736 C   0  0  0  0  0  0  0  0  0  0  0  0
    0.0932    3.0609    6.9735 C   0  0  0  0  0  0  0  0  0  0  0  0
    0.8128    1.8908    6.7549 C   0  0  0  0  0  0  0  0  0  0  0  0
    1.4608    1.2753    7.8081 C   0  0  0  0  0  0  0  0  0  0  0  0
    1.4101    1.8262    9.0757 C   0  0  0  0  0  0  0  0  0  0  0  0
    0.7218    3.0106    9.3053 C   0  0  0  0  0  0  0  0  0  0  0  0
    0.6535    3.6000   10.6855 C   0  0  0  0  0  0  0  0  0  0  0  0
   -0.4640    2.9432   11.4975 C   0  0  0  0  0  0  0  0  0  0  0  0
    0.0656    3.6191    8.2459 C   0  0  0  0  0  0  0  0  0  0  0  0
   -0.3372    5.0597    5.4691 C   0  0  0  0  0  0  0  0  0  0  0  0
    0.9349    6.1881    5.9007 S   0  0  0  0  0  0  0  0  0  0  0  0
    0.5941    7.1031    4.4604 C   0  0  0  0  0  0  0  0  0  0  0  0
    1.2448    8.0082    3.5980 C   0  0  0  0  0  0  0  0  0  0  0  0
    2.5637    8.5253    3.6102 C   0  0  0  0  0  0  0  0  0  0  0  0
    3.1981    8.8466    2.3533 C   0  0  0  0  0  0  0  0  0  0  0  0
    4.4726    9.1628    2.5024 N   0  0  0  0  0  0  0  0  0  0  0  0
    4.8463    9.0879    4.0771 S   0  0  0  0  0  0  0  0  0  0  0  0
    3.3956    8.6267    4.6314 N   0  0  0  0  0  0  0  0  0  0  0  0
    2.4431    8.7668    1.1599 C   0  0  0  0  0  0  0  0  0  0  0  0
    2.7840    8.6614   -0.2069 C   0  0  0  0  0  0  0  0  0  0  0  0
    4.1817    8.2789   -1.1699 S   0  0  0  0  0  0  0  0  0  0  0  0
    3.1281    7.7207   -2.4582 C   0  0  0  0  0  0  0  0  0  0  0  0
    3.3248    6.8481   -3.5483 C   0  0  0  0  0  0  0  0  0  0  0  0
    4.6059    6.3361   -4.0355 C   0  0  0  0  0  0  0  0  0  0  0  0
    4.8636    6.3070   -5.4044 C   0  0  0  0  0  0  0  0  0  0  0  0
    6.0502    5.7764   -5.8712 C   0  0  0  0  0  0  0  0  0  0  0  0
    6.9767    5.2558   -4.9841 C   0  0  0  0  0  0  0  0  0  0  0  0
    6.7366    5.2783   -3.6160 C   0  0  0  0  0  0  0  0  0  0  0  0
    7.7044    4.6433   -2.6603 C   0  0  0  0  0  0  0  0  0  0  0  0
    7.3756    3.1575   -2.4945 C   0  0  0  0  0  0  0  0  0  0  0  0
    5.5531    5.8327   -3.1510 C   0  0  0  0  0  0  0  0  0  0  0  0
    2.1117    6.4335   -4.0752 C   0  0  0  0  0  0  0  0  0  0  0  0
    0.7294    7.2292   -3.3389 S   0  0  0  0  0  0  0  0  0  0  0  0
    1.7820    7.9845   -2.1959 C   0  0  0  0  0  0  0  0  0  0  0  0
    1.5884    8.5098   -0.9149 C   0  0  0  0  0  0  0  0  0  0  0  0
    0.5167    8.5624   -0.0582 N   0  0  0  0  0  0  0  0  0  0  0  0
    1.0349    8.5950    1.2262 C   0  0  0  0  0  0  0  0  0  0  0  0
    0.4673    8.0644    2.4092 C   0  0  0  0  0  0  0  0  0  0  0  0
   -0.6451    7.2583    2.5614 N   0  0  0  0  0  0  0  0  0  0  0  0
   -0.5228    6.6264    3.7680 C   0  0  0  0  0  0  0  0  0  0  0  0
   -1.0444    5.4581    4.3347 C   0  0  0  0  0  0  0  0  0  0  0  0
   -2.1246    4.2248    3.7920 S   0  0  0  0  0  0  0  0  0  0  0  0
   -1.5553    6.7229    1.5747 C   0  0  0  0  0  0  0  0  0  0  0  0
   -0.8802    5.6956    0.6688 C   0  0  0  0  0  0  0  0  0  0  0  0
   -0.7716    9.0544   -0.4962 C   0  0  0  0  0  0  0  0  0  0  0  0
   -0.6205   10.3172   -1.3429 C   0  0  0  0  0  0  0  0  0  0  0  0
    1.8286    5.2006   -4.7366 C   0  0  0  0  0  0  0  0  0  0  0  0
    2.5763    4.0511   -4.7800 C   0  0  0  0  0  0  0  0  0  0  0  0
    1.6838    2.9980   -5.1055 C   0  0  0  0  0  0  0  0  0  0  0  0
    1.8322    1.6008   -5.0815 C   0  0  0  0  0  0  0  0  0  0  0  0
    3.1312    0.9613   -4.8704 C   0  0  0  0  0  0  0  0  0  0  0  0
    3.2523   -0.1773   -4.0748 C   0  0  0  0  0  0  0  0  0  0  0  0
    4.4935   -0.7392   -3.8499 C   0  0  0  0  0  0  0  0  0  0  0  0
    5.6433   -0.1955   -4.4101 C   0  0  0  0  0  0  0  0  0  0  0  0
    6.9833   -0.8338   -4.1819 C   0  0  0  0  0  0  0  0  0  0  0  0
    7.2342   -1.9373   -5.2117 C   0  0  0  0  0  0  0  0  0  0  0  0
    5.5150    0.9209   -5.2271 C   0  0  0  0  0  0  0  0  0  0  0  0
    4.2801    1.4941   -5.4551 C   0  0  0  0  0  0  0  0  0  0  0  0
    0.6325    0.9082   -5.2040 C   0  0  0  0  0  0  0  0  0  0  0  0
   -0.6259    1.5343   -5.4455 C   0  0  0  0  0  0  0  0  0  0  0  0
   -0.7687    2.9355   -5.4786 C   0  0  0  0  0  0  0  0  0  0  0  0
   -2.0585    3.6110   -5.6216 C   0  0  0  0  0  0  0  0  0  0  0  0
   -3.1899    3.1418   -4.9564 C   0  0  0  0  0  0  0  0  0  0  0  0
   -4.4023    3.7881   -5.0919 C   0  0  0  0  0  0  0  0  0  0  0  0
   -4.5232    4.9198   -5.8891 C   0  0  0  0  0  0  0  0  0  0  0  0
   -5.8544    5.5875   -6.0777 C   0  0  0  0  0  0  0  0  0  0  0  0
   -6.5953    4.9726   -7.2671 C   0  0  0  0  0  0  0  0  0  0  0  0
   -3.3910    5.3940   -6.5409 C   0  0  0  0  0  0  0  0  0  0  0  0
   -2.1742    4.7559   -6.4071 C   0  0  0  0  0  0  0  0  0  0  0  0
    0.4175    3.6209   -5.2811 C   0  0  0  0  0  0  0  0  0  0  0  0
    0.5323    4.9600   -5.0841 O   0  0  0  0  0  0  0  0  0  0  0  0
   -1.5449    0.4715   -5.5752 C   0  0  0  0  0  0  0  0  0  0  0  0
   -0.8428   -0.6921   -5.3308 C   0  0  0  0  0  0  0  0  0  0  0  0
    0.4726   -0.4291   -5.1299 O   0  0  0  0  0  0  0  0  0  0  0  0
   -1.3875   -2.0014   -5.2502 C   0  0  0  0  0  0  0  0  0  0  0  0
   -0.9249   -3.0512   -4.5158 C   0  0  0  0  0  0  0  0  0  0  0  0
    0.0707   -2.9638   -3.4139 C   0  0  0  0  0  0  0  0  0  0  0  0
    0.6702   -1.9849   -3.0291 O   0  0  0  0  0  0  0  0  0  0  0  0
    0.0856   -4.2988   -2.7851 C   0  0  0  0  0  0  0  0  0  0  0  0
    0.8044   -4.6804   -1.6540 C   0  0  0  0  0  0  0  0  0  0  0  0
    0.5709   -5.9738   -1.2514 C   0  0  0  0  0  0  0  0  0  0  0  0
   -0.3034   -6.8358   -1.9299 C   0  0  0  0  0  0  0  0  0  0  0  0
   -1.0282   -6.4663   -3.0365 C   0  0  0  0  0  0  0  0  0  0  0  0
   -0.8234   -5.1454   -3.4501 C   0  0  0  0  0  0  0  0  0  0  0  0
   -1.4717   -4.3947   -4.5180 C   0  0  0  0  0  0  0  0  0  0  0  0
   -2.4266   -4.8854   -5.3714 C   0  0  0  0  0  0  0  0  0  0  0  0
   -3.0359   -4.1705   -6.4239 C   0  0  0  0  0  0  0  0  0  0  0  0
   -3.5758   -3.6778   -7.3106 N   0  0  0  0  0  0  0  0  0  0  0  0
   -2.9529   -6.1911   -5.3245 C   0  0  0  0  0  0  0  0  0  0  0  0
   -3.4437   -7.2297   -5.3535 N   0  0  0  0  0  0  0  0  0  0  0  0
   -0.0514   -7.9756   -0.9724 C   0  0  0  0  0  0  0  0  0  0  0  0
    0.8994   -9.0945   -1.4487 C   0  0  0  0  0  0  0  0  0  0  0  0
    1.3082   -9.7813   -0.1657 C   0  0  0  0  0  0  0  0  0  0  0  0
    2.1240   -8.9639    0.4875 C   0  0  0  0  0  0  0  0  0  0  0  0
    2.2797   -7.7107   -0.3430 C   0  0  0  0  0  0  0  0  0  0  0  0
    2.1824   -8.3106   -1.7513 C   0  0  0  0  0  0  0  0  0  0  0  0
    0.9117   -7.0104   -0.2084 C   0  0  0  0  0  0  0  0  0  0  0  0
   -1.7370   -6.7373    4.7257 H   0  0  0  0  0  0  0  0  0  0  0  0
   -3.5838  -10.5881    1.7335 H   0  0  0  0  0  0  0  0  0  0  0  0
   -3.7617   -6.4958   -1.2455 H   0  0  0  0  0  0  0  0  0  0  0  0
   -5.8681   -8.9134   -2.4365 H   0  0  0  0  0  0  0  0  0  0  0  0
   -4.1315   -9.1559   -4.2009 H   0  0  0  0  0  0  0  0  0  0  0  0
   -1.8270   -9.3427   -2.9992 H   0  0  0  0  0  0  0  0  0  0  0  0
   -1.8599  -11.4918   -1.4412 H   0  0  0  0  0  0  0  0  0  0  0  0
   -4.2003  -12.6376   -1.6834 H   0  0  0  0  0  0  0  0  0  0  0  0
   -5.5958  -11.3384   -3.5829 H   0  0  0  0  0  0  0  0  0  0  0  0
   -3.9874  -11.8030   -4.1899 H   0  0  0  0  0  0  0  0  0  0  0  0
   -5.8761  -10.9789   -0.8842 H   0  0  0  0  0  0  0  0  0  0  0  0
   -1.2997   -4.5834    6.2613 H   0  0  0  0  0  0  0  0  0  0  0  0
   -2.2454   -0.0788    8.1089 H   0  0  0  0  0  0  0  0  0  0  0  0
   -1.1861   -0.0606   10.3148 H   0  0  0  0  0  0  0  0  0  0  0  0
    0.8145   -0.5887   11.6445 H   0  0  0  0  0  0  0  0  0  0  0  0
    1.9326   -1.8572   11.1212 H   0  0  0  0  0  0  0  0  0  0  0  0
    0.6192   -2.5927   13.0994 H   0  0  0  0  0  0  0  0  0  0  0  0
   -0.8853   -2.3233   12.2123 H   0  0  0  0  0  0  0  0  0  0  0  0
    0.2281   -3.5882   11.6931 H   0  0  0  0  0  0  0  0  0  0  0  0
    1.5363   -3.0864    9.0395 H   0  0  0  0  0  0  0  0  0  0  0  0
    0.4880   -3.0975    6.8219 H   0  0  0  0  0  0  0  0  0  0  0  0
   -1.2593    0.0621    1.3691 H   0  0  0  0  0  0  0  0  0  0  0  0
   -1.6631    0.1186   -1.0516 H   0  0  0  0  0  0  0  0  0  0  0  0
   -3.9319   -2.1520   -2.8014 H   0  0  0  0  0  0  0  0  0  0  0  0
   -2.6440   -0.9542   -2.9808 H   0  0  0  0  0  0  0  0  0  0  0  0
   -4.2741    0.8713   -2.4748 H   0  0  0  0  0  0  0  0  0  0  0  0
   -4.7908   -0.0759   -3.8777 H   0  0  0  0  0  0  0  0  0  0  0  0
   -5.5603   -0.3223   -2.3074 H   0  0  0  0  0  0  0  0  0  0  0  0
   -4.9222   -2.5883   -0.5733 H   0  0  0  0  0  0  0  0  0  0  0  0
   -4.4989   -2.6761    1.8470 H   0  0  0  0  0  0  0  0  0  0  0  0
   -2.6317    1.6203    2.8353 H   0  0  0  0  0  0  0  0  0  0  0  0
    0.8788    1.4752    5.7609 H   0  0  0  0  0  0  0  0  0  0  0  0
    2.0100    0.3611    7.6389 H   0  0  0  0  0  0  0  0  0  0  0  0
    1.9217    1.3385    9.8928 H   0  0  0  0  0  0  0  0  0  0  0  0
    0.4686    4.6737   10.6198 H   0  0  0  0  0  0  0  0  0  0  0  0
    1.6059    3.4486   11.1980 H   0  0  0  0  0  0  0  0  0  0  0  0
   -1.4211    3.0722   10.9967 H   0  0  0  0  0  0  0  0  0  0  0  0
   -0.5271    3.3862   12.4888 H   0  0  0  0  0  0  0  0  0  0  0  0
   -0.2747    1.8776   11.6059 H   0  0  0  0  0  0  0  0  0  0  0  0
   -0.4808    4.5377    8.4090 H   0  0  0  0  0  0  0  0  0  0  0  0
    4.1315    6.7036   -6.0920 H   0  0  0  0  0  0  0  0  0  0  0  0
    6.2512    5.7607   -6.9324 H   0  0  0  0  0  0  0  0  0  0  0  0
    7.8967    4.8283   -5.3563 H   0  0  0  0  0  0  0  0  0  0  0  0
    8.7232    4.7473   -3.0388 H   0  0  0  0  0  0  0  0  0  0  0  0
    7.6468    5.1377   -1.6890 H   0  0  0  0  0  0  0  0  0  0  0  0
    7.4271    2.6471   -3.4535 H   0  0  0  0  0  0  0  0  0  0  0  0
    6.3692    3.0315   -2.1015 H   0  0  0  0  0  0  0  0  0  0  0  0
    8.0770    2.6857   -1.8105 H   0  0  0  0  0  0  0  0  0  0  0  0
    5.3511    5.8482   -2.0900 H   0  0  0  0  0  0  0  0  0  0  0  0
   -2.3621    6.2370    2.1298 H   0  0  0  0  0  0  0  0  0  0  0  0
   -1.9981    7.5238    0.9875 H   0  0  0  0  0  0  0  0  0  0  0  0
   -0.4946    4.8710    1.2631 H   0  0  0  0  0  0  0  0  0  0  0  0
   -1.6024    5.3023   -0.0409 H   0  0  0  0  0  0  0  0  0  0  0  0
   -0.0554    6.1400    0.1189 H   0  0  0  0  0  0  0  0  0  0  0  0
   -1.2783    8.2824   -1.0862 H   0  0  0  0  0  0  0  0  0  0  0  0
   -1.3602    9.2985    0.3894 H   0  0  0  0  0  0  0  0  0  0  0  0
   -1.6037   10.7051   -1.5950 H   0  0  0  0  0  0  0  0  0  0  0  0
   -0.0734   11.0799   -0.7929 H   0  0  0  0  0  0  0  0  0  0  0  0
   -0.0881   10.1006   -2.2649 H   0  0  0  0  0  0  0  0  0  0  0  0
    3.6093    3.9631   -4.5185 H   0  0  0  0  0  0  0  0  0  0  0  0
    2.3767   -0.6123   -3.6198 H   0  0  0  0  0  0  0  0  0  0  0  0
    4.5722   -1.6140   -3.2201 H   0  0  0  0  0  0  0  0  0  0  0  0
    7.7719   -0.0823   -4.2605 H   0  0  0  0  0  0  0  0  0  0  0  0
    7.0208   -1.2636   -3.1787 H   0  0  0  0  0  0  0  0  0  0  0  0
    6.4628   -2.7008   -5.1418 H   0  0  0  0  0  0  0  0  0  0  0  0
    7.2164   -1.5258   -6.2185 H   0  0  0  0  0  0  0  0  0  0  0  0
    8.2023   -2.4038   -5.0435 H   0  0  0  0  0  0  0  0  0  0  0  0
    6.3936    1.3473   -5.6918 H   0  0  0  0  0  0  0  0  0  0  0  0
    4.2005    2.3480   -6.1116 H   0  0  0  0  0  0  0  0  0  0  0  0
   -3.1080    2.2841   -4.3063 H   0  0  0  0  0  0  0  0  0  0  0  0
   -5.2686    3.4119   -4.5655 H   0  0  0  0  0  0  0  0  0  0  0  0
   -5.7119    6.6554   -6.2562 H   0  0  0  0  0  0  0  0  0  0  0  0
   -6.4602    5.4687   -5.1769 H   0  0  0  0  0  0  0  0  0  0  0  0
   -7.5593    5.4563   -7.4070 H   0  0  0  0  0  0  0  0  0  0  0  0
   -6.7600    3.9103   -7.1019 H   0  0  0  0  0  0  0  0  0  0  0  0
   -6.0119    5.0900   -8.1776 H   0  0  0  0  0  0  0  0  0  0  0  0
   -3.4657    6.2765   -7.1606 H   0  0  0  0  0  0  0  0  0  0  0  0
   -1.3061    5.1350   -6.9246 H   0  0  0  0  0  0  0  0  0  0  0  0
   -2.5912    0.5359   -5.7934 H   0  0  0  0  0  0  0  0  0  0  0  0
   -2.3057   -2.1215   -5.8101 H   0  0  0  0  0  0  0  0  0  0  0  0
    1.4586   -3.9868   -1.1497 H   0  0  0  0  0  0  0  0  0  0  0  0
   -1.7265   -7.1192   -3.5320 H   0  0  0  0  0  0  0  0  0  0  0  0
   -0.9270   -8.3657   -0.4560 H   0  0  0  0  0  0  0  0  0  0  0  0
    0.5020   -9.7304   -2.2352 H   0  0  0  0  0  0  0  0  0  0  0  0
    0.9279  -10.7340    0.1529 H   0  0  0  0  0  0  0  0  0  0  0  0
    2.5608   -9.0978    1.4596 H   0  0  0  0  0  0  0  0  0  0  0  0
    3.1365   -7.0799   -0.1230 H   0  0  0  0  0  0  0  0  0  0  0  0
    2.0732   -7.5695   -2.5412 H   0  0  0  0  0  0  0  0  0  0  0  0
    3.0212   -8.9663   -1.9793 H   0  0  0  0  0  0  0  0  0  0  0  0
    0.6755   -6.7399    0.8199 H   0  0  0  0  0  0  0  0  0  0  0  0
  1  2  2  0  0  0  0
  2  3  1  0  0  0  0
  3  4  2  0  0  0  0
  3  5  1  0  0  0  0
  5  6  2  0  0  0  0
  6  7  1  0  0  0  0
  7  8  2  0  0  0  0
  8  9  1  0  0  0  0
  9 10  2  0  0  0  0
 10 11  1  0  0  0  0
 11 12  2  0  0  0  0
 12 13  1  0  0  0  0
 13 14  3  0  0  0  0
 12 15  1  0  0  0  0
 15 16  3  0  0  0  0
  8 17  1  0  0  0  0
 17 18  1  0  0  0  0
 18 19  1  0  0  0  0
 19 20  2  0  0  0  0
 20 21  1  0  0  0  0
 21 22  1  0  0  0  0
 21 23  1  0  0  0  0
  1 24  1  0  0  0  0
 24 25  2  0  0  0  0
 25 26  1  0  0  0  0
 26 27  2  0  0  0  0
 27 28  1  0  0  0  0
 28 29  2  0  0  0  0
 29 30  1  0  0  0  0
 30 31  2  0  0  0  0
 31 32  1  0  0  0  0
 32 33  1  0  0  0  0
 31 34  1  0  0  0  0
 34 35  2  0  0  0  0
 27 36  1  0  0  0  0
 36 37  2  0  0  0  0
 37 38  1  0  0  0  0
 38 39  1  0  0  0  0
 39 40  2  0  0  0  0
 40 41  1  0  0  0  0
 41 42  2  0  0  0  0
 42 43  1  0  0  0  0
 43 44  1  0  0  0  0
 42 45  1  0  0  0  0
 45 46  2  0  0  0  0
 38 47  2  0  0  0  0
 47 48  1  0  0  0  0
 37 49  1  0  0  0  0
 49 50  2  0  0  0  0
 50 51  1  0  0  0  0
 50 52  1  0  0  0  0
 52 53  2  0  0  0  0
 53 54  1  0  0  0  0
 54 55  2  0  0  0  0
 55 56  1  0  0  0  0
 56 57  2  0  0  0  0
 57 58  1  0  0  0  0
 58 59  1  0  0  0  0
 59 60  1  0  0  0  0
 58 61  2  0  0  0  0
 53 62  1  0  0  0  0
 62 63  1  0  0  0  0
 63 64  1  0  0  0  0
 64 65  1  0  0  0  0
 65 66  1  0  0  0  0
 66 67  1  0  0  0  0
 67 68  2  0  0  0  0
 68 69  1  0  0  0  0
 69 70  1  0  0  0  0
 67 71  1  0  0  0  0
 71 72  1  0  0  0  0
 72 73  1  0  0  0  0
 73 74  1  0  0  0  0
 74 75  1  0  0  0  0
 75 76  1  0  0  0  0
 76 77  2  0  0  0  0
 77 78  1  0  0  0  0
 78 79  2  0  0  0  0
 79 80  1  0  0  0  0
 80 81  1  0  0  0  0
 81 82  1  0  0  0  0
 80 83  2  0  0  0  0
 75 84  2  0  0  0  0
 84 85  1  0  0  0  0
 85 86  1  0  0  0  0
 86 87  1  0  0  0  0
 87 88  1  0  0  0  0
 88 89  1  0  0  0  0
 89 90  1  0  0  0  0
 90 91  1  0  0  0  0
 91 92  1  0  0  0  0
 92 93  1  0  0  0  0
 93 94  1  0  0  0  0
 91 95  1  0  0  0  0
 95 96  1  0  0  0  0
 88 97  1  0  0  0  0
 97 98  1  0  0  0  0
 84 99  1  0  0  0  0
 99100  2  0  0  0  0
100101  1  0  0  0  0
101102  2  0  0  0  0
102103  1  0  0  0  0
103104  2  0  0  0  0
104105  1  0  0  0  0
105106  2  0  0  0  0
106107  1  0  0  0  0
107108  1  0  0  0  0
106109  1  0  0  0  0
109110  2  0  0  0  0
102111  1  0  0  0  0
111112  2  0  0  0  0
112113  1  0  0  0  0
113114  1  0  0  0  0
114115  2  0  0  0  0
115116  1  0  0  0  0
116117  2  0  0  0  0
117118  1  0  0  0  0
118119  1  0  0  0  0
117120  1  0  0  0  0
120121  2  0  0  0  0
113122  2  0  0  0  0
122123  1  0  0  0  0
112124  1  0  0  0  0
124125  2  0  0  0  0
125126  1  0  0  0  0
125127  1  0  0  0  0
127128  2  0  0  0  0
128129  1  0  0  0  0
129130  2  0  0  0  0
129131  1  0  0  0  0
131132  2  0  0  0  0
132133  1  0  0  0  0
133134  2  0  0  0  0
134135  1  0  0  0  0
135136  2  0  0  0  0
136137  1  0  0  0  0
137138  2  0  0  0  0
138139  1  0  0  0  0
139140  3  0  0  0  0
138141  1  0  0  0  0
141142  3  0  0  0  0
134143  1  0  0  0  0
143144  1  0  0  0  0
144145  1  0  0  0  0
145146  2  0  0  0  0
146147  1  0  0  0  0
147148  1  0  0  0  0
147149  1  0  0  0  0
 11  2  1  0  0  0  0
 23 17  1  0  0  0  0
 48 24  1  0  0  0  0
 94 52  1  0  0  0  0
123 99  1  0  0  0  0
137128  1  0  0  0  0
149143  1  0  0  0  0
 10  5  1  0  0  0  0
 22 18  1  0  0  0  0
 47 26  1  0  0  0  0
 61 54  1  0  0  0  0
 93 62  2  0  0  0  0
122101  1  0  0  0  0
136131  1  0  0  0  0
148144  1  0  0  0  0
 23  7  1  0  0  0  0
 35 28  1  0  0  0  0
 51 36  1  0  0  0  0
 92 64  2  0  0  0  0
110103  1  0  0  0  0
126111  1  0  0  0  0
149133  1  0  0  0  0
 46 39  1  0  0  0  0
 90 65  2  0  0  0  0
121114  1  0  0  0  0
 70 66  2  0  0  0  0
 89 71  2  0  0  0  0
 87 72  2  0  0  0  0
 86 74  2  0  0  0  0
 83 76  1  0  0  0  0
  1150  1  0  0  0  0
  6151  1  0  0  0  0
  9152  1  0  0  0  0
 17153  1  0  0  0  0
 18154  1  0  0  0  0
 19155  1  0  0  0  0
 20156  1  0  0  0  0
 21157  1  0  0  0  0
 22158  1  0  0  0  0
 22159  1  0  0  0  0
 23160  1  0  0  0  0
 25161  1  0  0  0  0
 29162  1  0  0  0  0
 30163  1  0  0  0  0
 32164  1  0  0  0  0
 32165  1  0  0  0  0
 33166  1  0  0  0  0
 33167  1  0  0  0  0
 33168  1  0  0  0  0
 34169  1  0  0  0  0
 35170  1  0  0  0  0
 40171  1  0  0  0  0
 41172  1  0  0  0  0
 43173  1  0  0  0  0
 43174  1  0  0  0  0
 44175  1  0  0  0  0
 44176  1  0  0  0  0
 44177  1  0  0  0  0
 45178  1  0  0  0  0
 46179  1  0  0  0  0
 49180  1  0  0  0  0
 55181  1  0  0  0  0
 56182  1  0  0  0  0
 57183  1  0  0  0  0
 59184  1  0  0  0  0
 59185  1  0  0  0  0
 60186  1  0  0  0  0
 60187  1  0  0  0  0
 60188  1  0  0  0  0
 61189  1  0  0  0  0
 77190  1  0  0  0  0
 78191  1  0  0  0  0
 79192  1  0  0  0  0
 81193  1  0  0  0  0
 81194  1  0  0  0  0
 82195  1  0  0  0  0
 82196  1  0  0  0  0
 82197  1  0  0  0  0
 83198  1  0  0  0  0
 95199  1  0  0  0  0
 95200  1  0  0  0  0
 96201  1  0  0  0  0
 96202  1  0  0  0  0
 96203  1  0  0  0  0
 97204  1  0  0  0  0
 97205  1  0  0  0  0
 98206  1  0  0  0  0
 98207  1  0  0  0  0
 98208  1  0  0  0  0
100209  1  0  0  0  0
104210  1  0  0  0  0
105211  1  0  0  0  0
107212  1  0  0  0  0
107213  1  0  0  0  0
108214  1  0  0  0  0
108215  1  0  0  0  0
108216  1  0  0  0  0
109217  1  0  0  0  0
110218  1  0  0  0  0
115219  1  0  0  0  0
116220  1  0  0  0  0
118221  1  0  0  0  0
118222  1  0  0  0  0
119223  1  0  0  0  0
119224  1  0  0  0  0
119225  1  0  0  0  0
120226  1  0  0  0  0
121227  1  0  0  0  0
124228  1  0  0  0  0
127229  1  0  0  0  0
132230  1  0  0  0  0
135231  1  0  0  0  0
143232  1  0  0  0  0
144233  1  0  0  0  0
145234  1  0  0  0  0
146235  1  0  0  0  0
147236  1  0  0  0  0
148237  1  0  0  0  0
148238  1  0  0  0  0
149239  1  0  0  0  0
M  END
