158

C         -6.60520        6.41680       -1.79160
C         -5.85060        7.43930       -2.28500
C         -4.38090        7.51670       -2.32610
O         -3.58560        6.61010       -2.15510
C         -4.05680        8.92450       -2.60540
C         -2.78800        9.50090       -2.64190
C         -2.79450       10.84890       -2.90640
C         -3.97550       11.57550       -3.11380
C         -5.23290       11.02100       -3.07960
C         -5.24970        9.64720       -2.81910
C         -6.37620        8.72500       -2.71500
C         -7.67490        8.99430       -3.05070
C         -8.13610       10.25790       -3.47740
N         -8.57450       11.25910       -3.82830
C         -8.72030        8.04370       -3.09640
N         -9.61790        7.33880       -3.21890
C         -3.23540       12.87350       -3.31850
C         -3.08740       13.36050       -4.77570
C         -1.94560       14.34920       -4.71150
C         -0.82740       13.66220       -4.51620
C         -1.19460       12.19740       -4.44520
C         -2.37080       12.17210       -5.42970
C         -1.91900       12.06350       -3.08880
C         -6.21110        5.13810       -1.34680
S         -4.62410        4.45740       -1.52760
C         -5.13940        2.92950       -0.88400
C         -6.49570        2.93950       -0.54110
C         -7.28960        1.77910       -0.10190
O         -6.82110        0.67360        0.12520
C         -8.72180        2.04320       -0.00140
C         -9.66510        1.08190        0.27280
C         -9.44170       -0.36690        0.50920
C        -10.72810       -1.15160        0.71910
S        -11.25350        1.77010        0.31590
C        -10.65630        3.36010       -0.00980
C        -11.55810        4.53420       -0.10670
C        -13.03210        4.16140       -0.16550
C         -9.29050        3.34310       -0.15960
C         -8.48550        4.51970       -0.44040
O         -8.92900        5.65700       -0.38070
C         -7.08570        4.20380       -0.78140
C         -4.11940        1.93930       -0.78500
C         -4.01610        0.78180       -0.04480
C         -2.76450        0.17960       -0.19930
S         -2.02150       -1.22900        0.50180
C         -0.52020       -0.86580       -0.32880
C          0.66880       -1.56100       -0.15630
C          0.75780       -2.73330        0.70020
C          1.60330       -2.95010        1.74660
C          1.42660       -4.22570        2.32780
Cl         2.37660       -4.77010        3.65210
C          0.46260       -4.98560        1.73260
C         -0.00820       -6.34840        2.10260
C         -1.25660       -6.27490        2.98500
S         -0.27140       -4.10900        0.43460
C          1.79510       -1.08050       -0.84450
C          1.69610        0.06290       -1.67930
C          0.50780        0.75240       -1.85830
C          0.38010        1.92540       -2.70890
S          1.31120        3.36420       -2.42100
C          0.48980        4.22030       -3.68000
C          0.75760        5.66100       -3.93730
C         -0.01280        6.54050       -2.94860
C         -0.43120        3.41030       -4.27630
C         -0.50010        2.10860       -3.73310
Cl        -1.44610        3.92380       -5.56550
C         -0.61150        0.28400       -1.15180
C         -1.90250        0.85670       -1.05520
S         -2.64480        2.26960       -1.69120
S          3.20570        0.46730       -2.47290
C          3.98290       -0.88190       -1.69920
C          5.28810       -1.38210       -1.72760
C          5.42370       -2.48580       -0.91390
S          3.92190       -2.91740       -0.12450
C          3.11630       -1.59340       -0.87650
C          6.59280       -3.23880       -0.61310
C          7.82520       -3.16520       -1.23310
C          8.76240       -4.01940       -0.65650
S         10.40890       -4.25050       -1.19220
C         10.77210       -2.70950       -2.10520
C         10.79070       -1.49930       -1.19260
C          8.25340       -4.76030        0.42900
S          6.56420       -4.39560        0.67690
C          9.05180       -5.58920        1.22370
C          8.71520       -6.35450        2.31160
C          7.35570       -6.57860        2.81160
O          6.32090       -6.08590        2.39400
C          7.47400       -7.53680        3.92240
C          6.43800       -8.05260        4.69820
C          6.85370       -8.92730        5.67320
C          8.19970       -9.27000        5.85660
C          9.23050       -8.76960        5.09660
C          8.83150       -7.86960        4.10390
C          9.62940       -7.12250        3.13120
C         10.99950       -7.12020        3.06510
C         11.78400       -6.33950        2.19000
N         12.50530       -5.72600        1.53920
C         11.83980       -7.88660        3.89890
N         12.58660       -8.47960        4.53880
C          7.89180      -10.18790        7.01350
C          8.19730       -9.64250        8.42450
C          7.37130      -10.51890        9.33800
C          6.09670      -10.19260        9.16610
C          6.03980       -9.08990        8.13350
C          7.35220       -8.36230        8.45250
C          6.39100       -9.80380        6.81070
H         -7.66840        6.59800       -1.68020
H         -1.90550        8.90680       -2.46470
H         -6.13320       11.59370       -3.22730
H         -3.48280       13.67490       -2.62520
H         -4.00910       13.70560       -5.23570
H         -2.07150       15.41490       -4.75770
H          0.16730       14.03920       -4.36640
H         -0.39110       11.48340       -4.60520
H         -2.05840       12.39100       -6.44930
H         -2.94260       11.24600       -5.41530
H         -1.28790       12.32460       -2.24130
H         -8.88000       -0.77060       -0.33930
H         -8.78400       -0.47520        1.37770
H        -11.26460       -0.78240        1.59080
H        -11.37880       -1.06040       -0.14820
H        -10.50400       -2.20380        0.87270
H        -11.27060        5.11800       -0.98700
H        -11.36790        5.18410        0.75420
H        -13.23300        3.53110       -1.02920
H        -13.64060        5.05800       -0.24470
H        -13.32850        3.62080        0.73150
H         -4.80450        0.39830        0.57300
H          2.30450       -2.22450        2.11500
H          0.79230       -6.86000        2.64020
H         -0.23700       -6.91400        1.19720
H         -1.58950       -7.27570        3.24750
H         -2.06050       -5.76540        2.45870
H         -1.03930       -5.72820        3.89930
H          0.44730        5.89710       -4.95720
H          1.82750        5.85910       -3.84370
H          0.17050        7.58950       -3.17040
H         -1.08060        6.34330       -3.01290
H          0.31270        6.33620       -1.93110
H         -1.16090        1.34530       -4.10060
H          6.08910       -0.94750       -2.29530
H          8.01520       -2.53060       -2.07860
H         10.05530       -2.60920       -2.91890
H         11.75930       -2.89380       -2.52820
H          9.81540       -1.33780       -0.73770
H         11.05990       -0.61210       -1.76240
H         11.52150       -1.63940       -0.39970
H         10.09190       -5.59820        0.91750
H          5.41440       -7.76360        4.51800
H         10.25930       -9.04880        5.24970
H          8.18550      -11.22810        6.88600
H          9.25460       -9.55070        8.65760
H          7.78090      -11.29820        9.95350
H          5.22890      -10.64500        9.60930
H          5.13130       -8.49450        8.10280
H          7.33750       -7.90060        9.43840
H          7.64200       -7.62260        7.70850
H          5.68290      -10.58830        6.54960
