203

C         -7.93570        3.66640        8.46330
C         -8.57150        4.76460        7.97900
C         -8.99710        5.86730        8.88270
O         -9.13050        5.81510       10.08400
C         -9.14660        7.04440        8.00160
C         -9.37530        8.36440        8.38700
C         -9.43550        9.25210        7.33950
C         -9.29100        8.86080        6.00110
C         -9.07680        7.56330        5.60280
C         -8.99940        6.64730        6.65520
C         -8.79860        5.20390        6.61760
C         -9.03450        4.38350        5.54570
C         -9.11370        2.97950        5.66660
N         -9.24350        1.84190        5.75010
C         -9.29160        4.84000        4.23910
N         -9.47170        5.16160        3.15160
C         -9.44620       10.27010        5.48720
C         -8.15120       10.98930        5.05400
C         -8.52800       12.45320        5.06670
C         -8.66170       12.82420        6.33360
C         -8.37700       11.61750        7.19850
C         -7.31430       10.92140        6.33810
C         -9.60480       10.70770        6.97860
C         -7.07620        2.79300        7.74570
C         -6.70040        1.52230        8.09230
C         -5.79560        0.92360        7.18890
C         -5.26210       -0.38440        7.22000
C         -5.70740       -1.36760        8.17920
C         -6.98070       -1.59140        8.63170
C         -7.08530       -2.67340        9.52170
C         -5.88120       -3.27340        9.76320
S         -5.48100       -4.65710       10.75020
C         -6.86560       -4.68920       11.94590
C         -6.85120       -3.48890       12.87110
S         -4.59400       -2.51290        8.88620
C         -4.30300       -0.67850        6.25690
C         -3.90110        0.22390        5.24280
C         -4.50260        1.49790        5.15410
C         -4.22990        2.39300        4.05360
C         -4.05980        2.09030        2.72900
C         -3.91520        3.21750        1.90360
C         -3.96710        4.39380        2.59700
S         -3.78420        5.98630        1.91050
C         -4.49390        7.04870        3.21900
C         -5.99780        6.90360        3.34140
S         -4.17550        4.11810        4.29890
C         -5.40780        1.81750        6.15910
S         -6.24260        3.33530        6.29880
C         -2.88430       -0.32230        4.42840
C         -2.53130       -1.60010        4.76840
S         -3.46350       -2.19840        6.12170
C         -1.56560       -2.41910        4.12130
C         -1.13650       -3.69030        4.45090
C         -1.53390       -4.41950        5.66300
C         -1.18990       -3.92950        6.91980
C         -1.59190       -4.60780        8.05430
C         -2.32690       -5.77470        7.94400
C         -2.65240       -6.29110        6.69650
C         -3.38600       -7.59490        6.57330
C         -2.38960       -8.75230        6.47970
C         -2.24480       -5.60740        5.56010
C         -0.24300       -4.19690        3.49000
S          0.60920       -5.71610        3.35760
C          1.34770       -5.14390        1.89850
C          2.23840       -5.58840        0.90790
C          2.84460       -6.84650        0.70060
C          3.63190       -7.05140       -0.48170
N          4.09320       -8.28870       -0.57420
S          3.58440       -9.12320        0.71730
N          2.75470       -7.93780        1.44440
C          3.86900       -5.95730       -1.34200
C          4.69000       -5.83370       -2.47410
S          5.70890       -6.81160       -3.47610
C          6.12760       -5.38860       -4.40290
C          6.94290       -5.19620       -5.53700
C          7.55240       -6.30460       -6.26830
C          7.44970       -6.38170       -7.65520
C          8.00150       -7.45430       -8.32690
C          8.64910       -8.45960       -7.62860
C          8.74870       -8.40490       -6.24470
C          9.39200       -9.51810       -5.46850
C          8.32560      -10.49320       -4.96530
C          8.19360       -7.32470       -5.57570
C          6.97180       -3.86190       -5.90950
S          5.93760       -2.85860       -4.90020
C          5.49940       -4.22940       -3.94410
C          4.66830       -4.48800       -2.84640
N          3.83890       -3.78300       -2.01740
C          3.32290       -4.66770       -1.08420
C          2.40380       -4.51520       -0.01260
N          1.59370       -3.46560        0.39230
C          0.95760       -3.85110        1.54150
C          0.03690       -3.31100        2.44730
S         -0.83660       -1.83110        2.63030
C          1.07760       -2.34670       -0.36500
C          0.40600       -2.80500       -1.65680
C          3.91690       -2.33980       -1.99050
C          4.57280       -1.83730       -0.70700
C          7.71150       -3.19360       -6.92350
S          7.07880       -1.73720       -7.61320
C          8.47340       -1.57950       -8.63890
C          9.36990       -2.65660       -8.44940
C          8.95360       -3.55390       -7.45540
O          9.55500       -4.68100       -6.98160
C         10.95840       -4.79350       -7.00200
C         11.57080       -4.70900       -8.39710
C         11.66290       -3.26500       -8.87830
O         10.43310       -2.70840       -9.28840
C          8.76260       -0.55110       -9.53830
C          8.04130        0.57570       -9.84780
C          6.71810        0.90490       -9.31920
O          6.06890        0.27670       -8.49760
C          6.30780        2.15700       -9.97820
C          5.11140        2.84750       -9.79930
C          5.00990        3.99310      -10.55170
C          6.02180        4.41710      -11.42230
C          7.20550        3.74280      -11.61040
C          7.33300        2.57720      -10.84940
C          8.43630        1.61820      -10.76860
C          9.63440        1.72990      -11.42950
C          9.96270        2.77610      -12.31560
N         10.30200        3.59400      -13.04730
C         10.72650        0.84490      -11.31470
N         11.67440        0.19600      -11.27360
C          5.25430        5.64520      -11.84530
C          5.70230        6.98470      -11.22320
C          4.51180        7.89390      -11.42620
C          3.55270        7.49290      -10.60160
C          4.07890        6.30590       -9.82740
C          5.55940        6.69440       -9.72350
C          4.12550        5.17240      -10.87390
H         -8.01790        3.49220        9.53110
H         -9.49090        8.62680        9.42700
H         -8.96630        7.26780        4.57240
H        -10.27600       10.43750        4.80340
H         -7.70230       10.60770        4.14070
H         -8.70770       13.03390        4.18110
H         -8.97520       13.77710        6.71770
H         -8.13190       11.80870        8.23980
H         -6.39830       11.50530        6.26410
H         -7.07570        9.90940        6.66080
H        -10.53920       11.17110        7.28920
H         -7.07640        1.03090        8.97120
H         -7.83290       -1.03410        8.28600
H         -8.01880       -2.99560        9.94550
H         -7.79500       -4.76650       11.38390
H         -6.71040       -5.61450       12.49990
H         -6.96720       -2.56550       12.30770
H         -7.66780       -3.56480       13.58620
H         -5.91200       -3.44420       13.41730
H         -4.10250        1.08570        2.34860
H         -3.79720        3.17450        0.83660
H         -3.98570        6.80150        4.15120
H         -4.21890        8.05900        2.91680
H         -6.48300        7.12590        2.39400
H         -6.26900        5.89260        3.63770
H         -6.36770        7.59330        4.09800
H         -2.40030        0.21900        3.63530
H         -0.61580       -3.01780        6.99960
H         -1.33700       -4.22130        9.02970
H         -2.65340       -6.28900        8.83620
H         -4.03000       -7.74020        7.44280
H         -4.01280       -7.58610        5.67940
H         -1.74160       -8.62420        5.61550
H         -2.91390       -9.70040        6.38500
H         -1.76670       -8.78660        7.37070
H         -2.49830       -5.99040        4.58160
H          6.93140       -5.60460       -8.19720
H          7.92370       -7.51110       -9.40320
H          9.07840       -9.29550       -8.16270
H          9.93420       -9.10850       -4.61360
H         10.10310      -10.05290       -6.10140
H          7.61270       -9.97660       -4.32680
H          7.78330      -10.92430       -5.80380
H          8.78400      -11.29870       -4.39650
H          8.27860       -7.26500       -4.50030
H          1.86290       -1.61500       -0.55840
H          0.33610       -1.85840        0.27230
H          1.10170       -3.34600       -2.29370
H          0.02580       -1.94510       -2.20160
H         -0.42680       -3.46580       -1.42720
H          4.53020       -2.04750       -2.84650
H          2.93130       -1.89730       -2.13820
H          4.61180       -0.75140       -0.71190
H          4.02440       -2.16670        0.17240
H          5.58820       -2.22010       -0.63590
H         11.40920       -4.02670       -6.35270
H         11.13960       -5.77810       -6.56370
H         10.96510       -5.29390       -9.09240
H         12.57500       -5.13170       -8.36850
H         12.28680       -3.19230       -9.77200
H         12.10630       -2.63980       -8.08860
H          9.70740       -0.69640      -10.04740
H          4.35690        2.48080       -9.12110
H          7.97000        4.08140      -12.28910
H          5.02920        5.72320      -12.90720
H          6.66350        7.35030      -11.57380
H          4.47140        8.67370      -12.16390
H          2.55090        7.87080      -10.51300
H          3.56070        6.05440       -8.90580
H          6.20360        5.89470       -9.36300
H          5.70960        7.58520       -9.11570
H          3.14750        4.93480      -11.28850
