
  xtb     02182223473D
 energy: -295.228225006031 gnorm: 0.000743342956 xtb: 6.4.1 (unknown)
173195  0     0  0            999 V2000
    2.8885  -11.9575    3.2478 C   0  0  0  0  0  0  0  0  0  0  0  0
    2.2966  -12.4624    2.1438 C   0  0  0  0  0  0  0  0  0  0  0  0
    1.4291  -13.6738    2.2554 C   0  0  0  0  0  0  0  0  0  0  0  0
    1.3972  -14.4531    3.1791 O   0  0  0  0  0  0  0  0  0  0  0  0
    0.5940  -13.6635    1.0414 C   0  0  0  0  0  0  0  0  0  0  0  0
   -0.4878  -14.4955    0.7547 C   0  0  0  0  0  0  0  0  0  0  0  0
   -1.1046  -14.2198   -0.4414 C   0  0  0  0  0  0  0  0  0  0  0  0
   -0.6826  -13.1906   -1.2958 C   0  0  0  0  0  0  0  0  0  0  0  0
    0.3878  -12.3696   -1.0341 C   0  0  0  0  0  0  0  0  0  0  0  0
    1.0319  -12.6359    0.1779 C   0  0  0  0  0  0  0  0  0  0  0  0
    2.1982  -11.9910    0.7720 C   0  0  0  0  0  0  0  0  0  0  0  0
    3.1496  -11.2798    0.0941 C   0  0  0  0  0  0  0  0  0  0  0  0
    4.3717  -10.8672    0.6668 C   0  0  0  0  0  0  0  0  0  0  0  0
    5.4022  -10.5572    1.0651 N   0  0  0  0  0  0  0  0  0  0  0  0
    3.0653  -10.9570   -1.2766 C   0  0  0  0  0  0  0  0  0  0  0  0
    3.0433  -10.6702   -2.3874 N   0  0  0  0  0  0  0  0  0  0  0  0
   -1.7728  -13.4684   -2.2999 C   0  0  0  0  0  0  0  0  0  0  0  0
   -2.9787  -12.5049   -2.2917 C   0  0  0  0  0  0  0  0  0  0  0  0
   -4.0634  -13.2776   -3.0070 C   0  0  0  0  0  0  0  0  0  0  0  0
   -4.4617  -14.2537   -2.2013 C   0  0  0  0  0  0  0  0  0  0  0  0
   -3.6531  -14.1571   -0.9276 C   0  0  0  0  0  0  0  0  0  0  0  0
   -3.4727  -12.6358   -0.8451 C   0  0  0  0  0  0  0  0  0  0  0  0
   -2.2413  -14.6172   -1.3502 C   0  0  0  0  0  0  0  0  0  0  0  0
    3.4406  -10.6399    3.4476 C   0  0  0  0  0  0  0  0  0  0  0  0
    2.9343   -9.5280    2.7535 C   0  0  0  0  0  0  0  0  0  0  0  0
    3.4717   -8.2911    3.0030 C   0  0  0  0  0  0  0  0  0  0  0  0
    3.1177   -6.9808    2.3953 C   0  0  0  0  0  0  0  0  0  0  0  0
    2.2773   -6.7592    1.5559 O   0  0  0  0  0  0  0  0  0  0  0  0
    4.0237   -6.0128    3.0653 C   0  0  0  0  0  0  0  0  0  0  0  0
    4.8408   -6.6941    3.9901 C   0  0  0  0  0  0  0  0  0  0  0  0
    4.5098   -8.1109    3.9402 C   0  0  0  0  0  0  0  0  0  0  0  0
    5.0018   -9.1993    4.6370 C   0  0  0  0  0  0  0  0  0  0  0  0
    4.4538  -10.4486    4.3927 C   0  0  0  0  0  0  0  0  0  0  0  0
    5.7308   -5.9785    4.7695 C   0  0  0  0  0  0  0  0  0  0  0  0
    5.7990   -4.6016    4.6233 C   0  0  0  0  0  0  0  0  0  0  0  0
    5.0099   -3.9194    3.6900 C   0  0  0  0  0  0  0  0  0  0  0  0
    4.1050   -4.6526    2.9027 C   0  0  0  0  0  0  0  0  0  0  0  0
    5.0484   -2.4810    3.5640 C   0  0  0  0  0  0  0  0  0  0  0  0
    6.0127   -1.5680    3.9446 C   0  0  0  0  0  0  0  0  0  0  0  0
    7.3768   -1.8657    4.3900 C   0  0  0  0  0  0  0  0  0  0  0  0
    8.1690   -2.7765    3.6938 C   0  0  0  0  0  0  0  0  0  0  0  0
    9.4746   -2.9929    4.0883 C   0  0  0  0  0  0  0  0  0  0  0  0
   10.0033   -2.3038    5.1672 C   0  0  0  0  0  0  0  0  0  0  0  0
    9.2297   -1.3882    5.8678 C   0  0  0  0  0  0  0  0  0  0  0  0
    9.8075   -0.5878    6.9987 C   0  0  0  0  0  0  0  0  0  0  0  0
   10.2680    0.7809    6.4931 C   0  0  0  0  0  0  0  0  0  0  0  0
    7.9180   -1.1760    5.4684 C   0  0  0  0  0  0  0  0  0  0  0  0
    5.5728   -0.2405    3.7456 C   0  0  0  0  0  0  0  0  0  0  0  0
    6.3249    1.3146    4.0229 S   0  0  0  0  0  0  0  0  0  0  0  0
    4.9211    2.0884    3.3652 C   0  0  0  0  0  0  0  0  0  0  0  0
    4.4682    3.3752    3.0280 C   0  0  0  0  0  0  0  0  0  0  0  0
    5.1075    4.6326    3.0789 C   0  0  0  0  0  0  0  0  0  0  0  0
    4.4564    5.7675    2.4867 C   0  0  0  0  0  0  0  0  0  0  0  0
    5.1970    6.8633    2.5471 N   0  0  0  0  0  0  0  0  0  0  0  0
    6.5886    6.5019    3.2915 S   0  0  0  0  0  0  0  0  0  0  0  0
    6.3033    4.9309    3.5625 N   0  0  0  0  0  0  0  0  0  0  0  0
    3.1514    5.6164    1.9704 C   0  0  0  0  0  0  0  0  0  0  0  0
    2.2579    6.5475    1.4109 C   0  0  0  0  0  0  0  0  0  0  0  0
    2.2049    8.2190    0.9608 S   0  0  0  0  0  0  0  0  0  0  0  0
    0.5572    7.9992    0.4154 C   0  0  0  0  0  0  0  0  0  0  0  0
   -0.3899    8.8725   -0.1655 C   0  0  0  0  0  0  0  0  0  0  0  0
   -0.1442   10.3085   -0.3182 C   0  0  0  0  0  0  0  0  0  0  0  0
   -1.1047   11.2372    0.0787 C   0  0  0  0  0  0  0  0  0  0  0  0
   -0.8394   12.5883   -0.0249 C   0  0  0  0  0  0  0  0  0  0  0  0
    0.3795   13.0265   -0.5155 C   0  0  0  0  0  0  0  0  0  0  0  0
    1.3530   12.1153   -0.9027 C   0  0  0  0  0  0  0  0  0  0  0  0
    2.6671   12.5771   -1.4634 C   0  0  0  0  0  0  0  0  0  0  0  0
    2.6207   12.5972   -2.9925 C   0  0  0  0  0  0  0  0  0  0  0  0
    1.0794   10.7590   -0.8005 C   0  0  0  0  0  0  0  0  0  0  0  0
   -1.5668    8.2128   -0.4605 C   0  0  0  0  0  0  0  0  0  0  0  0
   -1.5274    6.5254    0.0315 S   0  0  0  0  0  0  0  0  0  0  0  0
    0.0926    6.6971    0.5954 C   0  0  0  0  0  0  0  0  0  0  0  0
    1.0654    5.8675    1.1670 C   0  0  0  0  0  0  0  0  0  0  0  0
    1.1791    4.5501    1.5341 N   0  0  0  0  0  0  0  0  0  0  0  0
    2.4688    4.3701    2.0186 C   0  0  0  0  0  0  0  0  0  0  0  0
    3.1776    3.2185    2.4474 C   0  0  0  0  0  0  0  0  0  0  0  0
    2.8796    1.8699    2.4061 N   0  0  0  0  0  0  0  0  0  0  0  0
    3.9289    1.1922    2.9649 C   0  0  0  0  0  0  0  0  0  0  0  0
    4.3007   -0.1400    3.1842 C   0  0  0  0  0  0  0  0  0  0  0  0
    3.6119   -1.6973    2.9189 S   0  0  0  0  0  0  0  0  0  0  0  0
    1.9017    1.1464    1.6268 C   0  0  0  0  0  0  0  0  0  0  0  0
    0.8289    0.5016    2.5031 C   0  0  0  0  0  0  0  0  0  0  0  0
   -0.0331    3.8487    1.9041 C   0  0  0  0  0  0  0  0  0  0  0  0
   -0.3266    4.0162    3.3936 C   0  0  0  0  0  0  0  0  0  0  0  0
   -2.7345    8.6597   -1.1853 C   0  0  0  0  0  0  0  0  0  0  0  0
   -3.9619    8.0039   -0.9902 C   0  0  0  0  0  0  0  0  0  0  0  0
   -5.0498    8.3856   -1.7354 C   0  0  0  0  0  0  0  0  0  0  0  0
   -6.4294    7.8275   -1.7342 C   0  0  0  0  0  0  0  0  0  0  0  0
   -6.8761    6.9614   -1.0220 O   0  0  0  0  0  0  0  0  0  0  0  0
   -7.1325    8.5916   -2.8005 C   0  0  0  0  0  0  0  0  0  0  0  0
   -6.2564    9.5581   -3.3376 C   0  0  0  0  0  0  0  0  0  0  0  0
   -4.9621    9.4213   -2.6866 C   0  0  0  0  0  0  0  0  0  0  0  0
   -3.7576   10.0724   -2.8811 C   0  0  0  0  0  0  0  0  0  0  0  0
   -2.6549    9.6817   -2.1381 C   0  0  0  0  0  0  0  0  0  0  0  0
   -6.7042   10.4258   -4.3174 C   0  0  0  0  0  0  0  0  0  0  0  0
   -8.0069   10.2964   -4.7710 C   0  0  0  0  0  0  0  0  0  0  0  0
   -8.8577    9.2915   -4.2962 C   0  0  0  0  0  0  0  0  0  0  0  0
   -8.4147    8.4425   -3.2682 C   0  0  0  0  0  0  0  0  0  0  0  0
  -10.1859    9.1817   -4.8528 C   0  0  0  0  0  0  0  0  0  0  0  0
  -10.8484    8.0307   -5.1207 C   0  0  0  0  0  0  0  0  0  0  0  0
  -10.2249    6.6748   -5.1830 C   0  0  0  0  0  0  0  0  0  0  0  0
   -9.0929    6.3597   -4.8950 O   0  0  0  0  0  0  0  0  0  0  0  0
  -11.2557    5.8002   -5.7737 C   0  0  0  0  0  0  0  0  0  0  0  0
  -11.1633    4.4555   -6.0694 C   0  0  0  0  0  0  0  0  0  0  0  0
  -12.2606    3.8119   -6.6360 C   0  0  0  0  0  0  0  0  0  0  0  0
  -12.2108    2.3500   -6.9439 C   0  0  0  0  0  0  0  0  0  0  0  0
  -13.4165    4.5487   -6.8936 C   0  0  0  0  0  0  0  0  0  0  0  0
  -13.5158    5.8996   -6.6020 C   0  0  0  0  0  0  0  0  0  0  0  0
  -12.4235    6.5392   -6.0320 C   0  0  0  0  0  0  0  0  0  0  0  0
  -12.2158    7.9185   -5.6138 C   0  0  0  0  0  0  0  0  0  0  0  0
  -13.1597    8.9092   -5.6224 C   0  0  0  0  0  0  0  0  0  0  0  0
  -12.9647   10.2242   -5.1482 C   0  0  0  0  0  0  0  0  0  0  0  0
  -12.8877   11.3083   -4.7775 N   0  0  0  0  0  0  0  0  0  0  0  0
  -14.4793    8.7401   -6.0940 C   0  0  0  0  0  0  0  0  0  0  0  0
  -15.5611    8.6698   -6.4708 N   0  0  0  0  0  0  0  0  0  0  0  0
    2.8812  -12.6107    4.1151 H   0  0  0  0  0  0  0  0  0  0  0  0
   -0.7831  -15.2758    1.4384 H   0  0  0  0  0  0  0  0  0  0  0  0
    0.7024  -11.5771   -1.6931 H   0  0  0  0  0  0  0  0  0  0  0  0
   -1.4388  -13.7239   -3.3035 H   0  0  0  0  0  0  0  0  0  0  0  0
   -2.7650  -11.5055   -2.6605 H   0  0  0  0  0  0  0  0  0  0  0  0
   -4.3797  -13.0753   -4.0134 H   0  0  0  0  0  0  0  0  0  0  0  0
   -5.1772  -15.0299   -2.4001 H   0  0  0  0  0  0  0  0  0  0  0  0
   -4.0547  -14.6626   -0.0535 H   0  0  0  0  0  0  0  0  0  0  0  0
   -4.4168  -12.1179   -0.6846 H   0  0  0  0  0  0  0  0  0  0  0  0
   -2.7499  -12.3138   -0.0976 H   0  0  0  0  0  0  0  0  0  0  0  0
   -2.2195  -15.6405   -1.7199 H   0  0  0  0  0  0  0  0  0  0  0  0
    2.1107   -9.6303    2.0624 H   0  0  0  0  0  0  0  0  0  0  0  0
    5.7940   -9.0846    5.3609 H   0  0  0  0  0  0  0  0  0  0  0  0
    4.8318  -11.3085    4.9263 H   0  0  0  0  0  0  0  0  0  0  0  0
    6.3560   -6.4730    5.4973 H   0  0  0  0  0  0  0  0  0  0  0  0
    6.4661   -4.0388    5.2571 H   0  0  0  0  0  0  0  0  0  0  0  0
    3.4731   -4.1560    2.1806 H   0  0  0  0  0  0  0  0  0  0  0  0
    7.7591   -3.3025    2.8442 H   0  0  0  0  0  0  0  0  0  0  0  0
   10.0873   -3.6982    3.5464 H   0  0  0  0  0  0  0  0  0  0  0  0
   11.0275   -2.4762    5.4653 H   0  0  0  0  0  0  0  0  0  0  0  0
    9.0536   -0.4478    7.7764 H   0  0  0  0  0  0  0  0  0  0  0  0
   10.6560   -1.1180    7.4354 H   0  0  0  0  0  0  0  0  0  0  0  0
   11.0304    0.6627    5.7264 H   0  0  0  0  0  0  0  0  0  0  0  0
   10.6834    1.3677    7.3089 H   0  0  0  0  0  0  0  0  0  0  0  0
    9.4318    1.3261    6.0613 H   0  0  0  0  0  0  0  0  0  0  0  0
    7.3042   -0.4713    6.0106 H   0  0  0  0  0  0  0  0  0  0  0  0
   -2.0492   10.8941    0.4746 H   0  0  0  0  0  0  0  0  0  0  0  0
   -1.5849   13.3056    0.2854 H   0  0  0  0  0  0  0  0  0  0  0  0
    0.5797   14.0857   -0.5897 H   0  0  0  0  0  0  0  0  0  0  0  0
    3.4621   11.9042   -1.1362 H   0  0  0  0  0  0  0  0  0  0  0  0
    2.8940   13.5797   -1.0964 H   0  0  0  0  0  0  0  0  0  0  0  0
    2.4102   11.6022   -3.3784 H   0  0  0  0  0  0  0  0  0  0  0  0
    3.5729   12.9316   -3.3973 H   0  0  0  0  0  0  0  0  0  0  0  0
    1.8401   13.2711   -3.3391 H   0  0  0  0  0  0  0  0  0  0  0  0
    1.8267   10.0419   -1.1077 H   0  0  0  0  0  0  0  0  0  0  0  0
    1.4798    1.8176    0.8780 H   0  0  0  0  0  0  0  0  0  0  0  0
    2.4324    0.3520    1.0896 H   0  0  0  0  0  0  0  0  0  0  0  0
    0.3452    1.2313    3.1464 H   0  0  0  0  0  0  0  0  0  0  0  0
    0.0781    0.0272    1.8770 H   0  0  0  0  0  0  0  0  0  0  0  0
    1.2774   -0.2609    3.1343 H   0  0  0  0  0  0  0  0  0  0  0  0
   -0.8413    4.2914    1.3167 H   0  0  0  0  0  0  0  0  0  0  0  0
    0.0216    2.7953    1.6480 H   0  0  0  0  0  0  0  0  0  0  0  0
    0.4821    3.6005    3.9916 H   0  0  0  0  0  0  0  0  0  0  0  0
   -1.2532    3.5094    3.6493 H   0  0  0  0  0  0  0  0  0  0  0  0
   -0.4277    5.0705    3.6415 H   0  0  0  0  0  0  0  0  0  0  0  0
   -4.0508    7.2053   -0.2679 H   0  0  0  0  0  0  0  0  0  0  0  0
   -3.6616   10.8595   -3.6136 H   0  0  0  0  0  0  0  0  0  0  0  0
   -1.7048   10.1619   -2.3129 H   0  0  0  0  0  0  0  0  0  0  0  0
   -6.0583   11.1894   -4.7237 H   0  0  0  0  0  0  0  0  0  0  0  0
   -8.3700   10.9631   -5.5404 H   0  0  0  0  0  0  0  0  0  0  0  0
   -9.0702    7.7064   -2.8321 H   0  0  0  0  0  0  0  0  0  0  0  0
  -10.6582   10.1230   -5.1078 H   0  0  0  0  0  0  0  0  0  0  0  0
  -10.2491    3.9219   -5.8566 H   0  0  0  0  0  0  0  0  0  0  0  0
  -11.1865    2.0196   -7.0958 H   0  0  0  0  0  0  0  0  0  0  0  0
  -12.7970    2.1186   -7.8301 H   0  0  0  0  0  0  0  0  0  0  0  0
  -12.6279    1.7842   -6.1100 H   0  0  0  0  0  0  0  0  0  0  0  0
  -14.2646    4.0484   -7.3383 H   0  0  0  0  0  0  0  0  0  0  0  0
  -14.4268    6.4302   -6.8254 H   0  0  0  0  0  0  0  0  0  0  0  0
  1  2  2  0  0  0  0
  2  3  1  0  0  0  0
  3  4  2  0  0  0  0
  3  5  1  0  0  0  0
  5  6  2  0  0  0  0
  6  7  1  0  0  0  0
  7  8  2  0  0  0  0
  8  9  1  0  0  0  0
  9 10  2  0  0  0  0
 10 11  1  0  0  0  0
 11 12  2  0  0  0  0
 12 13  1  0  0  0  0
 13 14  3  0  0  0  0
 12 15  1  0  0  0  0
 15 16  3  0  0  0  0
  8 17  1  0  0  0  0
 17 18  1  0  0  0  0
 18 19  1  0  0  0  0
 19 20  2  0  0  0  0
 20 21  1  0  0  0  0
 21 22  1  0  0  0  0
 21 23  1  0  0  0  0
  1 24  1  0  0  0  0
 24 25  2  0  0  0  0
 25 26  1  0  0  0  0
 26 27  1  0  0  0  0
 27 28  2  0  0  0  0
 27 29  1  0  0  0  0
 29 30  2  0  0  0  0
 30 31  1  0  0  0  0
 31 32  1  0  0  0  0
 32 33  2  0  0  0  0
 30 34  1  0  0  0  0
 34 35  2  0  0  0  0
 35 36  1  0  0  0  0
 36 37  2  0  0  0  0
 36 38  1  0  0  0  0
 38 39  2  0  0  0  0
 39 40  1  0  0  0  0
 40 41  2  0  0  0  0
 41 42  1  0  0  0  0
 42 43  2  0  0  0  0
 43 44  1  0  0  0  0
 44 45  1  0  0  0  0
 45 46  1  0  0  0  0
 44 47  2  0  0  0  0
 39 48  1  0  0  0  0
 48 49  1  0  0  0  0
 49 50  1  0  0  0  0
 50 51  1  0  0  0  0
 51 52  1  0  0  0  0
 52 53  1  0  0  0  0
 53 54  2  0  0  0  0
 54 55  1  0  0  0  0
 55 56  1  0  0  0  0
 53 57  1  0  0  0  0
 57 58  1  0  0  0  0
 58 59  1  0  0  0  0
 59 60  1  0  0  0  0
 60 61  1  0  0  0  0
 61 62  1  0  0  0  0
 62 63  2  0  0  0  0
 63 64  1  0  0  0  0
 64 65  2  0  0  0  0
 65 66  1  0  0  0  0
 66 67  1  0  0  0  0
 67 68  1  0  0  0  0
 66 69  2  0  0  0  0
 61 70  2  0  0  0  0
 70 71  1  0  0  0  0
 71 72  1  0  0  0  0
 72 73  1  0  0  0  0
 73 74  1  0  0  0  0
 74 75  1  0  0  0  0
 75 76  1  0  0  0  0
 76 77  1  0  0  0  0
 77 78  1  0  0  0  0
 78 79  1  0  0  0  0
 79 80  1  0  0  0  0
 77 81  1  0  0  0  0
 81 82  1  0  0  0  0
 74 83  1  0  0  0  0
 83 84  1  0  0  0  0
 70 85  1  0  0  0  0
 85 86  2  0  0  0  0
 86 87  1  0  0  0  0
 87 88  1  0  0  0  0
 88 89  2  0  0  0  0
 88 90  1  0  0  0  0
 90 91  2  0  0  0  0
 91 92  1  0  0  0  0
 92 93  1  0  0  0  0
 93 94  2  0  0  0  0
 91 95  1  0  0  0  0
 95 96  2  0  0  0  0
 96 97  1  0  0  0  0
 97 98  2  0  0  0  0
 97 99  1  0  0  0  0
 99100  2  0  0  0  0
100101  1  0  0  0  0
101102  2  0  0  0  0
101103  1  0  0  0  0
103104  2  0  0  0  0
104105  1  0  0  0  0
105106  1  0  0  0  0
105107  2  0  0  0  0
107108  1  0  0  0  0
108109  2  0  0  0  0
109110  1  0  0  0  0
110111  2  0  0  0  0
111112  1  0  0  0  0
112113  3  0  0  0  0
111114  1  0  0  0  0
114115  3  0  0  0  0
 11  2  1  0  0  0  0
 23 17  1  0  0  0  0
 33 24  1  0  0  0  0
 80 38  1  0  0  0  0
 94 85  1  0  0  0  0
110100  1  0  0  0  0
 10  5  1  0  0  0  0
 22 18  1  0  0  0  0
 31 26  2  0  0  0  0
 47 40  1  0  0  0  0
 79 48  2  0  0  0  0
 92 87  2  0  0  0  0
109103  1  0  0  0  0
 23  7  1  0  0  0  0
 37 29  1  0  0  0  0
 78 50  2  0  0  0  0
 98 90  1  0  0  0  0
 76 51  2  0  0  0  0
 56 52  2  0  0  0  0
 75 57  2  0  0  0  0
 73 58  2  0  0  0  0
 72 60  2  0  0  0  0
 69 62  1  0  0  0  0
  1116  1  0  0  0  0
  6117  1  0  0  0  0
  9118  1  0  0  0  0
 17119  1  0  0  0  0
 18120  1  0  0  0  0
 19121  1  0  0  0  0
 20122  1  0  0  0  0
 21123  1  0  0  0  0
 22124  1  0  0  0  0
 22125  1  0  0  0  0
 23126  1  0  0  0  0
 25127  1  0  0  0  0
 32128  1  0  0  0  0
 33129  1  0  0  0  0
 34130  1  0  0  0  0
 35131  1  0  0  0  0
 37132  1  0  0  0  0
 41133  1  0  0  0  0
 42134  1  0  0  0  0
 43135  1  0  0  0  0
 45136  1  0  0  0  0
 45137  1  0  0  0  0
 46138  1  0  0  0  0
 46139  1  0  0  0  0
 46140  1  0  0  0  0
 47141  1  0  0  0  0
 63142  1  0  0  0  0
 64143  1  0  0  0  0
 65144  1  0  0  0  0
 67145  1  0  0  0  0
 67146  1  0  0  0  0
 68147  1  0  0  0  0
 68148  1  0  0  0  0
 68149  1  0  0  0  0
 69150  1  0  0  0  0
 81151  1  0  0  0  0
 81152  1  0  0  0  0
 82153  1  0  0  0  0
 82154  1  0  0  0  0
 82155  1  0  0  0  0
 83156  1  0  0  0  0
 83157  1  0  0  0  0
 84158  1  0  0  0  0
 84159  1  0  0  0  0
 84160  1  0  0  0  0
 86161  1  0  0  0  0
 93162  1  0  0  0  0
 94163  1  0  0  0  0
 95164  1  0  0  0  0
 96165  1  0  0  0  0
 98166  1  0  0  0  0
 99167  1  0  0  0  0
104168  1  0  0  0  0
106169  1  0  0  0  0
106170  1  0  0  0  0
106171  1  0  0  0  0
107172  1  0  0  0  0
108173  1  0  0  0  0
M  END
