
  xtb     02152222283D
 energy: -355.358628836025 gnorm: 0.000876981933 xtb: 6.4.1 (unknown)
212236  0     0  0            999 V2000
    5.5550   -3.0404   -8.4696 C   0  0  0  0  0  0  0  0  0  0  0  0
    6.7524   -3.5265   -8.8654 C   0  0  0  0  0  0  0  0  0  0  0  0
    8.0845   -2.9005   -8.6213 C   0  0  0  0  0  0  0  0  0  0  0  0
    8.3050   -1.7560   -8.2994 O   0  0  0  0  0  0  0  0  0  0  0  0
    9.0731   -3.9354   -8.9779 C   0  0  0  0  0  0  0  0  0  0  0  0
   10.4516   -3.8811   -8.7809 C   0  0  0  0  0  0  0  0  0  0  0  0
   11.1197   -5.0112   -9.1859 C   0  0  0  0  0  0  0  0  0  0  0  0
   10.4685   -6.1120   -9.7612 C   0  0  0  0  0  0  0  0  0  0  0  0
    9.1136   -6.1735   -9.9770 C   0  0  0  0  0  0  0  0  0  0  0  0
    8.4113   -5.0359   -9.5621 C   0  0  0  0  0  0  0  0  0  0  0  0
    6.9813   -4.7542   -9.6156 C   0  0  0  0  0  0  0  0  0  0  0  0
    6.0402   -5.4953  -10.2771 C   0  0  0  0  0  0  0  0  0  0  0  0
    4.6686   -5.1761  -10.3813 C   0  0  0  0  0  0  0  0  0  0  0  0
    3.5443   -4.9965  -10.5308 N   0  0  0  0  0  0  0  0  0  0  0  0
    6.3218   -6.6720  -11.0042 C   0  0  0  0  0  0  0  0  0  0  0  0
    6.4786   -7.6321  -11.6136 N   0  0  0  0  0  0  0  0  0  0  0  0
   11.7491   -6.8953   -9.9076 C   0  0  0  0  0  0  0  0  0  0  0  0
   11.9893   -8.0168   -8.8748 C   0  0  0  0  0  0  0  0  0  0  0  0
   13.4775   -8.2699   -8.9546 C   0  0  0  0  0  0  0  0  0  0  0  0
   14.0934   -7.2295   -8.4078 C   0  0  0  0  0  0  0  0  0  0  0  0
   13.0318   -6.2559   -7.9491 C   0  0  0  0  0  0  0  0  0  0  0  0
   11.9244   -7.2410   -7.5528 C   0  0  0  0  0  0  0  0  0  0  0  0
   12.4745   -5.6700   -9.2644 C   0  0  0  0  0  0  0  0  0  0  0  0
    5.3169   -1.9421   -7.5723 C   0  0  0  0  0  0  0  0  0  0  0  0
    6.0697   -1.6519   -6.4438 C   0  0  0  0  0  0  0  0  0  0  0  0
    7.0916   -2.4421   -6.0847 F   0  0  0  0  0  0  0  0  0  0  0  0
    5.7257   -0.6234   -5.5681 C   0  0  0  0  0  0  0  0  0  0  0  0
    6.5140   -0.4721   -4.4882 F   0  0  0  0  0  0  0  0  0  0  0  0
    4.6059    0.1880   -5.7475 C   0  0  0  0  0  0  0  0  0  0  0  0
    3.8195   -0.0902   -6.9074 C   0  0  0  0  0  0  0  0  0  0  0  0
    2.7284    0.6639   -7.1596 N   0  0  0  0  0  0  0  0  0  0  0  0
    1.9712    0.3630   -8.1851 C   0  0  0  0  0  0  0  0  0  0  0  0
    0.8859    1.0563   -8.5040 O   0  0  0  0  0  0  0  0  0  0  0  0
    0.5571    2.2283   -7.7617 C   0  0  0  0  0  0  0  0  0  0  0  0
    1.4681    3.3959   -8.1081 C   0  0  0  0  0  0  0  0  0  0  0  0
    2.2724   -0.7670   -9.0240 C   0  0  0  0  0  0  0  0  0  0  0  0
    3.3446   -1.4669   -8.8112 N   0  0  0  0  0  0  0  0  0  0  0  0
    4.1499   -1.1551   -7.7723 C   0  0  0  0  0  0  0  0  0  0  0  0
    1.3637   -1.1495  -10.1364 C   0  0  0  0  0  0  0  0  0  0  0  0
    4.1678    1.1571   -4.7912 C   0  0  0  0  0  0  0  0  0  0  0  0
    4.7034    1.4577   -3.5508 C   0  0  0  0  0  0  0  0  0  0  0  0
    3.8793    2.3044   -2.8139 C   0  0  0  0  0  0  0  0  0  0  0  0
    3.8764    2.8325   -1.1508 S   0  0  0  0  0  0  0  0  0  0  0  0
    2.2835    3.4809   -1.3795 C   0  0  0  0  0  0  0  0  0  0  0  0
    1.2143    3.8709   -0.5105 C   0  0  0  0  0  0  0  0  0  0  0  0
    1.1557    3.9621    0.8769 C   0  0  0  0  0  0  0  0  0  0  0  0
   -0.0888    4.1057    1.4447 C   0  0  0  0  0  0  0  0  0  0  0  0
   -0.4429    4.1095    2.9216 C   0  0  0  0  0  0  0  0  0  0  0  0
   -0.1464    5.4303    3.6129 C   0  0  0  0  0  0  0  0  0  0  0  0
    0.2702    6.5546    2.9167 C   0  0  0  0  0  0  0  0  0  0  0  0
    0.4880    7.7472    3.5843 C   0  0  0  0  0  0  0  0  0  0  0  0
    0.2846    7.8488    4.9530 C   0  0  0  0  0  0  0  0  0  0  0  0
    0.5676    9.1308    5.6816 C   0  0  0  0  0  0  0  0  0  0  0  0
    2.0145    9.1514    6.1789 C   0  0  0  0  0  0  0  0  0  0  0  0
   -0.1413    6.7201    5.6432 C   0  0  0  0  0  0  0  0  0  0  0  0
   -0.3563    5.5265    4.9837 C   0  0  0  0  0  0  0  0  0  0  0  0
    0.2435    2.9514    3.6159 C   0  0  0  0  0  0  0  0  0  0  0  0
    1.5049    3.1202    4.1727 C   0  0  0  0  0  0  0  0  0  0  0  0
    2.1514    2.0597    4.7779 C   0  0  0  0  0  0  0  0  0  0  0  0
    1.5583    0.8057    4.8434 C   0  0  0  0  0  0  0  0  0  0  0  0
    2.2799   -0.3525    5.4700 C   0  0  0  0  0  0  0  0  0  0  0  0
    3.1703   -1.0481    4.4383 C   0  0  0  0  0  0  0  0  0  0  0  0
    0.3048    0.6386    4.2712 C   0  0  0  0  0  0  0  0  0  0  0  0
   -0.3442    1.6952    3.6598 C   0  0  0  0  0  0  0  0  0  0  0  0
   -1.9403    3.9787    2.8475 C   0  0  0  0  0  0  0  0  0  0  0  0
   -2.3725    4.0725    1.5373 C   0  0  0  0  0  0  0  0  0  0  0  0
   -1.2559    4.1450    0.6459 C   0  0  0  0  0  0  0  0  0  0  0  0
   -1.1905    4.1320   -0.7457 C   0  0  0  0  0  0  0  0  0  0  0  0
    0.0545    4.0008   -1.3136 C   0  0  0  0  0  0  0  0  0  0  0  0
    0.4030    3.8695   -2.7860 C   0  0  0  0  0  0  0  0  0  0  0  0
    0.4335    5.2180   -3.4890 C   0  0  0  0  0  0  0  0  0  0  0  0
    1.0138    5.2971   -4.7505 C   0  0  0  0  0  0  0  0  0  0  0  0
    1.0837    6.5031   -5.4191 C   0  0  0  0  0  0  0  0  0  0  0  0
    0.5804    7.6655   -4.8475 C   0  0  0  0  0  0  0  0  0  0  0  0
    0.6167    8.9673   -5.5947 C   0  0  0  0  0  0  0  0  0  0  0  0
   -0.6366    9.1220   -6.4587 C   0  0  0  0  0  0  0  0  0  0  0  0
    0.0019    7.5811   -3.5896 C   0  0  0  0  0  0  0  0  0  0  0  0
   -0.0695    6.3751   -2.9139 C   0  0  0  0  0  0  0  0  0  0  0  0
   -0.4609    2.8578   -3.5115 C   0  0  0  0  0  0  0  0  0  0  0  0
   -1.3476    3.2157   -4.5154 C   0  0  0  0  0  0  0  0  0  0  0  0
   -2.0588    2.2458   -5.2010 C   0  0  0  0  0  0  0  0  0  0  0  0
   -1.9091    0.9002   -4.8991 C   0  0  0  0  0  0  0  0  0  0  0  0
   -2.6220   -0.1613   -5.6867 C   0  0  0  0  0  0  0  0  0  0  0  0
   -1.6982   -0.7574   -6.7516 C   0  0  0  0  0  0  0  0  0  0  0  0
   -1.0469    0.5496   -3.8666 C   0  0  0  0  0  0  0  0  0  0  0  0
   -0.3360    1.5128   -3.1801 C   0  0  0  0  0  0  0  0  0  0  0  0
    1.8219    3.3714   -2.6786 C   0  0  0  0  0  0  0  0  0  0  0  0
    2.7180    2.6923   -3.4976 C   0  0  0  0  0  0  0  0  0  0  0  0
    2.6564    1.9996   -5.0769 S   0  0  0  0  0  0  0  0  0  0  0  0
   -4.0860    3.8885    1.3480 S   0  0  0  0  0  0  0  0  0  0  0  0
   -4.2283    3.6212    3.0626 C   0  0  0  0  0  0  0  0  0  0  0  0
   -5.2772    3.2174    3.8873 C   0  0  0  0  0  0  0  0  0  0  0  0
   -4.8646    3.0180    5.1863 C   0  0  0  0  0  0  0  0  0  0  0  0
   -3.1583    3.3909    5.4021 S   0  0  0  0  0  0  0  0  0  0  0  0
   -2.9952    3.7312    3.7250 C   0  0  0  0  0  0  0  0  0  0  0  0
   -5.6089    2.4384    6.2707 C   0  0  0  0  0  0  0  0  0  0  0  0
   -5.2635    2.6542    7.6002 C   0  0  0  0  0  0  0  0  0  0  0  0
   -4.2915    3.5332    7.9095 F   0  0  0  0  0  0  0  0  0  0  0  0
   -5.8806    1.9796    8.6521 C   0  0  0  0  0  0  0  0  0  0  0  0
   -5.4648    2.2256    9.9053 F   0  0  0  0  0  0  0  0  0  0  0  0
   -6.8398    1.0069    8.4352 C   0  0  0  0  0  0  0  0  0  0  0  0
   -7.2752    0.8128    7.0968 C   0  0  0  0  0  0  0  0  0  0  0  0
   -8.2962   -0.0375    6.8673 N   0  0  0  0  0  0  0  0  0  0  0  0
   -8.6896   -0.2234    5.6361 C   0  0  0  0  0  0  0  0  0  0  0  0
   -9.7222   -1.0156    5.3536 O   0  0  0  0  0  0  0  0  0  0  0  0
  -10.3248   -1.7253    6.4327 C   0  0  0  0  0  0  0  0  0  0  0  0
   -9.6258   -3.0587    6.6617 C   0  0  0  0  0  0  0  0  0  0  0  0
   -8.0462    0.4402    4.5384 C   0  0  0  0  0  0  0  0  0  0  0  0
   -7.0865    1.2869    4.7640 N   0  0  0  0  0  0  0  0  0  0  0  0
   -6.6787    1.5240    6.0294 C   0  0  0  0  0  0  0  0  0  0  0  0
   -8.4790    0.1815    3.1380 C   0  0  0  0  0  0  0  0  0  0  0  0
   -7.3974    0.2190    9.5084 C   0  0  0  0  0  0  0  0  0  0  0  0
   -7.5023   -1.1274    9.4278 C   0  0  0  0  0  0  0  0  0  0  0  0
   -6.7219   -1.9539    8.4628 C   0  0  0  0  0  0  0  0  0  0  0  0
   -6.0220   -1.5761    7.5488 O   0  0  0  0  0  0  0  0  0  0  0  0
   -6.8890   -3.3470    8.9157 C   0  0  0  0  0  0  0  0  0  0  0  0
   -6.2997   -4.4770    8.3521 C   0  0  0  0  0  0  0  0  0  0  0  0
   -6.6386   -5.6535    8.9735 C   0  0  0  0  0  0  0  0  0  0  0  0
   -7.4908   -5.7049   10.0859 C   0  0  0  0  0  0  0  0  0  0  0  0
   -8.0664   -4.5977   10.6613 C   0  0  0  0  0  0  0  0  0  0  0  0
   -7.7449   -3.3887   10.0355 C   0  0  0  0  0  0  0  0  0  0  0  0
   -8.1759   -2.0307   10.3445 C   0  0  0  0  0  0  0  0  0  0  0  0
   -9.1304   -1.6698   11.2560 C   0  0  0  0  0  0  0  0  0  0  0  0
   -9.5916   -0.3478   11.4384 C   0  0  0  0  0  0  0  0  0  0  0  0
  -10.0304    0.6957   11.6278 N   0  0  0  0  0  0  0  0  0  0  0  0
   -9.8159   -2.5734   12.0945 C   0  0  0  0  0  0  0  0  0  0  0  0
  -10.4085   -3.2613   12.7969 N   0  0  0  0  0  0  0  0  0  0  0  0
   -7.4074   -7.2079   10.1784 C   0  0  0  0  0  0  0  0  0  0  0  0
   -8.6119   -8.0252    9.6481 C   0  0  0  0  0  0  0  0  0  0  0  0
   -9.2781   -7.1735    8.5961 C   0  0  0  0  0  0  0  0  0  0  0  0
   -8.4715   -7.1240    7.5444 C   0  0  0  0  0  0  0  0  0  0  0  0
   -7.2450   -7.9417    7.8664 C   0  0  0  0  0  0  0  0  0  0  0  0
   -7.8698   -9.0306    8.7529 C   0  0  0  0  0  0  0  0  0  0  0  0
   -6.4582   -7.1496    8.9402 C   0  0  0  0  0  0  0  0  0  0  0  0
    4.6451   -3.4856   -8.8501 H   0  0  0  0  0  0  0  0  0  0  0  0
   10.9125   -3.0134   -8.3359 H   0  0  0  0  0  0  0  0  0  0  0  0
    8.6267   -7.0262  -10.4200 H   0  0  0  0  0  0  0  0  0  0  0  0
   12.0151   -7.1858  -10.9220 H   0  0  0  0  0  0  0  0  0  0  0  0
   11.3393   -8.8809   -8.9822 H   0  0  0  0  0  0  0  0  0  0  0  0
   13.9157   -9.1253   -9.4344 H   0  0  0  0  0  0  0  0  0  0  0  0
   15.1490   -7.0423   -8.3395 H   0  0  0  0  0  0  0  0  0  0  0  0
   13.3316   -5.5160   -7.2119 H   0  0  0  0  0  0  0  0  0  0  0  0
   10.9616   -6.7722   -7.3587 H   0  0  0  0  0  0  0  0  0  0  0  0
   12.2076   -7.8565   -6.7005 H   0  0  0  0  0  0  0  0  0  0  0  0
   13.2272   -5.1437   -9.8483 H   0  0  0  0  0  0  0  0  0  0  0  0
   -0.4731    2.4479   -8.0524 H   0  0  0  0  0  0  0  0  0  0  0  0
    0.5935    2.0092   -6.6913 H   0  0  0  0  0  0  0  0  0  0  0  0
    1.0962    4.2942   -7.6258 H   0  0  0  0  0  0  0  0  0  0  0  0
    1.4839    3.5519   -9.1845 H   0  0  0  0  0  0  0  0  0  0  0  0
    2.4795    3.1997   -7.7631 H   0  0  0  0  0  0  0  0  0  0  0  0
    1.7397   -2.0480  -10.6163 H   0  0  0  0  0  0  0  0  0  0  0  0
    0.3612   -1.3236   -9.7496 H   0  0  0  0  0  0  0  0  0  0  0  0
    1.3005   -0.3388  -10.8603 H   0  0  0  0  0  0  0  0  0  0  0  0
    5.6238    1.0553   -3.1744 H   0  0  0  0  0  0  0  0  0  0  0  0
    2.0471    3.8703    1.4782 H   0  0  0  0  0  0  0  0  0  0  0  0
    0.4301    6.5032    1.8496 H   0  0  0  0  0  0  0  0  0  0  0  0
    0.8178    8.6134    3.0280 H   0  0  0  0  0  0  0  0  0  0  0  0
   -0.1070    9.2281    6.5344 H   0  0  0  0  0  0  0  0  0  0  0  0
    0.4033    9.9806    5.0160 H   0  0  0  0  0  0  0  0  0  0  0  0
    2.1939    8.3166    6.8527 H   0  0  0  0  0  0  0  0  0  0  0  0
    2.7034    9.0685    5.3410 H   0  0  0  0  0  0  0  0  0  0  0  0
    2.2224   10.0776    6.7096 H   0  0  0  0  0  0  0  0  0  0  0  0
   -0.3114    6.7772    6.7085 H   0  0  0  0  0  0  0  0  0  0  0  0
   -0.6853    4.6582    5.5361 H   0  0  0  0  0  0  0  0  0  0  0  0
    1.9787    4.0910    4.1423 H   0  0  0  0  0  0  0  0  0  0  0  0
    3.1300    2.2099    5.2114 H   0  0  0  0  0  0  0  0  0  0  0  0
    1.5569   -1.0693    5.8642 H   0  0  0  0  0  0  0  0  0  0  0  0
    2.8976    0.0005    6.2984 H   0  0  0  0  0  0  0  0  0  0  0  0
    3.6853   -1.8940    4.8877 H   0  0  0  0  0  0  0  0  0  0  0  0
    3.9131   -0.3548    4.0504 H   0  0  0  0  0  0  0  0  0  0  0  0
    2.5718   -1.4080    3.6043 H   0  0  0  0  0  0  0  0  0  0  0  0
   -0.1734   -0.3299    4.3065 H   0  0  0  0  0  0  0  0  0  0  0  0
   -1.3165    1.5375    3.2159 H   0  0  0  0  0  0  0  0  0  0  0  0
   -2.0869    4.1707   -1.3465 H   0  0  0  0  0  0  0  0  0  0  0  0
    1.4092    4.4032   -5.2091 H   0  0  0  0  0  0  0  0  0  0  0  0
    1.5444    6.5473   -6.3962 H   0  0  0  0  0  0  0  0  0  0  0  0
    1.5011    9.0028   -6.2341 H   0  0  0  0  0  0  0  0  0  0  0  0
    0.6714    9.7983   -4.8888 H   0  0  0  0  0  0  0  0  0  0  0  0
   -1.5290    9.1007   -5.8371 H   0  0  0  0  0  0  0  0  0  0  0  0
   -0.7024    8.3097   -7.1793 H   0  0  0  0  0  0  0  0  0  0  0  0
   -0.6125   10.0651   -6.9996 H   0  0  0  0  0  0  0  0  0  0  0  0
   -0.3956    8.4724   -3.1250 H   0  0  0  0  0  0  0  0  0  0  0  0
   -0.5204    6.3441   -1.9336 H   0  0  0  0  0  0  0  0  0  0  0  0
   -1.4812    4.2558   -4.7736 H   0  0  0  0  0  0  0  0  0  0  0  0
   -2.7395    2.5440   -5.9859 H   0  0  0  0  0  0  0  0  0  0  0  0
   -2.9516   -0.9572   -5.0151 H   0  0  0  0  0  0  0  0  0  0  0  0
   -3.5037    0.2631   -6.1707 H   0  0  0  0  0  0  0  0  0  0  0  0
   -1.3929    0.0064   -7.4629 H   0  0  0  0  0  0  0  0  0  0  0  0
   -2.2071   -1.5522   -7.2924 H   0  0  0  0  0  0  0  0  0  0  0  0
   -0.8036   -1.1704   -6.2900 H   0  0  0  0  0  0  0  0  0  0  0  0
   -0.9292   -0.4913   -3.6008 H   0  0  0  0  0  0  0  0  0  0  0  0
    0.3295    1.2202   -2.3802 H   0  0  0  0  0  0  0  0  0  0  0  0
   -6.2863    3.0524    3.5647 H   0  0  0  0  0  0  0  0  0  0  0  0
  -10.2848   -1.1091    7.3357 H   0  0  0  0  0  0  0  0  0  0  0  0
  -11.3634   -1.8777    6.1296 H   0  0  0  0  0  0  0  0  0  0  0  0
  -10.0694   -3.5732    7.5095 H   0  0  0  0  0  0  0  0  0  0  0  0
   -9.7155   -3.6870    5.7789 H   0  0  0  0  0  0  0  0  0  0  0  0
   -8.5711   -2.8911    6.8640 H   0  0  0  0  0  0  0  0  0  0  0  0
   -8.3946   -0.8809    2.9170 H   0  0  0  0  0  0  0  0  0  0  0  0
   -9.5249    0.4593    3.0172 H   0  0  0  0  0  0  0  0  0  0  0  0
   -7.8620    0.7519    2.4505 H   0  0  0  0  0  0  0  0  0  0  0  0
   -7.7082    0.7504   10.3988 H   0  0  0  0  0  0  0  0  0  0  0  0
   -5.6457   -4.3921    7.4982 H   0  0  0  0  0  0  0  0  0  0  0  0
   -8.7081   -4.6504   11.5252 H   0  0  0  0  0  0  0  0  0  0  0  0
   -7.0104   -7.6094   11.1084 H   0  0  0  0  0  0  0  0  0  0  0  0
   -9.2603   -8.4264   10.4221 H   0  0  0  0  0  0  0  0  0  0  0  0
  -10.2127   -6.6643    8.7426 H   0  0  0  0  0  0  0  0  0  0  0  0
   -8.5962   -6.5625    6.6370 H   0  0  0  0  0  0  0  0  0  0  0  0
   -6.6485   -8.2674    7.0184 H   0  0  0  0  0  0  0  0  0  0  0  0
   -7.1341   -9.6285    9.2889 H   0  0  0  0  0  0  0  0  0  0  0  0
   -8.5457   -9.6842    8.2038 H   0  0  0  0  0  0  0  0  0  0  0  0
   -5.4391   -7.5117    9.0604 H   0  0  0  0  0  0  0  0  0  0  0  0
  1  2  2  0  0  0  0
  2  3  1  0  0  0  0
  3  4  2  0  0  0  0
  3  5  1  0  0  0  0
  5  6  2  0  0  0  0
  6  7  1  0  0  0  0
  7  8  2  0  0  0  0
  8  9  1  0  0  0  0
  9 10  2  0  0  0  0
 10 11  1  0  0  0  0
 11 12  2  0  0  0  0
 12 13  1  0  0  0  0
 13 14  3  0  0  0  0
 12 15  1  0  0  0  0
 15 16  3  0  0  0  0
  8 17  1  0  0  0  0
 17 18  1  0  0  0  0
 18 19  1  0  0  0  0
 19 20  2  0  0  0  0
 20 21  1  0  0  0  0
 21 22  1  0  0  0  0
 21 23  1  0  0  0  0
  1 24  1  0  0  0  0
 24 25  2  0  0  0  0
 25 26  1  0  0  0  0
 25 27  1  0  0  0  0
 27 28  1  0  0  0  0
 27 29  2  0  0  0  0
 29 30  1  0  0  0  0
 30 31  2  0  0  0  0
 31 32  1  0  0  0  0
 32 33  1  0  0  0  0
 33 34  1  0  0  0  0
 34 35  1  0  0  0  0
 32 36  2  0  0  0  0
 36 37  1  0  0  0  0
 37 38  2  0  0  0  0
 36 39  1  0  0  0  0
 29 40  1  0  0  0  0
 40 41  2  0  0  0  0
 41 42  1  0  0  0  0
 42 43  1  0  0  0  0
 43 44  1  0  0  0  0
 44 45  1  0  0  0  0
 45 46  2  0  0  0  0
 46 47  1  0  0  0  0
 47 48  1  0  0  0  0
 48 49  1  0  0  0  0
 49 50  2  0  0  0  0
 50 51  1  0  0  0  0
 51 52  2  0  0  0  0
 52 53  1  0  0  0  0
 53 54  1  0  0  0  0
 52 55  1  0  0  0  0
 55 56  2  0  0  0  0
 48 57  1  0  0  0  0
 57 58  2  0  0  0  0
 58 59  1  0  0  0  0
 59 60  2  0  0  0  0
 60 61  1  0  0  0  0
 61 62  1  0  0  0  0
 60 63  1  0  0  0  0
 63 64  2  0  0  0  0
 48 65  1  0  0  0  0
 65 66  2  0  0  0  0
 66 67  1  0  0  0  0
 67 68  1  0  0  0  0
 68 69  2  0  0  0  0
 69 70  1  0  0  0  0
 70 71  1  0  0  0  0
 71 72  2  0  0  0  0
 72 73  1  0  0  0  0
 73 74  2  0  0  0  0
 74 75  1  0  0  0  0
 75 76  1  0  0  0  0
 74 77  1  0  0  0  0
 77 78  2  0  0  0  0
 70 79  1  0  0  0  0
 79 80  2  0  0  0  0
 80 81  1  0  0  0  0
 81 82  2  0  0  0  0
 82 83  1  0  0  0  0
 83 84  1  0  0  0  0
 82 85  1  0  0  0  0
 85 86  2  0  0  0  0
 70 87  1  0  0  0  0
 87 88  1  0  0  0  0
 88 89  1  0  0  0  0
 66 90  1  0  0  0  0
 90 91  1  0  0  0  0
 91 92  1  0  0  0  0
 92 93  2  0  0  0  0
 93 94  1  0  0  0  0
 94 95  1  0  0  0  0
 93 96  1  0  0  0  0
 96 97  2  0  0  0  0
 97 98  1  0  0  0  0
 97 99  1  0  0  0  0
 99100  1  0  0  0  0
 99101  2  0  0  0  0
101102  1  0  0  0  0
102103  2  0  0  0  0
103104  1  0  0  0  0
104105  1  0  0  0  0
105106  1  0  0  0  0
106107  1  0  0  0  0
104108  2  0  0  0  0
108109  1  0  0  0  0
109110  2  0  0  0  0
108111  1  0  0  0  0
101112  1  0  0  0  0
112113  2  0  0  0  0
113114  1  0  0  0  0
114115  2  0  0  0  0
114116  1  0  0  0  0
116117  2  0  0  0  0
117118  1  0  0  0  0
118119  2  0  0  0  0
119120  1  0  0  0  0
120121  2  0  0  0  0
121122  1  0  0  0  0
122123  2  0  0  0  0
123124  1  0  0  0  0
124125  3  0  0  0  0
123126  1  0  0  0  0
126127  3  0  0  0  0
119128  1  0  0  0  0
128129  1  0  0  0  0
129130  1  0  0  0  0
130131  2  0  0  0  0
131132  1  0  0  0  0
132133  1  0  0  0  0
132134  1  0  0  0  0
 11  2  1  0  0  0  0
 23 17  1  0  0  0  0
 38 24  1  0  0  0  0
 89 40  1  0  0  0  0
 95 91  2  0  0  0  0
110 96  1  0  0  0  0
122113  1  0  0  0  0
134128  1  0  0  0  0
 10  5  1  0  0  0  0
 22 18  1  0  0  0  0
 38 30  1  0  0  0  0
 88 42  2  0  0  0  0
110102  1  0  0  0  0
121116  1  0  0  0  0
133129  1  0  0  0  0
 23  7  1  0  0  0  0
 87 44  2  0  0  0  0
134118  1  0  0  0  0
 69 45  1  0  0  0  0
 78 71  1  0  0  0  0
 86 79  1  0  0  0  0
 67 47  2  0  0  0  0
 56 49  1  0  0  0  0
 64 57  1  0  0  0  0
 95 65  1  0  0  0  0
  1135  1  0  0  0  0
  6136  1  0  0  0  0
  9137  1  0  0  0  0
 17138  1  0  0  0  0
 18139  1  0  0  0  0
 19140  1  0  0  0  0
 20141  1  0  0  0  0
 21142  1  0  0  0  0
 22143  1  0  0  0  0
 22144  1  0  0  0  0
 23145  1  0  0  0  0
 34146  1  0  0  0  0
 34147  1  0  0  0  0
 35148  1  0  0  0  0
 35149  1  0  0  0  0
 35150  1  0  0  0  0
 39151  1  0  0  0  0
 39152  1  0  0  0  0
 39153  1  0  0  0  0
 41154  1  0  0  0  0
 46155  1  0  0  0  0
 50156  1  0  0  0  0
 51157  1  0  0  0  0
 53158  1  0  0  0  0
 53159  1  0  0  0  0
 54160  1  0  0  0  0
 54161  1  0  0  0  0
 54162  1  0  0  0  0
 55163  1  0  0  0  0
 56164  1  0  0  0  0
 58165  1  0  0  0  0
 59166  1  0  0  0  0
 61167  1  0  0  0  0
 61168  1  0  0  0  0
 62169  1  0  0  0  0
 62170  1  0  0  0  0
 62171  1  0  0  0  0
 63172  1  0  0  0  0
 64173  1  0  0  0  0
 68174  1  0  0  0  0
 72175  1  0  0  0  0
 73176  1  0  0  0  0
 75177  1  0  0  0  0
 75178  1  0  0  0  0
 76179  1  0  0  0  0
 76180  1  0  0  0  0
 76181  1  0  0  0  0
 77182  1  0  0  0  0
 78183  1  0  0  0  0
 80184  1  0  0  0  0
 81185  1  0  0  0  0
 83186  1  0  0  0  0
 83187  1  0  0  0  0
 84188  1  0  0  0  0
 84189  1  0  0  0  0
 84190  1  0  0  0  0
 85191  1  0  0  0  0
 86192  1  0  0  0  0
 92193  1  0  0  0  0
106194  1  0  0  0  0
106195  1  0  0  0  0
107196  1  0  0  0  0
107197  1  0  0  0  0
107198  1  0  0  0  0
111199  1  0  0  0  0
111200  1  0  0  0  0
111201  1  0  0  0  0
112202  1  0  0  0  0
117203  1  0  0  0  0
120204  1  0  0  0  0
128205  1  0  0  0  0
129206  1  0  0  0  0
130207  1  0  0  0  0
131208  1  0  0  0  0
132209  1  0  0  0  0
133210  1  0  0  0  0
133211  1  0  0  0  0
134212  1  0  0  0  0
M  END
