175

C         -8.85810        3.46040       -3.28150
C         -9.40400        4.18010       -4.29810
C         -8.71660        4.59820       -5.54690
O         -7.63210        4.25040       -5.96500
C         -9.58790        5.62300       -6.15400
C         -9.33060        6.34700       -7.31690
C        -10.31430        7.24840       -7.64430
C        -11.46670        7.42710       -6.86640
C        -11.73060        6.72500       -5.71510
C        -10.74520        5.79430       -5.36840
C        -10.67390        4.88240       -4.23280
C        -11.66310        4.67050       -3.30790
C        -11.60560        3.72550       -2.26230
N        -11.65600        2.96810       -1.39950
C        -12.89820        5.35120       -3.28960
N        -13.92180        5.86620       -3.21620
C        -12.01650        8.49230       -7.78200
C        -13.14860        8.06170       -8.73850
C        -13.14510        9.13120       -9.80690
C        -12.05570        8.96070      -10.54490
C        -11.30440        7.77300       -9.98770
C        -12.48350        6.91510       -9.51090
C        -10.73340        8.29120       -8.65060
C         -7.65960        2.67910       -3.30480
C         -6.94110        2.53620       -2.09640
O         -7.44090        3.16130       -0.98390
C         -7.68200        2.33650        0.15560
C         -8.84010        1.37390       -0.07560
C         -5.71620        1.87070       -2.09320
O         -4.95780        1.77670       -0.94380
C         -4.37730        2.99920       -0.49650
C         -3.76540        2.75800        0.87230
C         -5.22770        1.26500       -3.26710
C         -6.05520        1.25320       -4.40100
C         -7.21820        1.97440       -4.43180
C         -3.91460        0.67900       -3.29330
C         -3.10830        0.41970       -4.39250
C         -3.34750        0.85200       -5.77250
C         -3.10510       -0.02140       -6.82900
C         -3.30830        0.39900       -8.13000
C         -3.75750        1.68220       -8.38820
C         -4.00050        2.57000       -7.34690
C         -4.48610        3.96630       -7.60900
C         -3.35990        4.98420       -7.42480
C         -3.77340        2.14910       -6.04600
C         -1.92690       -0.24580       -4.01280
S         -0.54760       -0.81320       -4.92900
C          0.18220       -1.33860       -3.45030
C          1.34470       -1.98620       -3.00840
C          2.41360       -2.53560       -3.74700
C          3.45910       -3.21540       -3.04370
N          4.37920       -3.71170       -3.85610
S          3.96260       -3.35030       -5.37930
N          2.59280       -2.54710       -5.05870
C          3.41870       -3.24720       -1.63390
C          4.35590       -3.74480       -0.71740
S          5.89120       -4.54400       -0.71080
C          5.89860       -4.45550        1.03730
C          6.84700       -4.84060        2.00480
C          8.15140       -5.40290        1.64590
C          8.23680       -6.39050        0.66820
C          9.46920       -6.91080        0.32110
C         10.61930       -6.46060        0.94530
C         10.55490       -5.47240        1.92040
C         11.79330       -4.97140        2.60560
C         12.18960       -3.58960        2.08390
C          9.31820       -4.93860        2.24710
C          6.41210       -4.52990        3.28470
S          4.86050       -3.71450        3.28600
C          4.76110       -3.84210        1.56640
C          3.87820       -3.43760        0.55620
N          2.68470       -2.77580        0.45990
C          2.36030       -2.65570       -0.88100
C          1.26610       -2.07620       -1.58620
N          0.05250       -1.53190       -1.20040
C         -0.59160       -1.07930       -2.31940
C         -1.81050       -0.46490       -2.63890
S         -3.17550        0.16760       -1.78850
C         -0.63730       -1.44920        0.06390
C         -0.54360       -0.04580        0.66450
C          2.08480       -2.27280        1.67160
C          1.31680       -3.36370        2.41860
C          7.04910       -4.82330        4.54130
C          6.78930       -4.02830        5.67270
O          5.87130       -2.99570        5.56710
C          6.46600       -1.73350        5.28440
C          5.36260       -0.69240        5.21810
C          7.46570       -4.25670        6.87050
O          7.28370       -3.52940        7.99850
C          5.97170       -3.11160        8.36890
C          5.87590       -3.19910        9.88500
C          8.47840       -5.24780        6.92500
C          8.66140       -6.08370        5.81600
C          7.93720       -5.90320        4.66930
C          9.17690       -5.40650        8.16010
C         10.44670       -5.85400        8.36840
C         11.51960       -5.97160        7.33940
O         11.43360       -5.79910        6.14290
C         12.74380       -6.25350        8.10520
C         14.05750       -6.45790        7.83670
S         14.94270       -6.73660        9.29180
C         13.53190       -6.57160       10.27020
C         12.43720       -6.31620        9.50260
C         11.01990       -6.08380        9.68560
C         10.36980       -6.13050       10.89190
C         11.07370       -6.37650       12.08850
N         11.63500       -6.57480       13.06990
C          8.98640       -5.96400       11.09450
N          7.86990       -5.84970       11.34140
H         -9.32970        3.52090       -2.30840
H         -8.42540        6.18370       -7.88080
H        -12.61500        6.88230       -5.12050
H        -12.19080        9.46540       -7.32690
H        -14.09930        7.85560       -8.25450
H        -13.88180        9.90960       -9.87890
H        -11.70050        9.56830      -11.35650
H        -10.57550        7.30380      -10.64320
H        -13.09870        6.56520      -10.33810
H        -12.19470        6.06980       -8.88900
H        -10.05200        9.13070       -8.77580
H         -6.78090        1.77760        0.42720
H         -7.92200        3.04530        0.95180
H         -8.60180        0.68600       -0.88530
H         -9.74870        1.91390       -0.33280
H         -9.01890        0.80020        0.82960
H         -3.60430        3.31180       -1.21330
H         -5.14040        3.78410       -0.44710
H         -4.53830        2.49660        1.59020
H         -3.25660        3.65630        1.20970
H         -3.05370        1.93920        0.81680
H         -5.75490        0.68570       -5.26560
H         -7.82260        1.97280       -5.32290
H         -2.77790       -1.03040       -6.62870
H         -3.12140       -0.28210       -8.94710
H         -3.92530        1.99730       -9.40810
H         -5.30440        4.19670       -6.92350
H         -4.86830        4.03420       -8.62940
H         -3.72400        5.99170       -7.61250
H         -2.54360        4.77590       -8.11390
H         -2.96890        4.94190       -6.41090
H         -3.94710        2.83480       -5.22930
H          7.33850       -6.76140        0.19850
H          9.53120       -7.67820       -0.43640
H         11.57690       -6.88280        0.67630
H         12.61420       -5.66960        2.43210
H         11.61460       -4.92040        3.68190
H         12.38580       -3.63020        1.01420
H         11.39090       -2.87200        2.25670
H         13.08610       -3.23650        2.58810
H          9.25860       -4.15930        2.99330
H         -0.26260       -2.21010        0.74240
H         -1.69250       -1.67000       -0.13080
H         -1.06130        0.66150        0.02210
H          0.48990        0.28280        0.75630
H         -1.00900       -0.03010        1.64630
H          1.45790       -1.41550        1.44650
H          2.90170       -1.92510        2.31340
H          0.58600       -3.84820        1.77400
H          2.00720       -4.12410        2.77390
H          0.80480       -2.93610        3.27620
H          7.19490       -1.48070        6.06630
H          7.00120       -1.78530        4.32500
H          4.65900       -0.95340        4.43280
H          5.79080        0.28370        5.00910
H          4.82510       -0.65360        6.16180
H          5.22480       -3.75550        7.89500
H          5.80560       -2.07950        8.03900
H          6.07250       -4.21420       10.22120
H          4.88170       -2.90310       10.20680
H          6.60870       -2.53990       10.34280
H          9.35480       -6.90450        5.88420
H          8.05820       -6.58480        3.84430
H          8.61740       -5.07490        9.02690
H         14.56080       -6.46810        6.89080
H         13.61380       -6.67010       11.33400
