
  xtb     02132214453D
 energy: -325.660825196897 gnorm: 0.000400301983 xtb: 6.4.1 (unknown)
186208  0     0  0            999 V2000
   -1.4060   -5.5781    8.1091 C   0  0  0  0  0  0  0  0  0  0  0  0
   -2.5826   -6.0420    7.5953 C   0  0  0  0  0  0  0  0  0  0  0  0
   -3.0093   -5.9889    6.1888 C   0  0  0  0  0  0  0  0  0  0  0  0
   -2.5180   -5.3290    5.2902 O   0  0  0  0  0  0  0  0  0  0  0  0
   -4.1469   -6.9154    6.0738 C   0  0  0  0  0  0  0  0  0  0  0  0
   -4.8299   -7.2633    4.9104 C   0  0  0  0  0  0  0  0  0  0  0  0
   -5.8368   -8.1772    5.1057 C   0  0  0  0  0  0  0  0  0  0  0  0
   -6.1452   -8.7071    6.3662 C   0  0  0  0  0  0  0  0  0  0  0  0
   -5.4871   -8.3646    7.5237 C   0  0  0  0  0  0  0  0  0  0  0  0
   -4.4576   -7.4362    7.3478 C   0  0  0  0  0  0  0  0  0  0  0  0
   -3.5538   -6.8374    8.3262 C   0  0  0  0  0  0  0  0  0  0  0  0
   -3.6601   -6.9299    9.6876 C   0  0  0  0  0  0  0  0  0  0  0  0
   -2.8778   -6.2052   10.6154 C   0  0  0  0  0  0  0  0  0  0  0  0
   -2.3340   -5.6180   11.4383 N   0  0  0  0  0  0  0  0  0  0  0  0
   -4.6287   -7.7092   10.3545 C   0  0  0  0  0  0  0  0  0  0  0  0
   -5.3867   -8.3288   10.9542 N   0  0  0  0  0  0  0  0  0  0  0  0
   -7.2424   -9.5836    5.8171 C   0  0  0  0  0  0  0  0  0  0  0  0
   -6.9363  -11.0913    5.6368 C   0  0  0  0  0  0  0  0  0  0  0  0
   -5.4452  -11.2063    5.4387 C   0  0  0  0  0  0  0  0  0  0  0  0
   -5.1551  -10.7033    4.2462 C   0  0  0  0  0  0  0  0  0  0  0  0
   -6.4451  -10.2389    3.6163 C   0  0  0  0  0  0  0  0  0  0  0  0
   -7.4170  -11.2826    4.1894 C   0  0  0  0  0  0  0  0  0  0  0  0
   -6.9008   -8.9914    4.4135 C   0  0  0  0  0  0  0  0  0  0  0  0
   -0.3967   -4.8089    7.4997 C   0  0  0  0  0  0  0  0  0  0  0  0
   -0.5107   -4.0539    5.9313 S   0  0  0  0  0  0  0  0  0  0  0  0
    1.0296   -3.2849    6.1370 C   0  0  0  0  0  0  0  0  0  0  0  0
    1.5966   -3.5720    7.3786 C   0  0  0  0  0  0  0  0  0  0  0  0
    2.7577   -2.8708    7.9440 C   0  0  0  0  0  0  0  0  0  0  0  0
    3.2284   -1.8602    7.4490 O   0  0  0  0  0  0  0  0  0  0  0  0
    3.2411   -3.4604    9.1909 C   0  0  0  0  0  0  0  0  0  0  0  0
    4.4149   -3.1125    9.8073 C   0  0  0  0  0  0  0  0  0  0  0  0
    5.3975   -2.0696    9.4189 C   0  0  0  0  0  0  0  0  0  0  0  0
    5.0085   -0.7132   10.0139 C   0  0  0  0  0  0  0  0  0  0  0  0
    4.6628   -4.0579   11.2372 S   0  0  0  0  0  0  0  0  0  0  0  0
    3.1838   -4.9255   11.0130 C   0  0  0  0  0  0  0  0  0  0  0  0
    2.7539   -5.9365   12.0122 C   0  0  0  0  0  0  0  0  0  0  0  0
    1.6862   -5.3616   12.9489 C   0  0  0  0  0  0  0  0  0  0  0  0
    2.5361   -4.5012    9.8775 C   0  0  0  0  0  0  0  0  0  0  0  0
    1.2817   -5.0683    9.3909 C   0  0  0  0  0  0  0  0  0  0  0  0
    0.7090   -5.9906    9.9506 O   0  0  0  0  0  0  0  0  0  0  0  0
    0.8141   -4.4776    8.1236 C   0  0  0  0  0  0  0  0  0  0  0  0
    1.5854   -2.5563    5.0490 C   0  0  0  0  0  0  0  0  0  0  0  0
    2.8994   -2.4919    4.6146 C   0  0  0  0  0  0  0  0  0  0  0  0
    4.0218   -3.1981    5.2281 C   0  0  0  0  0  0  0  0  0  0  0  0
    3.9063   -4.5260    5.6319 C   0  0  0  0  0  0  0  0  0  0  0  0
    4.9676   -5.1494    6.2580 C   0  0  0  0  0  0  0  0  0  0  0  0
    6.1523   -4.4654    6.4739 C   0  0  0  0  0  0  0  0  0  0  0  0
    6.2944   -3.1510    6.0496 C   0  0  0  0  0  0  0  0  0  0  0  0
    7.5947   -2.4183    6.2148 C   0  0  0  0  0  0  0  0  0  0  0  0
    8.4154   -2.5050    4.9264 C   0  0  0  0  0  0  0  0  0  0  0  0
    5.2233   -2.5282    5.4255 C   0  0  0  0  0  0  0  0  0  0  0  0
    3.0153   -1.6906    3.4645 C   0  0  0  0  0  0  0  0  0  0  0  0
    4.3771   -1.2732    2.4515 S   0  0  0  0  0  0  0  0  0  0  0  0
    3.3065   -0.3860    1.4214 C   0  0  0  0  0  0  0  0  0  0  0  0
    3.3543    0.3985    0.2600 C   0  0  0  0  0  0  0  0  0  0  0  0
    4.4535    0.7980   -0.5299 C   0  0  0  0  0  0  0  0  0  0  0  0
    4.2233    1.6693   -1.6433 C   0  0  0  0  0  0  0  0  0  0  0  0
    5.3414    1.9915   -2.2747 N   0  0  0  0  0  0  0  0  0  0  0  0
    6.5781    1.2565   -1.5314 S   0  0  0  0  0  0  0  0  0  0  0  0
    5.7342    0.4999   -0.3748 N   0  0  0  0  0  0  0  0  0  0  0  0
    2.8972    2.0391   -1.9552 C   0  0  0  0  0  0  0  0  0  0  0  0
    2.3911    2.7946   -3.0212 C   0  0  0  0  0  0  0  0  0  0  0  0
    2.9662    3.6671   -4.4026 S   0  0  0  0  0  0  0  0  0  0  0  0
    1.3023    4.0114   -4.8296 C   0  0  0  0  0  0  0  0  0  0  0  0
    0.7349    4.7280   -5.8822 C   0  0  0  0  0  0  0  0  0  0  0  0
    1.5661    5.3821   -6.9024 C   0  0  0  0  0  0  0  0  0  0  0  0
    2.3571    4.6134   -7.7468 C   0  0  0  0  0  0  0  0  0  0  0  0
    3.1448    5.2319   -8.6999 C   0  0  0  0  0  0  0  0  0  0  0  0
    3.1562    6.6093   -8.8067 C   0  0  0  0  0  0  0  0  0  0  0  0
    2.3890    7.3935   -7.9532 C   0  0  0  0  0  0  0  0  0  0  0  0
    2.4456    8.8918   -8.0355 C   0  0  0  0  0  0  0  0  0  0  0  0
    3.6093    9.4296   -7.2004 C   0  0  0  0  0  0  0  0  0  0  0  0
    1.6043    6.7700   -6.9976 C   0  0  0  0  0  0  0  0  0  0  0  0
   -0.6626    4.7523   -5.8063 C   0  0  0  0  0  0  0  0  0  0  0  0
   -1.2490    3.9075   -4.3723 S   0  0  0  0  0  0  0  0  0  0  0  0
    0.3644    3.4760   -3.9379 C   0  0  0  0  0  0  0  0  0  0  0  0
    0.9982    2.7809   -2.9018 C   0  0  0  0  0  0  0  0  0  0  0  0
    0.6287    2.0649   -1.7953 N   0  0  0  0  0  0  0  0  0  0  0  0
    1.7796    1.5935   -1.1865 C   0  0  0  0  0  0  0  0  0  0  0  0
    2.0214    0.8222   -0.0164 C   0  0  0  0  0  0  0  0  0  0  0  0
    1.1967    0.3139    0.9769 N   0  0  0  0  0  0  0  0  0  0  0  0
    1.9746   -0.4091    1.8403 C   0  0  0  0  0  0  0  0  0  0  0  0
    1.8039   -1.1633    3.0082 C   0  0  0  0  0  0  0  0  0  0  0  0
    0.4886   -1.6595    4.0105 S   0  0  0  0  0  0  0  0  0  0  0  0
   -0.1278    0.7112    1.3984 C   0  0  0  0  0  0  0  0  0  0  0  0
   -0.1636    2.1825    1.8063 C   0  0  0  0  0  0  0  0  0  0  0  0
   -0.7530    1.6647   -1.6555 C   0  0  0  0  0  0  0  0  0  0  0  0
   -0.9434    0.1916   -2.0105 C   0  0  0  0  0  0  0  0  0  0  0  0
   -1.5232    5.2720   -6.8017 C   0  0  0  0  0  0  0  0  0  0  0  0
   -0.8313    5.6794   -8.3479 S   0  0  0  0  0  0  0  0  0  0  0  0
   -2.3723    6.1899   -8.9796 C   0  0  0  0  0  0  0  0  0  0  0  0
   -3.3806    6.0141   -8.0255 C   0  0  0  0  0  0  0  0  0  0  0  0
   -4.7997    6.3221   -8.2786 C   0  0  0  0  0  0  0  0  0  0  0  0
   -5.2707    6.4868   -9.3931 O   0  0  0  0  0  0  0  0  0  0  0  0
   -5.5930    6.4094   -7.0613 C   0  0  0  0  0  0  0  0  0  0  0  0
   -6.8591    6.9376   -7.0011 C   0  0  0  0  0  0  0  0  0  0  0  0
   -7.6553    7.5026   -8.1179 C   0  0  0  0  0  0  0  0  0  0  0  0
   -8.8346    8.3444   -7.6523 C   0  0  0  0  0  0  0  0  0  0  0  0
   -7.4615    6.8834   -5.3791 S   0  0  0  0  0  0  0  0  0  0  0  0
   -6.0221    6.1230   -4.7873 C   0  0  0  0  0  0  0  0  0  0  0  0
   -5.9177    5.7359   -3.3570 C   0  0  0  0  0  0  0  0  0  0  0  0
   -6.3332    4.2747   -3.1615 C   0  0  0  0  0  0  0  0  0  0  0  0
   -5.1130    5.9406   -5.7995 C   0  0  0  0  0  0  0  0  0  0  0  0
   -3.7915    5.3396   -5.6448 C   0  0  0  0  0  0  0  0  0  0  0  0
   -3.4578    4.7610   -4.6151 O   0  0  0  0  0  0  0  0  0  0  0  0
   -2.9115    5.5102   -6.7944 C   0  0  0  0  0  0  0  0  0  0  0  0
   -2.5690    6.8296  -10.2148 C   0  0  0  0  0  0  0  0  0  0  0  0
   -1.6795    7.0815  -11.2242 C   0  0  0  0  0  0  0  0  0  0  0  0
   -0.3124    6.5513  -11.3475 C   0  0  0  0  0  0  0  0  0  0  0  0
    0.3253    5.9288  -10.5187 O   0  0  0  0  0  0  0  0  0  0  0  0
    0.1315    6.9026  -12.7085 C   0  0  0  0  0  0  0  0  0  0  0  0
    1.3228    6.5945  -13.3377 C   0  0  0  0  0  0  0  0  0  0  0  0
    1.5124    7.0212  -14.6422 C   0  0  0  0  0  0  0  0  0  0  0  0
    0.5119    7.7409  -15.2866 C   0  0  0  0  0  0  0  0  0  0  0  0
    0.7629    8.2529  -16.9115 Cl  0  0  0  0  0  0  0  0  0  0  0  0
   -0.6900    8.0627  -14.6624 C   0  0  0  0  0  0  0  0  0  0  0  0
   -0.8761    7.6384  -13.3580 C   0  0  0  0  0  0  0  0  0  0  0  0
   -1.9907    7.8265  -12.4288 C   0  0  0  0  0  0  0  0  0  0  0  0
   -3.0726    8.6410  -12.6312 C   0  0  0  0  0  0  0  0  0  0  0  0
   -4.0488    8.9657  -11.6620 C   0  0  0  0  0  0  0  0  0  0  0  0
   -4.8507    9.3394  -10.9302 N   0  0  0  0  0  0  0  0  0  0  0  0
   -3.3191    9.3360  -13.8343 C   0  0  0  0  0  0  0  0  0  0  0  0
   -3.5782    9.9180  -14.7891 N   0  0  0  0  0  0  0  0  0  0  0  0
   -1.1667   -5.8606    9.1283 H   0  0  0  0  0  0  0  0  0  0  0  0
   -4.5591   -6.8328    3.9589 H   0  0  0  0  0  0  0  0  0  0  0  0
   -5.7333   -8.7821    8.4858 H   0  0  0  0  0  0  0  0  0  0  0  0
   -8.2389   -9.4077    6.2170 H   0  0  0  0  0  0  0  0  0  0  0  0
   -7.3703  -11.7337    6.3981 H   0  0  0  0  0  0  0  0  0  0  0  0
   -4.7688  -11.5776    6.1861 H   0  0  0  0  0  0  0  0  0  0  0  0
   -4.1877  -10.5701    3.7985 H   0  0  0  0  0  0  0  0  0  0  0  0
   -6.4321  -10.1057    2.5377 H   0  0  0  0  0  0  0  0  0  0  0  0
   -8.4653  -11.0264    4.0426 H   0  0  0  0  0  0  0  0  0  0  0  0
   -7.2272  -12.2863    3.8120 H   0  0  0  0  0  0  0  0  0  0  0  0
   -7.6745   -8.4274    3.8961 H   0  0  0  0  0  0  0  0  0  0  0  0
    6.3921   -2.3540    9.7683 H   0  0  0  0  0  0  0  0  0  0  0  0
    5.4053   -1.9871    8.3308 H   0  0  0  0  0  0  0  0  0  0  0  0
    4.9451   -0.7731   11.0985 H   0  0  0  0  0  0  0  0  0  0  0  0
    4.0452   -0.4032    9.6182 H   0  0  0  0  0  0  0  0  0  0  0  0
    5.7507    0.0341    9.7471 H   0  0  0  0  0  0  0  0  0  0  0  0
    2.3270   -6.7934   11.4869 H   0  0  0  0  0  0  0  0  0  0  0  0
    3.6188   -6.2626   12.5933 H   0  0  0  0  0  0  0  0  0  0  0  0
    2.0502   -4.4606   13.4380 H   0  0  0  0  0  0  0  0  0  0  0  0
    0.7863   -5.1247   12.3885 H   0  0  0  0  0  0  0  0  0  0  0  0
    1.4330   -6.0951   13.7092 H   0  0  0  0  0  0  0  0  0  0  0  0
    2.9910   -5.0688    5.4457 H   0  0  0  0  0  0  0  0  0  0  0  0
    4.8720   -6.1767    6.5789 H   0  0  0  0  0  0  0  0  0  0  0  0
    6.9744   -4.9587    6.9724 H   0  0  0  0  0  0  0  0  0  0  0  0
    7.4010   -1.3690    6.4460 H   0  0  0  0  0  0  0  0  0  0  0  0
    8.1650   -2.8523    7.0385 H   0  0  0  0  0  0  0  0  0  0  0  0
    7.8631   -2.0699    4.0968 H   0  0  0  0  0  0  0  0  0  0  0  0
    8.6320   -3.5434    4.6858 H   0  0  0  0  0  0  0  0  0  0  0  0
    9.3558   -1.9705    5.0379 H   0  0  0  0  0  0  0  0  0  0  0  0
    5.3097   -1.4962    5.1211 H   0  0  0  0  0  0  0  0  0  0  0  0
    2.3359    3.5370   -7.6664 H   0  0  0  0  0  0  0  0  0  0  0  0
    3.7493    4.6329   -9.3645 H   0  0  0  0  0  0  0  0  0  0  0  0
    3.7647    7.0871   -9.5612 H   0  0  0  0  0  0  0  0  0  0  0  0
    2.5759    9.1981   -9.0757 H   0  0  0  0  0  0  0  0  0  0  0  0
    1.5101    9.3194   -7.6691 H   0  0  0  0  0  0  0  0  0  0  0  0
    3.6524   10.5147   -7.2606 H   0  0  0  0  0  0  0  0  0  0  0  0
    4.5520    9.0233   -7.5594 H   0  0  0  0  0  0  0  0  0  0  0  0
    3.4896    9.1431   -6.1580 H   0  0  0  0  0  0  0  0  0  0  0  0
    0.9996    7.3631   -6.3250 H   0  0  0  0  0  0  0  0  0  0  0  0
   -0.3752    0.0927    2.2647 H   0  0  0  0  0  0  0  0  0  0  0  0
   -0.8626    0.4863    0.6264 H   0  0  0  0  0  0  0  0  0  0  0  0
    0.1652    2.8250    0.9925 H   0  0  0  0  0  0  0  0  0  0  0  0
   -1.1729    2.4645    2.0938 H   0  0  0  0  0  0  0  0  0  0  0  0
    0.4965    2.3471    2.6547 H   0  0  0  0  0  0  0  0  0  0  0  0
   -1.3251    2.2797   -2.3545 H   0  0  0  0  0  0  0  0  0  0  0  0
   -1.1206    1.8916   -0.6557 H   0  0  0  0  0  0  0  0  0  0  0  0
   -1.9822   -0.0941   -1.8686 H   0  0  0  0  0  0  0  0  0  0  0  0
   -0.3129   -0.4473   -1.3960 H   0  0  0  0  0  0  0  0  0  0  0  0
   -0.6790    0.0263   -3.0523 H   0  0  0  0  0  0  0  0  0  0  0  0
   -8.0097    6.6736   -8.7401 H   0  0  0  0  0  0  0  0  0  0  0  0
   -6.9870    8.0890   -8.7563 H   0  0  0  0  0  0  0  0  0  0  0  0
   -9.5258    7.7462   -7.0611 H   0  0  0  0  0  0  0  0  0  0  0  0
   -9.3695    8.7427   -8.5100 H   0  0  0  0  0  0  0  0  0  0  0  0
   -8.4922    9.1778   -7.0426 H   0  0  0  0  0  0  0  0  0  0  0  0
   -6.5573    6.3844   -2.7550 H   0  0  0  0  0  0  0  0  0  0  0  0
   -4.8809    5.8486   -3.0340 H   0  0  0  0  0  0  0  0  0  0  0  0
   -5.6572    3.6250   -3.7106 H   0  0  0  0  0  0  0  0  0  0  0  0
   -6.2862    4.0150   -2.1075 H   0  0  0  0  0  0  0  0  0  0  0  0
   -7.3487    4.1147   -3.5173 H   0  0  0  0  0  0  0  0  0  0  0  0
   -3.5914    7.1552  -10.3704 H   0  0  0  0  0  0  0  0  0  0  0  0
    2.0805    6.0326  -12.8140 H   0  0  0  0  0  0  0  0  0  0  0  0
    2.4284    6.7988  -15.1662 H   0  0  0  0  0  0  0  0  0  0  0  0
   -1.4404    8.6202  -15.1982 H   0  0  0  0  0  0  0  0  0  0  0  0
  1  2  2  0  0  0  0
  2  3  1  0  0  0  0
  3  4  2  0  0  0  0
  3  5  1  0  0  0  0
  5  6  2  0  0  0  0
  6  7  1  0  0  0  0
  7  8  2  0  0  0  0
  8  9  1  0  0  0  0
  9 10  2  0  0  0  0
 10 11  1  0  0  0  0
 11 12  2  0  0  0  0
 12 13  1  0  0  0  0
 13 14  3  0  0  0  0
 12 15  1  0  0  0  0
 15 16  3  0  0  0  0
  8 17  1  0  0  0  0
 17 18  1  0  0  0  0
 18 19  1  0  0  0  0
 19 20  2  0  0  0  0
 20 21  1  0  0  0  0
 21 22  1  0  0  0  0
 21 23  1  0  0  0  0
  1 24  1  0  0  0  0
 24 25  1  0  0  0  0
 25 26  1  0  0  0  0
 26 27  2  0  0  0  0
 27 28  1  0  0  0  0
 28 29  2  0  0  0  0
 28 30  1  0  0  0  0
 30 31  2  0  0  0  0
 31 32  1  0  0  0  0
 32 33  1  0  0  0  0
 31 34  1  0  0  0  0
 34 35  1  0  0  0  0
 35 36  1  0  0  0  0
 36 37  1  0  0  0  0
 35 38  2  0  0  0  0
 38 39  1  0  0  0  0
 39 40  2  0  0  0  0
 39 41  1  0  0  0  0
 26 42  1  0  0  0  0
 42 43  2  0  0  0  0
 43 44  1  0  0  0  0
 44 45  2  0  0  0  0
 45 46  1  0  0  0  0
 46 47  2  0  0  0  0
 47 48  1  0  0  0  0
 48 49  1  0  0  0  0
 49 50  1  0  0  0  0
 48 51  2  0  0  0  0
 43 52  1  0  0  0  0
 52 53  1  0  0  0  0
 53 54  1  0  0  0  0
 54 55  1  0  0  0  0
 55 56  1  0  0  0  0
 56 57  1  0  0  0  0
 57 58  2  0  0  0  0
 58 59  1  0  0  0  0
 59 60  1  0  0  0  0
 57 61  1  0  0  0  0
 61 62  1  0  0  0  0
 62 63  1  0  0  0  0
 63 64  1  0  0  0  0
 64 65  1  0  0  0  0
 65 66  1  0  0  0  0
 66 67  2  0  0  0  0
 67 68  1  0  0  0  0
 68 69  2  0  0  0  0
 69 70  1  0  0  0  0
 70 71  1  0  0  0  0
 71 72  1  0  0  0  0
 70 73  2  0  0  0  0
 65 74  2  0  0  0  0
 74 75  1  0  0  0  0
 75 76  1  0  0  0  0
 76 77  1  0  0  0  0
 77 78  1  0  0  0  0
 78 79  1  0  0  0  0
 79 80  1  0  0  0  0
 80 81  1  0  0  0  0
 81 82  1  0  0  0  0
 82 83  1  0  0  0  0
 83 84  1  0  0  0  0
 81 85  1  0  0  0  0
 85 86  1  0  0  0  0
 78 87  1  0  0  0  0
 87 88  1  0  0  0  0
 74 89  1  0  0  0  0
 89 90  1  0  0  0  0
 90 91  1  0  0  0  0
 91 92  2  0  0  0  0
 92 93  1  0  0  0  0
 93 94  2  0  0  0  0
 93 95  1  0  0  0  0
 95 96  2  0  0  0  0
 96 97  1  0  0  0  0
 97 98  1  0  0  0  0
 96 99  1  0  0  0  0
 99100  1  0  0  0  0
100101  1  0  0  0  0
101102  1  0  0  0  0
100103  2  0  0  0  0
103104  1  0  0  0  0
104105  2  0  0  0  0
104106  1  0  0  0  0
 91107  1  0  0  0  0
107108  2  0  0  0  0
108109  1  0  0  0  0
109110  2  0  0  0  0
109111  1  0  0  0  0
111112  2  0  0  0  0
112113  1  0  0  0  0
113114  2  0  0  0  0
114115  1  0  0  0  0
114116  1  0  0  0  0
116117  2  0  0  0  0
117118  1  0  0  0  0
118119  2  0  0  0  0
119120  1  0  0  0  0
120121  3  0  0  0  0
119122  1  0  0  0  0
122123  3  0  0  0  0
 11  2  1  0  0  0  0
 23 17  1  0  0  0  0
 41 24  2  0  0  0  0
 84 42  1  0  0  0  0
106 89  2  0  0  0  0
118108  1  0  0  0  0
 10  5  1  0  0  0  0
 22 18  1  0  0  0  0
 41 27  1  0  0  0  0
 51 44  1  0  0  0  0
 83 52  2  0  0  0  0
106 92  1  0  0  0  0
117111  1  0  0  0  0
 23  7  1  0  0  0  0
 38 30  1  0  0  0  0
 82 54  2  0  0  0  0
103 95  1  0  0  0  0
 80 55  2  0  0  0  0
 60 56  2  0  0  0  0
 79 61  2  0  0  0  0
 77 62  2  0  0  0  0
 76 64  2  0  0  0  0
 73 66  1  0  0  0  0
  1124  1  0  0  0  0
  6125  1  0  0  0  0
  9126  1  0  0  0  0
 17127  1  0  0  0  0
 18128  1  0  0  0  0
 19129  1  0  0  0  0
 20130  1  0  0  0  0
 21131  1  0  0  0  0
 22132  1  0  0  0  0
 22133  1  0  0  0  0
 23134  1  0  0  0  0
 32135  1  0  0  0  0
 32136  1  0  0  0  0
 33137  1  0  0  0  0
 33138  1  0  0  0  0
 33139  1  0  0  0  0
 36140  1  0  0  0  0
 36141  1  0  0  0  0
 37142  1  0  0  0  0
 37143  1  0  0  0  0
 37144  1  0  0  0  0
 45145  1  0  0  0  0
 46146  1  0  0  0  0
 47147  1  0  0  0  0
 49148  1  0  0  0  0
 49149  1  0  0  0  0
 50150  1  0  0  0  0
 50151  1  0  0  0  0
 50152  1  0  0  0  0
 51153  1  0  0  0  0
 67154  1  0  0  0  0
 68155  1  0  0  0  0
 69156  1  0  0  0  0
 71157  1  0  0  0  0
 71158  1  0  0  0  0
 72159  1  0  0  0  0
 72160  1  0  0  0  0
 72161  1  0  0  0  0
 73162  1  0  0  0  0
 85163  1  0  0  0  0
 85164  1  0  0  0  0
 86165  1  0  0  0  0
 86166  1  0  0  0  0
 86167  1  0  0  0  0
 87168  1  0  0  0  0
 87169  1  0  0  0  0
 88170  1  0  0  0  0
 88171  1  0  0  0  0
 88172  1  0  0  0  0
 97173  1  0  0  0  0
 97174  1  0  0  0  0
 98175  1  0  0  0  0
 98176  1  0  0  0  0
 98177  1  0  0  0  0
101178  1  0  0  0  0
101179  1  0  0  0  0
102180  1  0  0  0  0
102181  1  0  0  0  0
102182  1  0  0  0  0
107183  1  0  0  0  0
112184  1  0  0  0  0
113185  1  0  0  0  0
116186  1  0  0  0  0
M  END
