
  xtb     02122221593D
 energy: -272.846293398895 gnorm: 0.000450657572 xtb: 6.4.1 (unknown)
150168  0     0  0            999 V2000
    5.4041   -5.6459    7.8031 C   0  0  0  0  0  0  0  0  0  0  0  0
    6.2992   -6.1842    6.9467 C   0  0  0  0  0  0  0  0  0  0  0  0
    6.5605   -5.6581    5.5714 C   0  0  0  0  0  0  0  0  0  0  0  0
    6.0265   -4.7172    5.0293 O   0  0  0  0  0  0  0  0  0  0  0  0
    7.6871   -6.4493    5.0526 C   0  0  0  0  0  0  0  0  0  0  0  0
    8.2873   -6.3137    3.8014 C   0  0  0  0  0  0  0  0  0  0  0  0
    9.3282   -7.1821    3.5828 C   0  0  0  0  0  0  0  0  0  0  0  0
    9.7525   -8.1121    4.5435 C   0  0  0  0  0  0  0  0  0  0  0  0
    9.1788   -8.2490    5.7840 C   0  0  0  0  0  0  0  0  0  0  0  0
    8.1081   -7.3793    6.0257 C   0  0  0  0  0  0  0  0  0  0  0  0
    7.2669   -7.2419    7.2083 C   0  0  0  0  0  0  0  0  0  0  0  0
    7.3365   -8.0107    8.3378 C   0  0  0  0  0  0  0  0  0  0  0  0
    8.2676   -9.0518    8.5437 C   0  0  0  0  0  0  0  0  0  0  0  0
    8.9939   -9.9083    8.7810 N   0  0  0  0  0  0  0  0  0  0  0  0
    6.4867   -7.8849    9.4581 C   0  0  0  0  0  0  0  0  0  0  0  0
    5.8356   -7.8477   10.4029 N   0  0  0  0  0  0  0  0  0  0  0  0
   10.8383   -8.6581    3.6506 C   0  0  0  0  0  0  0  0  0  0  0  0
   10.5506  -10.0117    2.9666 C   0  0  0  0  0  0  0  0  0  0  0  0
   11.5359  -10.0538    1.8209 C   0  0  0  0  0  0  0  0  0  0  0  0
   11.1355   -9.1741    0.9117 C   0  0  0  0  0  0  0  0  0  0  0  0
    9.8725   -8.5228    1.4274 C   0  0  0  0  0  0  0  0  0  0  0  0
    9.2614   -9.7027    2.1943 C   0  0  0  0  0  0  0  0  0  0  0  0
   10.3653   -7.6224    2.5805 C   0  0  0  0  0  0  0  0  0  0  0  0
    4.3892   -4.6881    7.4101 C   0  0  0  0  0  0  0  0  0  0  0  0
    3.5982   -4.8732    6.2703 C   0  0  0  0  0  0  0  0  0  0  0  0
    3.7036   -6.0165    5.5714 F   0  0  0  0  0  0  0  0  0  0  0  0
    2.6545   -3.9554    5.8746 C   0  0  0  0  0  0  0  0  0  0  0  0
    2.4463   -2.7818    6.6050 C   0  0  0  0  0  0  0  0  0  0  0  0
    3.2246   -2.6083    7.7570 C   0  0  0  0  0  0  0  0  0  0  0  0
    3.1161   -1.4744    8.4744 F   0  0  0  0  0  0  0  0  0  0  0  0
    4.1518   -3.5398    8.1667 C   0  0  0  0  0  0  0  0  0  0  0  0
    1.5089   -1.7897    6.1292 C   0  0  0  0  0  0  0  0  0  0  0  0
    0.6664   -0.9519    6.8307 C   0  0  0  0  0  0  0  0  0  0  0  0
    0.3911   -1.0302    8.2646 C   0  0  0  0  0  0  0  0  0  0  0  0
    0.2507   -2.2651    8.8942 C   0  0  0  0  0  0  0  0  0  0  0  0
   -0.0475   -2.3196   10.2414 C   0  0  0  0  0  0  0  0  0  0  0  0
   -0.2151   -1.1534   10.9686 C   0  0  0  0  0  0  0  0  0  0  0  0
   -0.0825    0.0855   10.3558 C   0  0  0  0  0  0  0  0  0  0  0  0
   -0.3120    1.3588   11.1174 C   0  0  0  0  0  0  0  0  0  0  0  0
   -1.7288    1.8792   10.8661 C   0  0  0  0  0  0  0  0  0  0  0  0
    0.2190    0.1344    9.0033 C   0  0  0  0  0  0  0  0  0  0  0  0
   -0.0042   -0.0630    5.9599 C   0  0  0  0  0  0  0  0  0  0  0  0
   -1.1758    1.2068    6.2232 S   0  0  0  0  0  0  0  0  0  0  0  0
   -1.2307    1.4889    4.5158 C   0  0  0  0  0  0  0  0  0  0  0  0
   -1.8887    2.3196    3.5878 C   0  0  0  0  0  0  0  0  0  0  0  0
   -2.9411    3.2570    3.6979 C   0  0  0  0  0  0  0  0  0  0  0  0
   -3.5061    3.8262    2.4999 C   0  0  0  0  0  0  0  0  0  0  0  0
   -4.5309    4.6230    2.7581 N   0  0  0  0  0  0  0  0  0  0  0  0
   -4.7628    4.6662    4.3588 S   0  0  0  0  0  0  0  0  0  0  0  0
   -3.5662    3.6653    4.7907 N   0  0  0  0  0  0  0  0  0  0  0  0
   -2.9021    3.5510    1.2519 C   0  0  0  0  0  0  0  0  0  0  0  0
   -3.1144    4.0325   -0.0544 C   0  0  0  0  0  0  0  0  0  0  0  0
   -4.2230    5.0436   -0.9172 S   0  0  0  0  0  0  0  0  0  0  0  0
   -3.2973    4.7831   -2.3752 C   0  0  0  0  0  0  0  0  0  0  0  0
   -3.4675    5.2082   -3.7103 C   0  0  0  0  0  0  0  0  0  0  0  0
   -4.6187    5.9729   -4.1875 C   0  0  0  0  0  0  0  0  0  0  0  0
   -5.1139    7.0410   -3.4462 C   0  0  0  0  0  0  0  0  0  0  0  0
   -6.2012    7.7550   -3.9126 C   0  0  0  0  0  0  0  0  0  0  0  0
   -6.8021    7.4118   -5.1107 C   0  0  0  0  0  0  0  0  0  0  0  0
   -6.3282    6.3395   -5.8573 C   0  0  0  0  0  0  0  0  0  0  0  0
   -7.0062    5.9278   -7.1325 C   0  0  0  0  0  0  0  0  0  0  0  0
   -8.1453    4.9498   -6.8384 C   0  0  0  0  0  0  0  0  0  0  0  0
   -5.2428    5.6222   -5.3818 C   0  0  0  0  0  0  0  0  0  0  0  0
   -2.4648    4.7133   -4.5203 C   0  0  0  0  0  0  0  0  0  0  0  0
   -1.3347    3.6847   -3.6559 S   0  0  0  0  0  0  0  0  0  0  0  0
   -2.1913    3.9535   -2.1815 C   0  0  0  0  0  0  0  0  0  0  0  0
   -2.0870    3.5215   -0.8546 C   0  0  0  0  0  0  0  0  0  0  0  0
   -1.2563    2.7219   -0.1079 N   0  0  0  0  0  0  0  0  0  0  0  0
   -1.7665    2.7058    1.1776 C   0  0  0  0  0  0  0  0  0  0  0  0
   -1.3731    1.9696    2.3144 C   0  0  0  0  0  0  0  0  0  0  0  0
   -0.4803    0.9213    2.4451 N   0  0  0  0  0  0  0  0  0  0  0  0
   -0.3913    0.6415    3.7866 C   0  0  0  0  0  0  0  0  0  0  0  0
    0.3059   -0.2478    4.6128 C   0  0  0  0  0  0  0  0  0  0  0  0
    1.4468   -1.5229    4.3941 S   0  0  0  0  0  0  0  0  0  0  0  0
   -0.2344   -0.1181    1.4653 C   0  0  0  0  0  0  0  0  0  0  0  0
   -1.1394   -1.3268    1.7028 C   0  0  0  0  0  0  0  0  0  0  0  0
    0.1369    2.5641   -0.4760 C   0  0  0  0  0  0  0  0  0  0  0  0
    0.8349    3.9181   -0.6016 C   0  0  0  0  0  0  0  0  0  0  0  0
   -2.2450    4.9441   -5.9289 C   0  0  0  0  0  0  0  0  0  0  0  0
   -2.4171    6.2037   -6.5220 C   0  0  0  0  0  0  0  0  0  0  0  0
   -2.7202    7.2659   -5.7535 F   0  0  0  0  0  0  0  0  0  0  0  0
   -2.2373    6.4132   -7.8690 C   0  0  0  0  0  0  0  0  0  0  0  0
   -1.9004    5.3530   -8.7146 C   0  0  0  0  0  0  0  0  0  0  0  0
   -1.6602    4.1114   -8.1123 C   0  0  0  0  0  0  0  0  0  0  0  0
   -1.2003    3.0929   -8.8588 F   0  0  0  0  0  0  0  0  0  0  0  0
   -1.8091    3.9091   -6.7604 C   0  0  0  0  0  0  0  0  0  0  0  0
   -1.7448    5.5606  -10.1373 C   0  0  0  0  0  0  0  0  0  0  0  0
   -2.2101    4.7126  -11.0839 C   0  0  0  0  0  0  0  0  0  0  0  0
   -3.2143    3.6378  -10.8177 C   0  0  0  0  0  0  0  0  0  0  0  0
   -3.7593    3.3848   -9.7680 O   0  0  0  0  0  0  0  0  0  0  0  0
   -3.4962    3.0345  -12.1320 C   0  0  0  0  0  0  0  0  0  0  0  0
   -4.3459    1.9862  -12.4350 C   0  0  0  0  0  0  0  0  0  0  0  0
   -4.4587    1.5834  -13.7550 C   0  0  0  0  0  0  0  0  0  0  0  0
   -3.7316    2.2397  -14.7437 C   0  0  0  0  0  0  0  0  0  0  0  0
   -3.8893    1.7274  -16.3795 Cl  0  0  0  0  0  0  0  0  0  0  0  0
   -2.8797    3.3006  -14.4540 C   0  0  0  0  0  0  0  0  0  0  0  0
   -2.7621    3.6977  -13.1316 C   0  0  0  0  0  0  0  0  0  0  0  0
   -1.9581    4.7514  -12.5167 C   0  0  0  0  0  0  0  0  0  0  0  0
   -1.0847    5.5758  -13.1695 C   0  0  0  0  0  0  0  0  0  0  0  0
   -0.2880    6.5658  -12.5533 C   0  0  0  0  0  0  0  0  0  0  0  0
    0.3920    7.3859  -12.1261 N   0  0  0  0  0  0  0  0  0  0  0  0
   -0.8531    5.5486  -14.5626 C   0  0  0  0  0  0  0  0  0  0  0  0
   -0.6202    5.5829  -15.6855 N   0  0  0  0  0  0  0  0  0  0  0  0
    5.4244   -5.9064    8.8531 H   0  0  0  0  0  0  0  0  0  0  0  0
    7.9315   -5.5793    3.0959 H   0  0  0  0  0  0  0  0  0  0  0  0
    9.5252   -8.9605    6.5146 H   0  0  0  0  0  0  0  0  0  0  0  0
   11.8529   -8.5835    4.0369 H   0  0  0  0  0  0  0  0  0  0  0  0
   10.5414  -10.8667    3.6367 H   0  0  0  0  0  0  0  0  0  0  0  0
   12.4232  -10.6591    1.8148 H   0  0  0  0  0  0  0  0  0  0  0  0
   11.6216   -8.8977   -0.0054 H   0  0  0  0  0  0  0  0  0  0  0  0
    9.2457   -8.0219    0.6946 H   0  0  0  0  0  0  0  0  0  0  0  0
    8.9735  -10.5178    1.5327 H   0  0  0  0  0  0  0  0  0  0  0  0
    8.4178   -9.4325    2.8267 H   0  0  0  0  0  0  0  0  0  0  0  0
   11.0639   -6.8550    2.2525 H   0  0  0  0  0  0  0  0  0  0  0  0
    2.0733   -4.1494    4.9864 H   0  0  0  0  0  0  0  0  0  0  0  0
    4.7355   -3.3432    9.0524 H   0  0  0  0  0  0  0  0  0  0  0  0
    0.3614   -3.1763    8.3236 H   0  0  0  0  0  0  0  0  0  0  0  0
   -0.1551   -3.2783   10.7275 H   0  0  0  0  0  0  0  0  0  0  0  0
   -0.4504   -1.2065   12.0219 H   0  0  0  0  0  0  0  0  0  0  0  0
    0.4094    2.1135   10.7979 H   0  0  0  0  0  0  0  0  0  0  0  0
   -0.1737    1.1836   12.1858 H   0  0  0  0  0  0  0  0  0  0  0  0
   -1.8959    2.8051   11.4114 H   0  0  0  0  0  0  0  0  0  0  0  0
   -1.8813    2.0668    9.8057 H   0  0  0  0  0  0  0  0  0  0  0  0
   -2.4636    1.1465   11.1924 H   0  0  0  0  0  0  0  0  0  0  0  0
    0.3426    1.0929    8.5213 H   0  0  0  0  0  0  0  0  0  0  0  0
   -4.6329    7.3231   -2.5223 H   0  0  0  0  0  0  0  0  0  0  0  0
   -6.5786    8.5890   -3.3398 H   0  0  0  0  0  0  0  0  0  0  0  0
   -7.6468    7.9804   -5.4724 H   0  0  0  0  0  0  0  0  0  0  0  0
   -7.4087    6.8083   -7.6377 H   0  0  0  0  0  0  0  0  0  0  0  0
   -6.2840    5.4496   -7.7979 H   0  0  0  0  0  0  0  0  0  0  0  0
   -7.7593    4.0582   -6.3496 H   0  0  0  0  0  0  0  0  0  0  0  0
   -8.8796    5.4098   -6.1807 H   0  0  0  0  0  0  0  0  0  0  0  0
   -8.6400    4.6538   -7.7604 H   0  0  0  0  0  0  0  0  0  0  0  0
   -4.8817    4.7731   -5.9456 H   0  0  0  0  0  0  0  0  0  0  0  0
   -0.4392    0.2721    0.4704 H   0  0  0  0  0  0  0  0  0  0  0  0
    0.8155   -0.4203    1.5331 H   0  0  0  0  0  0  0  0  0  0  0  0
   -0.9673   -2.0675    0.9269 H   0  0  0  0  0  0  0  0  0  0  0  0
   -0.9362   -1.7835    2.6672 H   0  0  0  0  0  0  0  0  0  0  0  0
   -2.1840   -1.0240    1.6728 H   0  0  0  0  0  0  0  0  0  0  0  0
    0.6455    1.9880    0.2948 H   0  0  0  0  0  0  0  0  0  0  0  0
    0.1892    2.0294   -1.4301 H   0  0  0  0  0  0  0  0  0  0  0  0
    0.3937    4.5146   -1.3949 H   0  0  0  0  0  0  0  0  0  0  0  0
    1.8858    3.7642   -0.8300 H   0  0  0  0  0  0  0  0  0  0  0  0
    0.7567    4.4680    0.3338 H   0  0  0  0  0  0  0  0  0  0  0  0
   -2.3875    7.4024   -8.2723 H   0  0  0  0  0  0  0  0  0  0  0  0
   -1.6115    2.9315   -6.3482 H   0  0  0  0  0  0  0  0  0  0  0  0
   -1.2262    6.4658  -10.4248 H   0  0  0  0  0  0  0  0  0  0  0  0
   -4.8997    1.4957  -11.6496 H   0  0  0  0  0  0  0  0  0  0  0  0
   -5.1055    0.7644  -14.0269 H   0  0  0  0  0  0  0  0  0  0  0  0
   -2.3387    3.7848  -15.2500 H   0  0  0  0  0  0  0  0  0  0  0  0
  1  2  2  0  0  0  0
  2  3  1  0  0  0  0
  3  4  2  0  0  0  0
  3  5  1  0  0  0  0
  5  6  2  0  0  0  0
  6  7  1  0  0  0  0
  7  8  2  0  0  0  0
  8  9  1  0  0  0  0
  9 10  2  0  0  0  0
 10 11  1  0  0  0  0
 11 12  2  0  0  0  0
 12 13  1  0  0  0  0
 13 14  3  0  0  0  0
 12 15  1  0  0  0  0
 15 16  3  0  0  0  0
  8 17  1  0  0  0  0
 17 18  1  0  0  0  0
 18 19  1  0  0  0  0
 19 20  2  0  0  0  0
 20 21  1  0  0  0  0
 21 22  1  0  0  0  0
 21 23  1  0  0  0  0
  1 24  1  0  0  0  0
 24 25  2  0  0  0  0
 25 26  1  0  0  0  0
 25 27  1  0  0  0  0
 27 28  2  0  0  0  0
 28 29  1  0  0  0  0
 29 30  1  0  0  0  0
 29 31  2  0  0  0  0
 28 32  1  0  0  0  0
 32 33  2  0  0  0  0
 33 34  1  0  0  0  0
 34 35  2  0  0  0  0
 35 36  1  0  0  0  0
 36 37  2  0  0  0  0
 37 38  1  0  0  0  0
 38 39  1  0  0  0  0
 39 40  1  0  0  0  0
 38 41  2  0  0  0  0
 33 42  1  0  0  0  0
 42 43  1  0  0  0  0
 43 44  1  0  0  0  0
 44 45  1  0  0  0  0
 45 46  1  0  0  0  0
 46 47  1  0  0  0  0
 47 48  2  0  0  0  0
 48 49  1  0  0  0  0
 49 50  1  0  0  0  0
 47 51  1  0  0  0  0
 51 52  1  0  0  0  0
 52 53  1  0  0  0  0
 53 54  1  0  0  0  0
 54 55  1  0  0  0  0
 55 56  1  0  0  0  0
 56 57  2  0  0  0  0
 57 58  1  0  0  0  0
 58 59  2  0  0  0  0
 59 60  1  0  0  0  0
 60 61  1  0  0  0  0
 61 62  1  0  0  0  0
 60 63  2  0  0  0  0
 55 64  2  0  0  0  0
 64 65  1  0  0  0  0
 65 66  1  0  0  0  0
 66 67  1  0  0  0  0
 67 68  1  0  0  0  0
 68 69  1  0  0  0  0
 69 70  1  0  0  0  0
 70 71  1  0  0  0  0
 71 72  1  0  0  0  0
 72 73  1  0  0  0  0
 73 74  1  0  0  0  0
 71 75  1  0  0  0  0
 75 76  1  0  0  0  0
 68 77  1  0  0  0  0
 77 78  1  0  0  0  0
 64 79  1  0  0  0  0
 79 80  2  0  0  0  0
 80 81  1  0  0  0  0
 80 82  1  0  0  0  0
 82 83  2  0  0  0  0
 83 84  1  0  0  0  0
 84 85  1  0  0  0  0
 84 86  2  0  0  0  0
 83 87  1  0  0  0  0
 87 88  2  0  0  0  0
 88 89  1  0  0  0  0
 89 90  2  0  0  0  0
 89 91  1  0  0  0  0
 91 92  2  0  0  0  0
 92 93  1  0  0  0  0
 93 94  2  0  0  0  0
 94 95  1  0  0  0  0
 94 96  1  0  0  0  0
 96 97  2  0  0  0  0
 97 98  1  0  0  0  0
 98 99  2  0  0  0  0
 99100  1  0  0  0  0
100101  3  0  0  0  0
 99102  1  0  0  0  0
102103  3  0  0  0  0
 11  2  1  0  0  0  0
 23 17  1  0  0  0  0
 31 24  1  0  0  0  0
 74 32  1  0  0  0  0
 86 79  1  0  0  0  0
 98 88  1  0  0  0  0
 10  5  1  0  0  0  0
 22 18  1  0  0  0  0
 41 34  1  0  0  0  0
 73 42  2  0  0  0  0
 97 91  1  0  0  0  0
 23  7  1  0  0  0  0
 72 44  2  0  0  0  0
 70 45  2  0  0  0  0
 50 46  2  0  0  0  0
 69 51  2  0  0  0  0
 67 52  2  0  0  0  0
 66 54  2  0  0  0  0
 63 56  1  0  0  0  0
  1104  1  0  0  0  0
  6105  1  0  0  0  0
  9106  1  0  0  0  0
 17107  1  0  0  0  0
 18108  1  0  0  0  0
 19109  1  0  0  0  0
 20110  1  0  0  0  0
 21111  1  0  0  0  0
 22112  1  0  0  0  0
 22113  1  0  0  0  0
 23114  1  0  0  0  0
 27115  1  0  0  0  0
 31116  1  0  0  0  0
 35117  1  0  0  0  0
 36118  1  0  0  0  0
 37119  1  0  0  0  0
 39120  1  0  0  0  0
 39121  1  0  0  0  0
 40122  1  0  0  0  0
 40123  1  0  0  0  0
 40124  1  0  0  0  0
 41125  1  0  0  0  0
 57126  1  0  0  0  0
 58127  1  0  0  0  0
 59128  1  0  0  0  0
 61129  1  0  0  0  0
 61130  1  0  0  0  0
 62131  1  0  0  0  0
 62132  1  0  0  0  0
 62133  1  0  0  0  0
 63134  1  0  0  0  0
 75135  1  0  0  0  0
 75136  1  0  0  0  0
 76137  1  0  0  0  0
 76138  1  0  0  0  0
 76139  1  0  0  0  0
 77140  1  0  0  0  0
 77141  1  0  0  0  0
 78142  1  0  0  0  0
 78143  1  0  0  0  0
 78144  1  0  0  0  0
 82145  1  0  0  0  0
 86146  1  0  0  0  0
 87147  1  0  0  0  0
 92148  1  0  0  0  0
 93149  1  0  0  0  0
 96150  1  0  0  0  0
M  END
