
  xtb     02132214593D
 energy: -319.301522772144 gnorm: 0.000647742872 xtb: 6.4.1 (unknown)
184209  0     0  0            999 V2000
    8.6853   -1.0652    7.0073 C   0  0  0  0  0  0  0  0  0  0  0  0
    9.3866   -0.0197    6.5163 C   0  0  0  0  0  0  0  0  0  0  0  0
    8.7635    1.2474    6.0358 C   0  0  0  0  0  0  0  0  0  0  0  0
    7.5841    1.5226    5.9986 O   0  0  0  0  0  0  0  0  0  0  0  0
    9.8859    2.1481    5.7267 C   0  0  0  0  0  0  0  0  0  0  0  0
    9.7960    3.4515    5.2395 C   0  0  0  0  0  0  0  0  0  0  0  0
   11.0100    4.0658    5.0535 C   0  0  0  0  0  0  0  0  0  0  0  0
   12.2290    3.4371    5.3462 C   0  0  0  0  0  0  0  0  0  0  0  0
   12.3333    2.1587    5.8379 C   0  0  0  0  0  0  0  0  0  0  0  0
   11.1077    1.5076    6.0215 C   0  0  0  0  0  0  0  0  0  0  0  0
   10.8308    0.1553    6.4914 C   0  0  0  0  0  0  0  0  0  0  0  0
   11.7592   -0.8105    6.7667 C   0  0  0  0  0  0  0  0  0  0  0  0
   13.1560   -0.6185    6.7048 C   0  0  0  0  0  0  0  0  0  0  0  0
   14.2999   -0.5265    6.6789 N   0  0  0  0  0  0  0  0  0  0  0  0
   11.4550   -2.1478    7.1052 C   0  0  0  0  0  0  0  0  0  0  0  0
   11.2966   -3.2578    7.3504 N   0  0  0  0  0  0  0  0  0  0  0  0
   13.0404    4.6339    4.9173 C   0  0  0  0  0  0  0  0  0  0  0  0
   13.7195    4.5436    3.5340 C   0  0  0  0  0  0  0  0  0  0  0  0
   14.0195    5.9834    3.1844 C   0  0  0  0  0  0  0  0  0  0  0  0
   12.8669    6.5800    2.9078 C   0  0  0  0  0  0  0  0  0  0  0  0
   11.7686    5.5532    3.0653 C   0  0  0  0  0  0  0  0  0  0  0  0
   12.5184    4.2936    2.6127 C   0  0  0  0  0  0  0  0  0  0  0  0
   11.6823    5.3344    4.5910 C   0  0  0  0  0  0  0  0  0  0  0  0
    7.2624   -1.2117    6.8258 C   0  0  0  0  0  0  0  0  0  0  0  0
    6.3958   -1.5637    7.8375 C   0  0  0  0  0  0  0  0  0  0  0  0
    6.7232   -1.7682    9.2669 C   0  0  0  0  0  0  0  0  0  0  0  0
    7.8014   -1.7404    9.8091 O   0  0  0  0  0  0  0  0  0  0  0  0
    5.5145   -1.9854    9.8951 N   0  0  0  0  0  0  0  0  0  0  0  0
    5.3750   -2.2278   11.3143 C   0  0  0  0  0  0  0  0  0  0  0  0
    5.0724   -3.6957   11.5906 C   0  0  0  0  0  0  0  0  0  0  0  0
    4.4278   -1.9032    9.0312 C   0  0  0  0  0  0  0  0  0  0  0  0
    3.2766   -1.9270    9.3908 O   0  0  0  0  0  0  0  0  0  0  0  0
    4.9985   -1.6996    7.6840 C   0  0  0  0  0  0  0  0  0  0  0  0
    4.3625   -1.5501    6.4603 C   0  0  0  0  0  0  0  0  0  0  0  0
    5.2251   -1.1669    5.3880 C   0  0  0  0  0  0  0  0  0  0  0  0
    6.6465   -1.0205    5.5570 C   0  0  0  0  0  0  0  0  0  0  0  0
    7.2579   -0.7432    4.4107 N   0  0  0  0  0  0  0  0  0  0  0  0
    6.1573   -0.6307    3.2459 S   0  0  0  0  0  0  0  0  0  0  0  0
    4.8553   -0.9659    4.1275 N   0  0  0  0  0  0  0  0  0  0  0  0
    2.9713   -1.7698    6.2075 C   0  0  0  0  0  0  0  0  0  0  0  0
    2.1255   -2.7362    6.7305 C   0  0  0  0  0  0  0  0  0  0  0  0
    2.5399   -3.8373    7.5959 C   0  0  0  0  0  0  0  0  0  0  0  0
    3.7360   -4.5144    7.3673 C   0  0  0  0  0  0  0  0  0  0  0  0
    4.1107   -5.5509    8.1991 C   0  0  0  0  0  0  0  0  0  0  0  0
    3.2984   -5.9271    9.2562 C   0  0  0  0  0  0  0  0  0  0  0  0
    2.0953   -5.2734    9.4882 C   0  0  0  0  0  0  0  0  0  0  0  0
    1.1782   -5.7056   10.5953 C   0  0  0  0  0  0  0  0  0  0  0  0
    0.0829   -6.6221   10.0463 C   0  0  0  0  0  0  0  0  0  0  0  0
    1.7241   -4.2333    8.6492 C   0  0  0  0  0  0  0  0  0  0  0  0
    0.8230   -2.5985    6.2169 C   0  0  0  0  0  0  0  0  0  0  0  0
   -0.6441   -3.5280    6.4286 S   0  0  0  0  0  0  0  0  0  0  0  0
   -1.4335   -2.5092    5.2713 C   0  0  0  0  0  0  0  0  0  0  0  0
   -2.6621   -2.4043    4.5993 C   0  0  0  0  0  0  0  0  0  0  0  0
   -3.7942   -3.2487    4.5929 C   0  0  0  0  0  0  0  0  0  0  0  0
   -4.8339   -3.0095    3.6322 C   0  0  0  0  0  0  0  0  0  0  0  0
   -5.7942   -3.9189    3.6893 N   0  0  0  0  0  0  0  0  0  0  0  0
   -5.4276   -4.9797    4.8566 S   0  0  0  0  0  0  0  0  0  0  0  0
   -4.0256   -4.3229    5.3309 N   0  0  0  0  0  0  0  0  0  0  0  0
   -4.7507   -1.8701    2.8023 C   0  0  0  0  0  0  0  0  0  0  0  0
   -5.6251   -1.3637    1.8254 C   0  0  0  0  0  0  0  0  0  0  0  0
   -7.0755   -1.8101    0.9898 S   0  0  0  0  0  0  0  0  0  0  0  0
   -6.9566   -0.3481    0.0365 C   0  0  0  0  0  0  0  0  0  0  0  0
   -7.7255    0.1793   -1.0285 C   0  0  0  0  0  0  0  0  0  0  0  0
   -8.9428   -0.4491   -1.5422 C   0  0  0  0  0  0  0  0  0  0  0  0
  -10.0576    0.3188   -1.8736 C   0  0  0  0  0  0  0  0  0  0  0  0
  -11.2049   -0.2971   -2.3330 C   0  0  0  0  0  0  0  0  0  0  0  0
  -11.2578   -1.6752   -2.4591 C   0  0  0  0  0  0  0  0  0  0  0  0
  -10.1581   -2.4561   -2.1298 C   0  0  0  0  0  0  0  0  0  0  0  0
  -10.2154   -3.9541   -2.2069 C   0  0  0  0  0  0  0  0  0  0  0  0
  -10.4946   -4.5445   -0.8231 C   0  0  0  0  0  0  0  0  0  0  0  0
   -9.0069   -1.8319   -1.6731 C   0  0  0  0  0  0  0  0  0  0  0  0
   -7.2073    1.3764   -1.4718 C   0  0  0  0  0  0  0  0  0  0  0  0
   -5.7941    1.8819   -0.5611 S   0  0  0  0  0  0  0  0  0  0  0  0
   -5.8671    0.4446    0.3921 C   0  0  0  0  0  0  0  0  0  0  0  0
   -5.0960   -0.1439    1.4030 C   0  0  0  0  0  0  0  0  0  0  0  0
   -3.9213    0.1161    2.0542 N   0  0  0  0  0  0  0  0  0  0  0  0
   -3.6697   -0.9503    2.9043 C   0  0  0  0  0  0  0  0  0  0  0  0
   -2.5603   -1.2856    3.7233 C   0  0  0  0  0  0  0  0  0  0  0  0
   -1.2920   -0.7464    3.8507 N   0  0  0  0  0  0  0  0  0  0  0  0
   -0.6110   -1.4969    4.7701 C   0  0  0  0  0  0  0  0  0  0  0  0
    0.6827   -1.5518    5.3002 C   0  0  0  0  0  0  0  0  0  0  0  0
    2.1752   -0.7253    5.0478 S   0  0  0  0  0  0  0  0  0  0  0  0
   -0.5597    0.1372    2.9724 C   0  0  0  0  0  0  0  0  0  0  0  0
   -0.4620   -0.4294    1.5583 C   0  0  0  0  0  0  0  0  0  0  0  0
   -3.4074    1.4678    2.0833 C   0  0  0  0  0  0  0  0  0  0  0  0
   -3.5047    2.0764    3.4795 C   0  0  0  0  0  0  0  0  0  0  0  0
   -7.5554    2.1638   -2.6370 C   0  0  0  0  0  0  0  0  0  0  0  0
   -7.9039    1.5247   -3.8381 C   0  0  0  0  0  0  0  0  0  0  0  0
   -8.0781    2.2933   -4.9629 C   0  0  0  0  0  0  0  0  0  0  0  0
   -8.3333    1.8556   -6.3630 C   0  0  0  0  0  0  0  0  0  0  0  0
   -8.5526    0.7373   -6.7598 O   0  0  0  0  0  0  0  0  0  0  0  0
   -8.2596    3.1125   -7.1571 C   0  0  0  0  0  0  0  0  0  0  0  0
   -8.0801    4.2062   -6.2854 C   0  0  0  0  0  0  0  0  0  0  0  0
   -7.9420    3.6962   -4.9286 C   0  0  0  0  0  0  0  0  0  0  0  0
   -7.6359    4.3300   -3.7397 C   0  0  0  0  0  0  0  0  0  0  0  0
   -7.4324    3.5543   -2.6083 C   0  0  0  0  0  0  0  0  0  0  0  0
   -8.0289    5.4920   -6.7911 C   0  0  0  0  0  0  0  0  0  0  0  0
   -8.0952    5.6661   -8.1648 C   0  0  0  0  0  0  0  0  0  0  0  0
   -8.1651    4.5776   -9.0392 C   0  0  0  0  0  0  0  0  0  0  0  0
   -8.2902    3.2792   -8.5200 C   0  0  0  0  0  0  0  0  0  0  0  0
   -8.0922    4.8192  -10.4646 C   0  0  0  0  0  0  0  0  0  0  0  0
   -7.3352    4.1077  -11.3311 C   0  0  0  0  0  0  0  0  0  0  0  0
   -6.2596    3.1511  -10.9328 C   0  0  0  0  0  0  0  0  0  0  0  0
   -6.0100    2.7257   -9.8274 O   0  0  0  0  0  0  0  0  0  0  0  0
   -5.4843    2.8985  -12.1596 C   0  0  0  0  0  0  0  0  0  0  0  0
   -4.3402    2.1085  -12.2653 C   0  0  0  0  0  0  0  0  0  0  0  0
   -3.8057    2.0652  -13.5295 C   0  0  0  0  0  0  0  0  0  0  0  0
   -4.3637    2.7605  -14.6125 C   0  0  0  0  0  0  0  0  0  0  0  0
   -5.4928    3.5381  -14.5241 C   0  0  0  0  0  0  0  0  0  0  0  0
   -6.0567    3.5944  -13.2438 C   0  0  0  0  0  0  0  0  0  0  0  0
   -7.2348    4.3106  -12.7710 C   0  0  0  0  0  0  0  0  0  0  0  0
   -8.1250    4.9993  -13.5486 C   0  0  0  0  0  0  0  0  0  0  0  0
   -9.2952    5.6281  -13.0702 C   0  0  0  0  0  0  0  0  0  0  0  0
  -10.2671    6.1554  -12.7617 N   0  0  0  0  0  0  0  0  0  0  0  0
   -8.0103    5.1587  -14.9463 C   0  0  0  0  0  0  0  0  0  0  0  0
   -7.9755    5.3330  -16.0803 N   0  0  0  0  0  0  0  0  0  0  0  0
   -3.3015    2.2803  -15.5699 C   0  0  0  0  0  0  0  0  0  0  0  0
   -2.1909    3.2898  -15.9307 C   0  0  0  0  0  0  0  0  0  0  0  0
   -1.0748    2.4228  -16.4675 C   0  0  0  0  0  0  0  0  0  0  0  0
   -0.5492    1.7618  -15.4440 C   0  0  0  0  0  0  0  0  0  0  0  0
   -1.3011    2.1709  -14.1981 C   0  0  0  0  0  0  0  0  0  0  0  0
   -1.6178    3.6305  -14.5488 C   0  0  0  0  0  0  0  0  0  0  0  0
   -2.6828    1.5027  -14.3641 C   0  0  0  0  0  0  0  0  0  0  0  0
    9.1715   -1.8376    7.5885 H   0  0  0  0  0  0  0  0  0  0  0  0
    8.8360    3.9003    5.0375 H   0  0  0  0  0  0  0  0  0  0  0  0
   13.2770    1.6944    6.0706 H   0  0  0  0  0  0  0  0  0  0  0  0
   13.6831    5.0704    5.6792 H   0  0  0  0  0  0  0  0  0  0  0  0
   14.5481    3.8431    3.4791 H   0  0  0  0  0  0  0  0  0  0  0  0
   15.0002    6.4192    3.2271 H   0  0  0  0  0  0  0  0  0  0  0  0
   12.6928    7.6138    2.6735 H   0  0  0  0  0  0  0  0  0  0  0  0
   10.8203    5.7735    2.5823 H   0  0  0  0  0  0  0  0  0  0  0  0
   12.7925    4.3343    1.5599 H   0  0  0  0  0  0  0  0  0  0  0  0
   11.9888    3.3645    2.8153 H   0  0  0  0  0  0  0  0  0  0  0  0
   11.4175    6.2382    5.1365 H   0  0  0  0  0  0  0  0  0  0  0  0
    6.3164   -1.9288   11.7811 H   0  0  0  0  0  0  0  0  0  0  0  0
    4.5599   -1.6006   11.6854 H   0  0  0  0  0  0  0  0  0  0  0  0
    4.1429   -3.9819   11.1037 H   0  0  0  0  0  0  0  0  0  0  0  0
    5.8752   -4.3246   11.2128 H   0  0  0  0  0  0  0  0  0  0  0  0
    4.9747   -3.8554   12.6606 H   0  0  0  0  0  0  0  0  0  0  0  0
    4.3605   -4.2378    6.5299 H   0  0  0  0  0  0  0  0  0  0  0  0
    5.0401   -6.0720    8.0211 H   0  0  0  0  0  0  0  0  0  0  0  0
    3.6026   -6.7356    9.9056 H   0  0  0  0  0  0  0  0  0  0  0  0
    1.7447   -6.2364   11.3632 H   0  0  0  0  0  0  0  0  0  0  0  0
    0.7173   -4.8282   11.0530 H   0  0  0  0  0  0  0  0  0  0  0  0
   -0.5901   -6.9299   10.8430 H   0  0  0  0  0  0  0  0  0  0  0  0
    0.5232   -7.5113    9.6004 H   0  0  0  0  0  0  0  0  0  0  0  0
   -0.4939   -6.1065    9.2820 H   0  0  0  0  0  0  0  0  0  0  0  0
    0.8049   -3.6998    8.8360 H   0  0  0  0  0  0  0  0  0  0  0  0
  -10.0238    1.3921   -1.7579 H   0  0  0  0  0  0  0  0  0  0  0  0
  -12.0671    0.3006   -2.5899 H   0  0  0  0  0  0  0  0  0  0  0  0
  -12.1612   -2.1479   -2.8164 H   0  0  0  0  0  0  0  0  0  0  0  0
   -9.2636   -4.3415   -2.5763 H   0  0  0  0  0  0  0  0  0  0  0  0
  -11.0016   -4.2614   -2.8988 H   0  0  0  0  0  0  0  0  0  0  0  0
  -11.4433   -4.1753   -0.4397 H   0  0  0  0  0  0  0  0  0  0  0  0
   -9.7104   -4.2611   -0.1247 H   0  0  0  0  0  0  0  0  0  0  0  0
  -10.5394   -5.6298   -0.8747 H   0  0  0  0  0  0  0  0  0  0  0  0
   -8.1411   -2.4306   -1.4308 H   0  0  0  0  0  0  0  0  0  0  0  0
    0.4451    0.2277    3.3921 H   0  0  0  0  0  0  0  0  0  0  0  0
   -1.0000    1.1344    2.9774 H   0  0  0  0  0  0  0  0  0  0  0  0
    0.0883    0.2576    0.9212 H   0  0  0  0  0  0  0  0  0  0  0  0
    0.0650   -1.3804    1.5777 H   0  0  0  0  0  0  0  0  0  0  0  0
   -1.4475   -0.5958    1.1298 H   0  0  0  0  0  0  0  0  0  0  0  0
   -4.0266    2.0479    1.3945 H   0  0  0  0  0  0  0  0  0  0  0  0
   -2.3868    1.5040    1.6992 H   0  0  0  0  0  0  0  0  0  0  0  0
   -4.5441    2.1091    3.7982 H   0  0  0  0  0  0  0  0  0  0  0  0
   -2.9468    1.4906    4.2060 H   0  0  0  0  0  0  0  0  0  0  0  0
   -3.1132    3.0900    3.4695 H   0  0  0  0  0  0  0  0  0  0  0  0
   -7.9878    0.4502   -3.8881 H   0  0  0  0  0  0  0  0  0  0  0  0
   -7.5289    5.4030   -3.6890 H   0  0  0  0  0  0  0  0  0  0  0  0
   -7.1599    4.0323   -1.6778 H   0  0  0  0  0  0  0  0  0  0  0  0
   -7.9275    6.3457   -6.1381 H   0  0  0  0  0  0  0  0  0  0  0  0
   -8.0368    6.6630   -8.5782 H   0  0  0  0  0  0  0  0  0  0  0  0
   -8.4223    2.4304   -9.1715 H   0  0  0  0  0  0  0  0  0  0  0  0
   -8.6412    5.6803  -10.8267 H   0  0  0  0  0  0  0  0  0  0  0  0
   -3.9459    1.5910  -11.4049 H   0  0  0  0  0  0  0  0  0  0  0  0
   -5.9096    4.0666  -15.3651 H   0  0  0  0  0  0  0  0  0  0  0  0
   -3.6577    1.7147  -16.4285 H   0  0  0  0  0  0  0  0  0  0  0  0
   -2.5135    4.1163  -16.5578 H   0  0  0  0  0  0  0  0  0  0  0  0
   -0.8272    2.3408  -17.5094 H   0  0  0  0  0  0  0  0  0  0  0  0
    0.2248    1.0172  -15.4601 H   0  0  0  0  0  0  0  0  0  0  0  0
   -0.8134    1.9783  -13.2463 H   0  0  0  0  0  0  0  0  0  0  0  0
   -0.7193    4.2416  -14.6157 H   0  0  0  0  0  0  0  0  0  0  0  0
   -2.3306    4.1043  -13.8762 H   0  0  0  0  0  0  0  0  0  0  0  0
   -2.6273    0.4172  -14.4170 H   0  0  0  0  0  0  0  0  0  0  0  0
  1  2  2  0  0  0  0
  2  3  1  0  0  0  0
  3  4  2  0  0  0  0
  3  5  1  0  0  0  0
  5  6  2  0  0  0  0
  6  7  1  0  0  0  0
  7  8  2  0  0  0  0
  8  9  1  0  0  0  0
  9 10  2  0  0  0  0
 10 11  1  0  0  0  0
 11 12  2  0  0  0  0
 12 13  1  0  0  0  0
 13 14  3  0  0  0  0
 12 15  1  0  0  0  0
 15 16  3  0  0  0  0
  8 17  1  0  0  0  0
 17 18  1  0  0  0  0
 18 19  1  0  0  0  0
 19 20  2  0  0  0  0
 20 21  1  0  0  0  0
 21 22  1  0  0  0  0
 21 23  1  0  0  0  0
  1 24  1  0  0  0  0
 24 25  2  0  0  0  0
 25 26  1  0  0  0  0
 26 27  2  0  0  0  0
 26 28  1  0  0  0  0
 28 29  1  0  0  0  0
 29 30  1  0  0  0  0
 28 31  1  0  0  0  0
 31 32  2  0  0  0  0
 31 33  1  0  0  0  0
 33 34  2  0  0  0  0
 34 35  1  0  0  0  0
 35 36  1  0  0  0  0
 36 37  2  0  0  0  0
 37 38  1  0  0  0  0
 38 39  1  0  0  0  0
 34 40  1  0  0  0  0
 40 41  2  0  0  0  0
 41 42  1  0  0  0  0
 42 43  2  0  0  0  0
 43 44  1  0  0  0  0
 44 45  2  0  0  0  0
 45 46  1  0  0  0  0
 46 47  1  0  0  0  0
 47 48  1  0  0  0  0
 46 49  2  0  0  0  0
 41 50  1  0  0  0  0
 50 51  1  0  0  0  0
 51 52  1  0  0  0  0
 52 53  1  0  0  0  0
 53 54  1  0  0  0  0
 54 55  1  0  0  0  0
 55 56  2  0  0  0  0
 56 57  1  0  0  0  0
 57 58  1  0  0  0  0
 55 59  1  0  0  0  0
 59 60  1  0  0  0  0
 60 61  1  0  0  0  0
 61 62  1  0  0  0  0
 62 63  1  0  0  0  0
 63 64  1  0  0  0  0
 64 65  2  0  0  0  0
 65 66  1  0  0  0  0
 66 67  2  0  0  0  0
 67 68  1  0  0  0  0
 68 69  1  0  0  0  0
 69 70  1  0  0  0  0
 68 71  2  0  0  0  0
 63 72  2  0  0  0  0
 72 73  1  0  0  0  0
 73 74  1  0  0  0  0
 74 75  1  0  0  0  0
 75 76  1  0  0  0  0
 76 77  1  0  0  0  0
 77 78  1  0  0  0  0
 78 79  1  0  0  0  0
 79 80  1  0  0  0  0
 80 81  1  0  0  0  0
 81 82  1  0  0  0  0
 79 83  1  0  0  0  0
 83 84  1  0  0  0  0
 76 85  1  0  0  0  0
 85 86  1  0  0  0  0
 72 87  1  0  0  0  0
 87 88  2  0  0  0  0
 88 89  1  0  0  0  0
 89 90  1  0  0  0  0
 90 91  2  0  0  0  0
 90 92  1  0  0  0  0
 92 93  2  0  0  0  0
 93 94  1  0  0  0  0
 94 95  1  0  0  0  0
 95 96  2  0  0  0  0
 93 97  1  0  0  0  0
 97 98  2  0  0  0  0
 98 99  1  0  0  0  0
 99100  2  0  0  0  0
 99101  1  0  0  0  0
101102  2  0  0  0  0
102103  1  0  0  0  0
103104  2  0  0  0  0
103105  1  0  0  0  0
105106  2  0  0  0  0
106107  1  0  0  0  0
107108  2  0  0  0  0
108109  1  0  0  0  0
109110  2  0  0  0  0
110111  1  0  0  0  0
111112  2  0  0  0  0
112113  1  0  0  0  0
113114  3  0  0  0  0
112115  1  0  0  0  0
115116  3  0  0  0  0
108117  1  0  0  0  0
117118  1  0  0  0  0
118119  1  0  0  0  0
119120  2  0  0  0  0
120121  1  0  0  0  0
121122  1  0  0  0  0
121123  1  0  0  0  0
 11  2  1  0  0  0  0
 23 17  1  0  0  0  0
 36 24  1  0  0  0  0
 82 40  1  0  0  0  0
 96 87  1  0  0  0  0
111102  1  0  0  0  0
123117  1  0  0  0  0
 10  5  1  0  0  0  0
 22 18  1  0  0  0  0
 33 25  1  0  0  0  0
 39 35  2  0  0  0  0
 49 42  1  0  0  0  0
 81 50  2  0  0  0  0
 94 89  2  0  0  0  0
110105  1  0  0  0  0
122118  1  0  0  0  0
 23  7  1  0  0  0  0
 80 52  2  0  0  0  0
100 92  1  0  0  0  0
123107  1  0  0  0  0
 78 53  2  0  0  0  0
 58 54  2  0  0  0  0
 77 59  2  0  0  0  0
 75 60  2  0  0  0  0
 74 62  2  0  0  0  0
 71 64  1  0  0  0  0
  1124  1  0  0  0  0
  6125  1  0  0  0  0
  9126  1  0  0  0  0
 17127  1  0  0  0  0
 18128  1  0  0  0  0
 19129  1  0  0  0  0
 20130  1  0  0  0  0
 21131  1  0  0  0  0
 22132  1  0  0  0  0
 22133  1  0  0  0  0
 23134  1  0  0  0  0
 29135  1  0  0  0  0
 29136  1  0  0  0  0
 30137  1  0  0  0  0
 30138  1  0  0  0  0
 30139  1  0  0  0  0
 43140  1  0  0  0  0
 44141  1  0  0  0  0
 45142  1  0  0  0  0
 47143  1  0  0  0  0
 47144  1  0  0  0  0
 48145  1  0  0  0  0
 48146  1  0  0  0  0
 48147  1  0  0  0  0
 49148  1  0  0  0  0
 65149  1  0  0  0  0
 66150  1  0  0  0  0
 67151  1  0  0  0  0
 69152  1  0  0  0  0
 69153  1  0  0  0  0
 70154  1  0  0  0  0
 70155  1  0  0  0  0
 70156  1  0  0  0  0
 71157  1  0  0  0  0
 83158  1  0  0  0  0
 83159  1  0  0  0  0
 84160  1  0  0  0  0
 84161  1  0  0  0  0
 84162  1  0  0  0  0
 85163  1  0  0  0  0
 85164  1  0  0  0  0
 86165  1  0  0  0  0
 86166  1  0  0  0  0
 86167  1  0  0  0  0
 88168  1  0  0  0  0
 95169  1  0  0  0  0
 96170  1  0  0  0  0
 97171  1  0  0  0  0
 98172  1  0  0  0  0
100173  1  0  0  0  0
101174  1  0  0  0  0
106175  1  0  0  0  0
109176  1  0  0  0  0
117177  1  0  0  0  0
118178  1  0  0  0  0
119179  1  0  0  0  0
120180  1  0  0  0  0
121181  1  0  0  0  0
122182  1  0  0  0  0
122183  1  0  0  0  0
123184  1  0  0  0  0
M  END
