
  xtb     02122210433D
 energy: -364.224078925919 gnorm: 0.000478242446 xtb: 6.4.1 (unknown)
219246  0     0  0            999 V2000
    7.2640   -3.0086    7.9058 C   0  0  0  0  0  0  0  0  0  0  0  0
    6.3239   -3.9654    8.2062 C   0  0  0  0  0  0  0  0  0  0  0  0
    5.0008   -4.0817    7.5902 C   0  0  0  0  0  0  0  0  0  0  0  0
    4.4950   -3.3357    6.7673 O   0  0  0  0  0  0  0  0  0  0  0  0
    4.3808   -5.2901    8.1605 C   0  0  0  0  0  0  0  0  0  0  0  0
    3.1289   -5.8165    7.8512 C   0  0  0  0  0  0  0  0  0  0  0  0
    2.8258   -6.9718    8.5311 C   0  0  0  0  0  0  0  0  0  0  0  0
    3.7023   -7.5572    9.4534 C   0  0  0  0  0  0  0  0  0  0  0  0
    4.9371   -7.0429    9.7729 C   0  0  0  0  0  0  0  0  0  0  0  0
    5.2677   -5.8689    9.0899 C   0  0  0  0  0  0  0  0  0  0  0  0
    6.4787   -5.0486    9.1525 C   0  0  0  0  0  0  0  0  0  0  0  0
    7.5510   -5.2861    9.9768 C   0  0  0  0  0  0  0  0  0  0  0  0
    8.7196   -4.5020   10.0581 C   0  0  0  0  0  0  0  0  0  0  0  0
    9.7033   -3.9232   10.1955 N   0  0  0  0  0  0  0  0  0  0  0  0
    7.6399   -6.3617   10.8837 C   0  0  0  0  0  0  0  0  0  0  0  0
    7.7868   -7.2085   11.6459 N   0  0  0  0  0  0  0  0  0  0  0  0
    2.7623   -8.7012    9.7426 C   0  0  0  0  0  0  0  0  0  0  0  0
    3.0996  -10.0536    9.0797 C   0  0  0  0  0  0  0  0  0  0  0  0
    1.7973  -10.8191    9.1370 C   0  0  0  0  0  0  0  0  0  0  0  0
    0.9645  -10.2641    8.2658 C   0  0  0  0  0  0  0  0  0  0  0  0
    1.6901   -9.1146    7.6045 C   0  0  0  0  0  0  0  0  0  0  0  0
    3.1178   -9.6759    7.5928 C   0  0  0  0  0  0  0  0  0  0  0  0
    1.7834   -8.0471    8.7154 C   0  0  0  0  0  0  0  0  0  0  0  0
    7.2264   -1.9659    6.9752 C   0  0  0  0  0  0  0  0  0  0  0  0
    5.8979   -1.5428    5.9100 S   0  0  0  0  0  0  0  0  0  0  0  0
    6.8404   -0.2795    5.2173 C   0  0  0  0  0  0  0  0  0  0  0  0
    6.5421    0.5353    4.1123 C   0  0  0  0  0  0  0  0  0  0  0  0
    7.5838    1.2036    3.4670 C   0  0  0  0  0  0  0  0  0  0  0  0
    8.8521    1.1772    3.9067 O   0  0  0  0  0  0  0  0  0  0  0  0
    9.0365    0.9266    5.3188 C   0  0  0  0  0  0  0  0  0  0  0  0
   10.4797    0.5041    5.5188 C   0  0  0  0  0  0  0  0  0  0  0  0
   11.1455   -0.1982    4.5251 C   0  0  0  0  0  0  0  0  0  0  0  0
   12.4415   -0.6342    4.7285 C   0  0  0  0  0  0  0  0  0  0  0  0
   13.0969   -0.3893    5.9278 C   0  0  0  0  0  0  0  0  0  0  0  0
   14.4811   -0.9172    6.1708 C   0  0  0  0  0  0  0  0  0  0  0  0
   14.4148   -2.3136    6.7933 C   0  0  0  0  0  0  0  0  0  0  0  0
   12.4213    0.3104    6.9194 C   0  0  0  0  0  0  0  0  0  0  0  0
   11.1284    0.7560    6.7204 C   0  0  0  0  0  0  0  0  0  0  0  0
    8.7401    2.2279    6.0584 C   0  0  0  0  0  0  0  0  0  0  0  0
    8.0255    2.2685    7.2465 C   0  0  0  0  0  0  0  0  0  0  0  0
    7.7926    3.4773    7.8773 C   0  0  0  0  0  0  0  0  0  0  0  0
    8.2620    4.6678    7.3392 C   0  0  0  0  0  0  0  0  0  0  0  0
    7.9665    5.9806    8.0054 C   0  0  0  0  0  0  0  0  0  0  0  0
    6.6475    6.5580    7.4878 C   0  0  0  0  0  0  0  0  0  0  0  0
    8.9738    4.6192    6.1470 C   0  0  0  0  0  0  0  0  0  0  0  0
    9.2151    3.4150    5.5154 C   0  0  0  0  0  0  0  0  0  0  0  0
    8.1174   -0.1777    5.7810 C   0  0  0  0  0  0  0  0  0  0  0  0
    8.3254   -1.1228    6.7616 C   0  0  0  0  0  0  0  0  0  0  0  0
    7.1886    1.8202    2.2753 C   0  0  0  0  0  0  0  0  0  0  0  0
    5.8419    1.6610    2.0140 C   0  0  0  0  0  0  0  0  0  0  0  0
    5.0540    0.7193    3.2563 S   0  0  0  0  0  0  0  0  0  0  0  0
    5.0806    2.0927    0.8939 C   0  0  0  0  0  0  0  0  0  0  0  0
    5.4370    2.8986   -0.1769 C   0  0  0  0  0  0  0  0  0  0  0  0
    6.6523    3.7057   -0.3029 C   0  0  0  0  0  0  0  0  0  0  0  0
    7.0579    4.5496    0.7289 C   0  0  0  0  0  0  0  0  0  0  0  0
    8.1701    5.3519    0.5629 C   0  0  0  0  0  0  0  0  0  0  0  0
    8.8795    5.3278   -0.6264 C   0  0  0  0  0  0  0  0  0  0  0  0
    8.4838    4.4988   -1.6677 C   0  0  0  0  0  0  0  0  0  0  0  0
    9.2035    4.5082   -2.9849 C   0  0  0  0  0  0  0  0  0  0  0  0
    8.4821    5.4274   -3.9728 C   0  0  0  0  0  0  0  0  0  0  0  0
    7.3669    3.6942   -1.4949 C   0  0  0  0  0  0  0  0  0  0  0  0
    4.4231    2.9213   -1.1557 C   0  0  0  0  0  0  0  0  0  0  0  0
    4.3013    3.7049   -2.7153 S   0  0  0  0  0  0  0  0  0  0  0  0
    2.7151    3.0347   -2.9038 C   0  0  0  0  0  0  0  0  0  0  0  0
    1.6578    3.0317   -3.8271 C   0  0  0  0  0  0  0  0  0  0  0  0
    1.5099    3.6998   -5.0616 C   0  0  0  0  0  0  0  0  0  0  0  0
    0.2676    3.5837   -5.7678 C   0  0  0  0  0  0  0  0  0  0  0  0
    0.2540    4.2896   -6.8879 N   0  0  0  0  0  0  0  0  0  0  0  0
    1.6842    5.0319   -7.0427 S   0  0  0  0  0  0  0  0  0  0  0  0
    2.3760    4.4835   -5.6851 N   0  0  0  0  0  0  0  0  0  0  0  0
   -0.7397    2.7456   -5.2434 C   0  0  0  0  0  0  0  0  0  0  0  0
   -2.0002    2.3969   -5.7535 C   0  0  0  0  0  0  0  0  0  0  0  0
   -3.0152    2.7420   -7.1134 S   0  0  0  0  0  0  0  0  0  0  0  0
   -4.2034    1.6233   -6.4853 C   0  0  0  0  0  0  0  0  0  0  0  0
   -5.4854    1.2416   -6.9257 C   0  0  0  0  0  0  0  0  0  0  0  0
   -6.1369    1.7478   -8.1307 C   0  0  0  0  0  0  0  0  0  0  0  0
   -5.4098    1.8771   -9.3104 C   0  0  0  0  0  0  0  0  0  0  0  0
   -6.0466    2.2763  -10.4705 C   0  0  0  0  0  0  0  0  0  0  0  0
   -7.4054    2.5370  -10.4699 C   0  0  0  0  0  0  0  0  0  0  0  0
   -8.1423    2.4342   -9.2958 C   0  0  0  0  0  0  0  0  0  0  0  0
   -9.6104    2.7508   -9.2748 C   0  0  0  0  0  0  0  0  0  0  0  0
   -9.8413    4.2109   -8.8815 C   0  0  0  0  0  0  0  0  0  0  0  0
   -7.4926    2.0632   -8.1300 C   0  0  0  0  0  0  0  0  0  0  0  0
   -6.0630    0.3396   -6.0473 C   0  0  0  0  0  0  0  0  0  0  0  0
   -5.0426   -0.0079   -4.6604 S   0  0  0  0  0  0  0  0  0  0  0  0
   -3.8148    1.0328   -5.2794 C   0  0  0  0  0  0  0  0  0  0  0  0
   -2.5497    1.4676   -4.8685 C   0  0  0  0  0  0  0  0  0  0  0  0
   -1.6912    1.2378   -3.8277 N   0  0  0  0  0  0  0  0  0  0  0  0
   -0.5647    2.0204   -4.0289 C   0  0  0  0  0  0  0  0  0  0  0  0
    0.6199    2.2283   -3.2719 C   0  0  0  0  0  0  0  0  0  0  0  0
    1.0440    1.7733   -2.0327 N   0  0  0  0  0  0  0  0  0  0  0  0
    2.3035    2.2616   -1.8170 C   0  0  0  0  0  0  0  0  0  0  0  0
    3.2833    2.1889   -0.8197 C   0  0  0  0  0  0  0  0  0  0  0  0
    3.4659    1.4178    0.7136 S   0  0  0  0  0  0  0  0  0  0  0  0
    0.2921    1.2584   -0.9103 C   0  0  0  0  0  0  0  0  0  0  0  0
   -0.7843    2.2436   -0.4607 C   0  0  0  0  0  0  0  0  0  0  0  0
   -1.8851    0.0604   -3.0102 C   0  0  0  0  0  0  0  0  0  0  0  0
   -0.8740   -1.0304   -3.3545 C   0  0  0  0  0  0  0  0  0  0  0  0
   -7.3439   -0.2803   -6.0847 C   0  0  0  0  0  0  0  0  0  0  0  0
   -8.2163   -0.4372   -4.5909 S   0  0  0  0  0  0  0  0  0  0  0  0
   -9.6052   -1.1169   -5.3990 C   0  0  0  0  0  0  0  0  0  0  0  0
   -9.3818   -1.1928   -6.7660 C   0  0  0  0  0  0  0  0  0  0  0  0
  -10.3979   -1.6436   -7.7312 C   0  0  0  0  0  0  0  0  0  0  0  0
  -11.5183   -2.0017   -7.4052 O   0  0  0  0  0  0  0  0  0  0  0  0
   -9.9491   -1.5682   -9.1164 C   0  0  0  0  0  0  0  0  0  0  0  0
  -10.7625   -1.8230  -10.1956 C   0  0  0  0  0  0  0  0  0  0  0  0
  -12.1984   -2.1996  -10.1734 C   0  0  0  0  0  0  0  0  0  0  0  0
  -12.7873   -2.4239  -11.5581 C   0  0  0  0  0  0  0  0  0  0  0  0
   -9.8879   -1.6497  -11.6760 S   0  0  0  0  0  0  0  0  0  0  0  0
   -8.4155   -1.2625  -10.8491 C   0  0  0  0  0  0  0  0  0  0  0  0
   -7.1673   -1.0326  -11.6191 C   0  0  0  0  0  0  0  0  0  0  0  0
   -6.3759   -2.3361  -11.7626 C   0  0  0  0  0  0  0  0  0  0  0  0
   -8.6034   -1.2539   -9.4914 C   0  0  0  0  0  0  0  0  0  0  0  0
   -7.5619   -0.9416   -8.5136 C   0  0  0  0  0  0  0  0  0  0  0  0
   -6.3770   -0.8617   -8.7877 O   0  0  0  0  0  0  0  0  0  0  0  0
   -8.0867   -0.7641   -7.1518 C   0  0  0  0  0  0  0  0  0  0  0  0
  -10.7969   -1.4193   -4.6915 C   0  0  0  0  0  0  0  0  0  0  0  0
  -10.9244   -1.7148   -3.3731 C   0  0  0  0  0  0  0  0  0  0  0  0
  -12.2279   -1.5266   -2.6742 C   0  0  0  0  0  0  0  0  0  0  0  0
  -13.3151   -1.3938   -3.1837 O   0  0  0  0  0  0  0  0  0  0  0  0
  -11.8849   -1.4615   -1.2386 C   0  0  0  0  0  0  0  0  0  0  0  0
  -12.7373   -1.1453   -0.1818 C   0  0  0  0  0  0  0  0  0  0  0  0
  -12.1242   -1.1304    1.0480 C   0  0  0  0  0  0  0  0  0  0  0  0
  -10.7589   -1.3991    1.2211 C   0  0  0  0  0  0  0  0  0  0  0  0
   -9.9059   -1.7154    0.1913 C   0  0  0  0  0  0  0  0  0  0  0  0
  -10.5134   -1.7464   -1.0671 C   0  0  0  0  0  0  0  0  0  0  0  0
   -9.9412   -2.0705   -2.3689 C   0  0  0  0  0  0  0  0  0  0  0  0
   -8.8064   -2.8065   -2.5843 C   0  0  0  0  0  0  0  0  0  0  0  0
   -8.4504   -3.3233   -3.8488 C   0  0  0  0  0  0  0  0  0  0  0  0
   -8.1509   -3.7962   -4.8508 N   0  0  0  0  0  0  0  0  0  0  0  0
   -7.9103   -3.1969   -1.5699 C   0  0  0  0  0  0  0  0  0  0  0  0
   -7.1354   -3.5222   -0.7876 N   0  0  0  0  0  0  0  0  0  0  0  0
  -10.8261   -1.1974    2.7141 C   0  0  0  0  0  0  0  0  0  0  0  0
  -10.8301   -2.4743    3.5811 C   0  0  0  0  0  0  0  0  0  0  0  0
  -11.3782   -2.0070    4.9101 C   0  0  0  0  0  0  0  0  0  0  0  0
  -12.6712   -1.7571    4.7478 C   0  0  0  0  0  0  0  0  0  0  0  0
  -13.0189   -2.0515    3.3063 C   0  0  0  0  0  0  0  0  0  0  0  0
  -12.0573   -3.2158    3.0355 C   0  0  0  0  0  0  0  0  0  0  0  0
  -12.3486   -0.9030    2.5225 C   0  0  0  0  0  0  0  0  0  0  0  0
    8.2046   -3.0627    8.4402 H   0  0  0  0  0  0  0  0  0  0  0  0
    2.4856   -5.3306    7.1344 H   0  0  0  0  0  0  0  0  0  0  0  0
    5.5959   -7.5061   10.4879 H   0  0  0  0  0  0  0  0  0  0  0  0
    2.4409   -8.8031   10.7774 H   0  0  0  0  0  0  0  0  0  0  0  0
    3.9782  -10.5508    9.4816 H   0  0  0  0  0  0  0  0  0  0  0  0
    1.6038  -11.6232    9.8225 H   0  0  0  0  0  0  0  0  0  0  0  0
   -0.0639  -10.5120    8.0782 H   0  0  0  0  0  0  0  0  0  0  0  0
    1.2841   -8.7573    6.6618 H   0  0  0  0  0  0  0  0  0  0  0  0
    3.2120  -10.5480    6.9478 H   0  0  0  0  0  0  0  0  0  0  0  0
    3.8799   -8.9447    7.3298 H   0  0  0  0  0  0  0  0  0  0  0  0
    0.8093   -7.7110    9.0661 H   0  0  0  0  0  0  0  0  0  0  0  0
   10.6464   -0.3963    3.5889 H   0  0  0  0  0  0  0  0  0  0  0  0
   12.9498   -1.1769    3.9442 H   0  0  0  0  0  0  0  0  0  0  0  0
   15.0300   -0.9683    5.2282 H   0  0  0  0  0  0  0  0  0  0  0  0
   15.0196   -0.2482    6.8449 H   0  0  0  0  0  0  0  0  0  0  0  0
   13.8947   -2.9997    6.1286 H   0  0  0  0  0  0  0  0  0  0  0  0
   13.8778   -2.2820    7.7384 H   0  0  0  0  0  0  0  0  0  0  0  0
   15.4160   -2.6973    6.9748 H   0  0  0  0  0  0  0  0  0  0  0  0
   12.9135    0.5105    7.8603 H   0  0  0  0  0  0  0  0  0  0  0  0
   10.6210    1.3015    7.5026 H   0  0  0  0  0  0  0  0  0  0  0  0
    7.6532    1.3564    7.6895 H   0  0  0  0  0  0  0  0  0  0  0  0
    7.2381    3.4930    8.8047 H   0  0  0  0  0  0  0  0  0  0  0  0
    8.7732    6.6880    7.8030 H   0  0  0  0  0  0  0  0  0  0  0  0
    7.8978    5.8400    9.0859 H   0  0  0  0  0  0  0  0  0  0  0  0
    6.4331    7.5089    7.9701 H   0  0  0  0  0  0  0  0  0  0  0  0
    5.8284    5.8721    7.6918 H   0  0  0  0  0  0  0  0  0  0  0  0
    6.6999    6.7173    6.4130 H   0  0  0  0  0  0  0  0  0  0  0  0
    9.3502    5.5344    5.7127 H   0  0  0  0  0  0  0  0  0  0  0  0
    9.7743    3.3843    4.5918 H   0  0  0  0  0  0  0  0  0  0  0  0
    9.2393   -1.2242    7.3206 H   0  0  0  0  0  0  0  0  0  0  0  0
    7.8688    2.3405    1.6289 H   0  0  0  0  0  0  0  0  0  0  0  0
    6.4927    4.5798    1.6487 H   0  0  0  0  0  0  0  0  0  0  0  0
    8.4827    6.0058    1.3638 H   0  0  0  0  0  0  0  0  0  0  0  0
    9.7462    5.9615   -0.7481 H   0  0  0  0  0  0  0  0  0  0  0  0
   10.2290    4.8563   -2.8471 H   0  0  0  0  0  0  0  0  0  0  0  0
    9.2368    3.4968   -3.3950 H   0  0  0  0  0  0  0  0  0  0  0  0
    8.9943    5.4310   -4.9320 H   0  0  0  0  0  0  0  0  0  0  0  0
    8.4539    6.4452   -3.5900 H   0  0  0  0  0  0  0  0  0  0  0  0
    7.4588    5.0917   -4.1248 H   0  0  0  0  0  0  0  0  0  0  0  0
    7.0537    3.0394   -2.2949 H   0  0  0  0  0  0  0  0  0  0  0  0
   -4.3605    1.6289   -9.3227 H   0  0  0  0  0  0  0  0  0  0  0  0
   -5.4811    2.3689  -11.3862 H   0  0  0  0  0  0  0  0  0  0  0  0
   -7.9014    2.8224  -11.3866 H   0  0  0  0  0  0  0  0  0  0  0  0
  -10.0400    2.5703  -10.2623 H   0  0  0  0  0  0  0  0  0  0  0  0
  -10.1179    2.0990   -8.5592 H   0  0  0  0  0  0  0  0  0  0  0  0
   -9.3575    4.8748   -9.5943 H   0  0  0  0  0  0  0  0  0  0  0  0
   -9.4255    4.4069   -7.8958 H   0  0  0  0  0  0  0  0  0  0  0  0
  -10.9049    4.4364   -8.8612 H   0  0  0  0  0  0  0  0  0  0  0  0
   -8.0526    2.0123   -7.2066 H   0  0  0  0  0  0  0  0  0  0  0  0
   -0.1255    0.2790   -1.1413 H   0  0  0  0  0  0  0  0  0  0  0  0
    1.0084    1.1152   -0.0976 H   0  0  0  0  0  0  0  0  0  0  0  0
   -1.3465    1.8255    0.3699 H   0  0  0  0  0  0  0  0  0  0  0  0
   -0.3223    3.1722   -0.1333 H   0  0  0  0  0  0  0  0  0  0  0  0
   -1.4709    2.4756   -1.2716 H   0  0  0  0  0  0  0  0  0  0  0  0
   -1.8613    0.3159   -1.9515 H   0  0  0  0  0  0  0  0  0  0  0  0
   -2.8921   -0.3045   -3.2261 H   0  0  0  0  0  0  0  0  0  0  0  0
   -1.0385   -1.9001   -2.7243 H   0  0  0  0  0  0  0  0  0  0  0  0
   -0.9923   -1.3292   -4.3935 H   0  0  0  0  0  0  0  0  0  0  0  0
    0.1468   -0.6809   -3.2169 H   0  0  0  0  0  0  0  0  0  0  0  0
  -12.7534   -1.4178   -9.6448 H   0  0  0  0  0  0  0  0  0  0  0  0
  -12.3041   -3.1016   -9.5619 H   0  0  0  0  0  0  0  0  0  0  0  0
  -13.8348   -2.7022  -11.4787 H   0  0  0  0  0  0  0  0  0  0  0  0
  -12.7146   -1.5188  -12.1577 H   0  0  0  0  0  0  0  0  0  0  0  0
  -12.2568   -3.2210  -12.0749 H   0  0  0  0  0  0  0  0  0  0  0  0
   -6.5538   -0.3064  -11.0826 H   0  0  0  0  0  0  0  0  0  0  0  0
   -7.4131   -0.6398  -12.6080 H   0  0  0  0  0  0  0  0  0  0  0  0
   -6.0838   -2.6964  -10.7801 H   0  0  0  0  0  0  0  0  0  0  0  0
   -6.9754   -3.0977  -12.2572 H   0  0  0  0  0  0  0  0  0  0  0  0
   -5.4784   -2.1606  -12.3491 H   0  0  0  0  0  0  0  0  0  0  0  0
  -11.7158   -1.3406   -5.2653 H   0  0  0  0  0  0  0  0  0  0  0  0
  -13.7811   -0.9356   -0.3551 H   0  0  0  0  0  0  0  0  0  0  0  0
   -8.8544   -1.9079    0.3286 H   0  0  0  0  0  0  0  0  0  0  0  0
  -10.1897   -0.4113    3.1162 H   0  0  0  0  0  0  0  0  0  0  0  0
   -9.8868   -3.0130    3.6015 H   0  0  0  0  0  0  0  0  0  0  0  0
  -10.7775   -1.8585    5.7882 H   0  0  0  0  0  0  0  0  0  0  0  0
  -13.3662   -1.3580    5.4631 H   0  0  0  0  0  0  0  0  0  0  0  0
  -14.0701   -2.2056    3.0783 H   0  0  0  0  0  0  0  0  0  0  0  0
  -11.9786   -3.4924    1.9859 H   0  0  0  0  0  0  0  0  0  0  0  0
  -12.3018   -4.0968    3.6265 H   0  0  0  0  0  0  0  0  0  0  0  0
  -12.7286    0.0789    2.7989 H   0  0  0  0  0  0  0  0  0  0  0  0
  1  2  2  0  0  0  0
  2  3  1  0  0  0  0
  3  4  2  0  0  0  0
  3  5  1  0  0  0  0
  5  6  2  0  0  0  0
  6  7  1  0  0  0  0
  7  8  2  0  0  0  0
  8  9  1  0  0  0  0
  9 10  2  0  0  0  0
 10 11  1  0  0  0  0
 11 12  2  0  0  0  0
 12 13  1  0  0  0  0
 13 14  3  0  0  0  0
 12 15  1  0  0  0  0
 15 16  3  0  0  0  0
  8 17  1  0  0  0  0
 17 18  1  0  0  0  0
 18 19  1  0  0  0  0
 19 20  2  0  0  0  0
 20 21  1  0  0  0  0
 21 22  1  0  0  0  0
 21 23  1  0  0  0  0
  1 24  1  0  0  0  0
 24 25  1  0  0  0  0
 25 26  1  0  0  0  0
 26 27  1  0  0  0  0
 27 28  2  0  0  0  0
 28 29  1  0  0  0  0
 29 30  1  0  0  0  0
 30 31  1  0  0  0  0
 31 32  2  0  0  0  0
 32 33  1  0  0  0  0
 33 34  2  0  0  0  0
 34 35  1  0  0  0  0
 35 36  1  0  0  0  0
 34 37  1  0  0  0  0
 37 38  2  0  0  0  0
 30 39  1  0  0  0  0
 39 40  2  0  0  0  0
 40 41  1  0  0  0  0
 41 42  2  0  0  0  0
 42 43  1  0  0  0  0
 43 44  1  0  0  0  0
 42 45  1  0  0  0  0
 45 46  2  0  0  0  0
 30 47  1  0  0  0  0
 47 48  1  0  0  0  0
 28 49  1  0  0  0  0
 49 50  2  0  0  0  0
 50 51  1  0  0  0  0
 50 52  1  0  0  0  0
 52 53  2  0  0  0  0
 53 54  1  0  0  0  0
 54 55  2  0  0  0  0
 55 56  1  0  0  0  0
 56 57  2  0  0  0  0
 57 58  1  0  0  0  0
 58 59  1  0  0  0  0
 59 60  1  0  0  0  0
 58 61  2  0  0  0  0
 53 62  1  0  0  0  0
 62 63  1  0  0  0  0
 63 64  1  0  0  0  0
 64 65  1  0  0  0  0
 65 66  1  0  0  0  0
 66 67  1  0  0  0  0
 67 68  2  0  0  0  0
 68 69  1  0  0  0  0
 69 70  1  0  0  0  0
 67 71  1  0  0  0  0
 71 72  1  0  0  0  0
 72 73  1  0  0  0  0
 73 74  1  0  0  0  0
 74 75  1  0  0  0  0
 75 76  1  0  0  0  0
 76 77  2  0  0  0  0
 77 78  1  0  0  0  0
 78 79  2  0  0  0  0
 79 80  1  0  0  0  0
 80 81  1  0  0  0  0
 81 82  1  0  0  0  0
 80 83  2  0  0  0  0
 75 84  2  0  0  0  0
 84 85  1  0  0  0  0
 85 86  1  0  0  0  0
 86 87  1  0  0  0  0
 87 88  1  0  0  0  0
 88 89  1  0  0  0  0
 89 90  1  0  0  0  0
 90 91  1  0  0  0  0
 91 92  1  0  0  0  0
 92 93  1  0  0  0  0
 93 94  1  0  0  0  0
 91 95  1  0  0  0  0
 95 96  1  0  0  0  0
 88 97  1  0  0  0  0
 97 98  1  0  0  0  0
 84 99  1  0  0  0  0
 99100  1  0  0  0  0
100101  1  0  0  0  0
101102  2  0  0  0  0
102103  1  0  0  0  0
103104  2  0  0  0  0
103105  1  0  0  0  0
105106  2  0  0  0  0
106107  1  0  0  0  0
107108  1  0  0  0  0
106109  1  0  0  0  0
109110  1  0  0  0  0
110111  1  0  0  0  0
111112  1  0  0  0  0
110113  2  0  0  0  0
113114  1  0  0  0  0
114115  2  0  0  0  0
114116  1  0  0  0  0
101117  1  0  0  0  0
117118  2  0  0  0  0
118119  1  0  0  0  0
119120  2  0  0  0  0
119121  1  0  0  0  0
121122  2  0  0  0  0
122123  1  0  0  0  0
123124  2  0  0  0  0
124125  1  0  0  0  0
125126  2  0  0  0  0
126127  1  0  0  0  0
127128  2  0  0  0  0
128129  1  0  0  0  0
129130  3  0  0  0  0
128131  1  0  0  0  0
131132  3  0  0  0  0
124133  1  0  0  0  0
133134  1  0  0  0  0
134135  1  0  0  0  0
135136  2  0  0  0  0
136137  1  0  0  0  0
137138  1  0  0  0  0
137139  1  0  0  0  0
 11  2  1  0  0  0  0
 23 17  1  0  0  0  0
 48 24  2  0  0  0  0
 94 52  1  0  0  0  0
116 99  2  0  0  0  0
127118  1  0  0  0  0
139133  1  0  0  0  0
 10  5  1  0  0  0  0
 22 18  1  0  0  0  0
 47 26  2  0  0  0  0
 61 54  1  0  0  0  0
 93 62  2  0  0  0  0
116102  1  0  0  0  0
126121  1  0  0  0  0
138134  1  0  0  0  0
 23  7  1  0  0  0  0
 51 27  1  0  0  0  0
 92 64  2  0  0  0  0
113105  1  0  0  0  0
139123  1  0  0  0  0
 38 31  1  0  0  0  0
 46 39  1  0  0  0  0
 90 65  2  0  0  0  0
 70 66  2  0  0  0  0
 89 71  2  0  0  0  0
 87 72  2  0  0  0  0
 86 74  2  0  0  0  0
 83 76  1  0  0  0  0
  1140  1  0  0  0  0
  6141  1  0  0  0  0
  9142  1  0  0  0  0
 17143  1  0  0  0  0
 18144  1  0  0  0  0
 19145  1  0  0  0  0
 20146  1  0  0  0  0
 21147  1  0  0  0  0
 22148  1  0  0  0  0
 22149  1  0  0  0  0
 23150  1  0  0  0  0
 32151  1  0  0  0  0
 33152  1  0  0  0  0
 35153  1  0  0  0  0
 35154  1  0  0  0  0
 36155  1  0  0  0  0
 36156  1  0  0  0  0
 36157  1  0  0  0  0
 37158  1  0  0  0  0
 38159  1  0  0  0  0
 40160  1  0  0  0  0
 41161  1  0  0  0  0
 43162  1  0  0  0  0
 43163  1  0  0  0  0
 44164  1  0  0  0  0
 44165  1  0  0  0  0
 44166  1  0  0  0  0
 45167  1  0  0  0  0
 46168  1  0  0  0  0
 48169  1  0  0  0  0
 49170  1  0  0  0  0
 55171  1  0  0  0  0
 56172  1  0  0  0  0
 57173  1  0  0  0  0
 59174  1  0  0  0  0
 59175  1  0  0  0  0
 60176  1  0  0  0  0
 60177  1  0  0  0  0
 60178  1  0  0  0  0
 61179  1  0  0  0  0
 77180  1  0  0  0  0
 78181  1  0  0  0  0
 79182  1  0  0  0  0
 81183  1  0  0  0  0
 81184  1  0  0  0  0
 82185  1  0  0  0  0
 82186  1  0  0  0  0
 82187  1  0  0  0  0
 83188  1  0  0  0  0
 95189  1  0  0  0  0
 95190  1  0  0  0  0
 96191  1  0  0  0  0
 96192  1  0  0  0  0
 96193  1  0  0  0  0
 97194  1  0  0  0  0
 97195  1  0  0  0  0
 98196  1  0  0  0  0
 98197  1  0  0  0  0
 98198  1  0  0  0  0
107199  1  0  0  0  0
107200  1  0  0  0  0
108201  1  0  0  0  0
108202  1  0  0  0  0
108203  1  0  0  0  0
111204  1  0  0  0  0
111205  1  0  0  0  0
112206  1  0  0  0  0
112207  1  0  0  0  0
112208  1  0  0  0  0
117209  1  0  0  0  0
122210  1  0  0  0  0
125211  1  0  0  0  0
133212  1  0  0  0  0
134213  1  0  0  0  0
135214  1  0  0  0  0
136215  1  0  0  0  0
137216  1  0  0  0  0
138217  1  0  0  0  0
138218  1  0  0  0  0
139219  1  0  0  0  0
M  END
