243

C         -6.08000       11.94170        1.02600
C         -5.74130       12.68030        2.12370
C         -5.16710       12.18200        3.38510
O         -5.09900       11.02940        3.77170
C         -4.65520       13.36580        4.09410
C         -3.95350       13.37860        5.29740
C         -3.57520       14.63330        5.70940
C         -3.86600       15.79130        4.97460
C         -4.56160       15.79300        3.78870
C         -4.96510       14.52680        3.35590
C         -5.72340       14.13210        2.17160
C         -6.38010       14.97660        1.31730
C         -7.24720       14.57150        0.27750
N         -8.01030       14.34130       -0.54880
C         -6.34280       16.38350        1.41240
N         -6.34900       17.53140        1.43350
C         -3.18010       16.69140        5.97170
C         -4.07210       17.50650        6.94020
C         -5.35850       16.73270        7.08950
C         -5.09230       15.63610        7.78630
C         -3.62120       15.64870        8.12140
C         -3.39130       17.16060        8.27430
C         -2.86300       15.40220        6.79330
C         -6.12470       10.54300        0.86580
S         -5.98670        9.39170        2.16420
C         -6.27350        8.04890        1.09390
C         -6.47420        8.49080       -0.22500
C         -6.80840        7.62890       -1.34940
O         -6.78140        6.40240       -1.29340
C         -7.20650        8.34080       -2.56030
C         -7.74490        7.75610       -3.67900
C         -8.01430        6.31950       -3.94490
C         -6.75220        5.61930       -4.45720
S         -8.07670        8.94160       -4.89730
C         -7.47410       10.23200       -3.91410
C         -7.44720       11.63640       -4.39180
C         -8.24590       11.85630       -5.66810
C         -7.05830        9.75630       -2.69450
C         -6.51350       10.59520       -1.63510
O         -6.19410       11.76120       -1.81320
C         -6.38170        9.89570       -0.34620
C         -6.17020        6.74390        1.63260
C         -6.07740        6.45220        2.99670
C         -6.36180        7.38970        4.09040
C         -7.64900        7.89090        4.26740
C         -7.90520        8.76550        5.30450
C         -6.88800        9.14660        6.16270
C         -5.60340        8.64620        6.00540
C         -4.50600        9.01900        6.95870
C         -4.37320        7.96350        8.05800
C         -5.35420        7.75430        4.97320
C         -5.69530        5.13010        3.22100
S         -5.37720        4.22580        4.68700
C         -4.95230        2.86050        3.70910
C         -4.48920        1.54540        3.86070
C         -4.27620        0.76680        5.01900
C         -3.83610       -0.58990        4.87040
N         -3.71320       -1.21380        6.03130
S         -4.11590       -0.17990        7.21210
N         -4.45950        1.10330        6.28590
C         -3.52740       -1.06730        3.57810
C         -2.91020       -2.25880        3.16840
S         -2.27860       -3.71520        3.86070
C         -1.66130       -4.16330        2.28800
C         -0.89330       -5.25830        1.84490
C         -0.51290       -6.37080        2.71820
C         -0.80230       -7.68480        2.35970
C         -0.49110       -8.71610        3.22430
C          0.10290       -8.44740        4.44510
C          0.40580       -7.14330        4.81370
C          1.00990       -6.83900        6.15400
C         -0.08640       -6.47580        7.15760
C          0.08710       -6.11140        3.94420
C         -0.57940       -5.14160        0.50450
S         -1.28770       -3.70420       -0.22800
C         -1.96210       -3.23430        1.29090
C         -2.68610       -2.14650        1.79450
N         -3.18110       -0.95820        1.33230
C         -3.70020       -0.26470        2.41400
C         -4.29030        1.02050        2.54990
N         -4.67780        1.98480        1.63420
C         -5.07040        3.09340        2.33590
C         -5.50030        4.39310        2.04650
S         -5.86940        5.32120        0.63790
C         -5.07140        1.85520        0.24830
C         -6.15140        0.79060        0.07260
C         -2.82250       -0.50650        0.00760
C         -1.77550        0.60380        0.05380
C          0.34290       -5.88160       -0.28550
C          0.59620       -5.66620       -1.61190
C          1.69300       -6.39770       -2.11390
C          2.21990       -6.37500       -3.42100
C          1.67980       -5.51790       -4.45650
C          1.47810       -5.80890       -5.77860
C          0.93950       -4.73220       -6.50420
C          0.73880       -3.60180       -5.76400
Si         0.05670       -1.92300       -6.28370
C         -1.09070       -1.20530       -4.92050
C         -1.92140       -2.23260       -4.15600
C          1.54910       -0.74630       -6.51280
C          1.15040        0.66610       -6.92510
C         -0.87140       -2.14240       -7.94180
C         -2.12240       -3.01030       -7.84930
S          1.23290       -3.87040       -4.12680
C          3.32170       -7.18850       -3.65400
C          3.91130       -8.00940       -2.65500
C          3.34530       -8.07130       -1.35740
C          3.86800       -8.96580       -0.35220
C          4.36100      -10.23520       -0.52320
C          4.75730      -10.83800        0.68000
C          4.58510      -10.04740        1.78150
Si         4.90540      -10.39500        3.60590
C          5.84530      -12.05370        3.73940
C          6.15990      -12.44090        5.18030
C          5.91140       -8.93240        4.31650
C          7.27080       -8.76280        3.64540
C          3.19650      -10.46620        4.46420
C          2.27710      -11.52340        3.86080
S          3.90020       -8.52570        1.33030
C          2.26760       -7.22870       -1.11920
S          1.43360       -7.06230        0.40660
C          5.10240       -8.61260       -3.09840
C          5.43040       -8.31060       -4.39850
S          4.21760       -7.26400       -5.13940
C          6.52470       -8.67400       -5.21330
C          7.70470       -9.29480       -4.91430
C          8.24840       -9.67980       -3.59030
O          7.67320       -9.77320       -2.52470
C          9.68310       -9.94470       -3.80870
C         10.63110      -10.23890       -2.83030
C         11.90290      -10.41340       -3.31950
C         12.21030      -10.30740       -4.68290
C         11.28360      -10.02960       -5.65890
C          9.98180       -9.84610       -5.18100
C          8.74930       -9.53700       -5.89880
C          8.60200       -9.55260       -7.26090
C          7.38990       -9.37060       -7.96150
N          6.45140       -9.26510       -8.61530
C          9.64830       -9.81160       -8.17110
N         10.44840      -10.01020       -8.97050
C         13.67650      -10.57910       -4.45560
C         14.61760       -9.35640       -4.49790
C         15.86180       -9.83270       -3.78380
C         15.57170       -9.93610       -2.49320
C         14.12660       -9.53070       -2.31310
C         14.01460       -8.46130       -3.40740
C         13.33380      -10.69960       -2.93600
H         -6.31270       12.48490        0.11670
H         -3.74420       12.46080        5.82460
H         -4.77200       16.69080        3.23160
H         -2.34200       17.27160        5.59080
H         -4.17110       18.55820        6.68560
H         -6.28820       17.02480        6.63750
H         -5.75600       14.82810        8.03280
H         -3.31050       15.00930        8.94370
H         -3.91130       17.58100        9.13370
H         -2.33860       17.43810        8.30920
H         -1.81810       15.14380        6.95480
H         -8.32520        5.83950       -3.01490
H         -8.81240        6.22800       -4.68430
H         -6.97210        4.57970       -4.68400
H         -6.38430        6.10490       -5.35860
H         -5.97930        5.65310       -3.69400
H         -6.40200       11.92460       -4.54770
H         -7.81490       12.28130       -3.58740
H         -8.20060       12.90160       -5.96090
H         -7.84650       11.25210       -6.48080
H         -9.28870       11.58490       -5.51840
H         -8.43550        7.59630        3.58770
H         -8.90290        9.15640        5.44260
H         -7.09500        9.84380        6.96210
H         -4.72390        9.98850        7.41120
H         -3.56230        9.09780        6.41560
H         -3.57050        8.22480        8.74400
H         -4.15770        6.98990        7.62390
H         -5.30050        7.88670        8.62150
H         -4.35890        7.35860        4.83210
H         -1.28650       -7.88840        1.41580
H         -0.72010       -9.73480        2.94850
H          0.32800       -9.25700        5.12360
H          1.56350       -7.70670        6.51820
H          1.70580       -6.00250        6.06350
H          0.34680       -6.24540        8.12810
H         -0.64540       -5.60980        6.81070
H         -0.78060       -7.30500        7.27470
H          0.31570       -5.09140        4.21780
H         -4.20610        1.65830       -0.38500
H         -5.47220        2.82700       -0.05030
H         -6.42510        0.71030       -0.97590
H         -5.81100       -0.18070        0.42450
H         -7.03700        1.06480        0.64120
H         -3.71110       -0.19980       -0.54440
H         -2.40300       -1.37160       -0.51230
H         -0.86140        0.23080        0.50940
H         -2.12520        1.45140        0.63840
H         -1.54700        0.93940       -0.95420
H          0.00710       -4.98800       -2.20140
H          1.67610       -6.77580       -6.20570
H          0.70170       -4.79070       -7.55100
H         -1.76600       -0.48090       -5.37990
H         -0.48600       -0.64960       -4.20170
H         -2.51830       -2.83640       -4.83370
H         -2.59370       -1.73870       -3.45570
H         -1.27680       -2.89790       -3.58840
H          2.11710       -0.69730       -5.58260
H          2.22590       -1.15620       -7.26340
H          0.62740        0.65320       -7.87790
H          0.49370        1.11260       -6.18250
H          2.02800        1.30160       -7.02940
H         -0.19280       -2.57480       -8.67820
H         -1.15390       -1.16250       -8.32770
H         -2.86440       -2.54310       -7.20690
H         -1.88270       -3.98840       -7.43940
H         -2.56860       -3.15140       -8.83240
H          4.39400      -10.73320       -1.47550
H          5.16270      -11.83210        0.73690
H          5.25720      -12.84980        3.28140
H          6.77700      -11.99720        3.17550
H          6.69790      -13.38660        5.22010
H          5.24450      -12.54740        5.75700
H          6.77400      -11.68100        5.65680
H          5.33750       -8.01340        4.18660
H          6.05610       -9.05690        5.39020
H          7.79720       -7.89920        4.04830
H          7.15100       -8.61980        2.57420
H          7.89050       -9.64200        3.80280
H          2.71550       -9.49060        4.37440
H          3.31410      -10.66080        5.53090
H          2.71090      -12.51520        3.96060
H          2.11830      -11.32630        2.80330
H          1.30760      -11.52690        4.35570
H          5.73350       -9.21690       -2.47490
H          6.40700       -8.34810       -6.24080
H         10.34940      -10.31130       -1.79140
H         11.53610       -9.95100       -6.70300
H         14.08420      -11.44760       -4.96920
H         14.75500       -8.92190       -5.48420
H         16.77790      -10.09040       -4.28220
H         16.19720      -10.29730       -1.69800
H         13.81730       -9.25440       -1.30860
H         12.99490       -8.13910       -3.61040
H         14.63610       -7.59210       -3.19840
H         13.51190      -11.64970       -2.43580
