219

C         -5.40280       -5.28400       -3.30370
C         -4.47470       -4.65430       -4.06440
C         -4.14110       -3.20870       -3.93680
O         -4.80560       -2.34100       -3.41200
C         -2.89770       -3.02150       -4.70050
C         -2.12010       -1.86820       -4.75290
C         -0.95440       -2.01260       -5.46300
C         -0.59930       -3.20770       -6.10420
C         -1.38240       -4.33830       -6.10160
C         -2.56750       -4.22020       -5.36500
C         -3.60980       -5.20810       -5.09360
C         -3.72850       -6.43540       -5.68740
C         -4.75930       -7.35990       -5.41680
N         -5.56450       -8.16110       -5.24850
C         -2.85470       -6.92740       -6.67910
N         -2.18510       -7.38200       -7.49380
C          0.72060       -2.64740       -6.58110
C          1.97590       -3.08780       -5.79830
C          3.01140       -2.03960       -6.14060
C          2.66930       -0.91490       -5.52400
C          1.39310       -1.18330       -4.76080
C          1.62230       -2.64900       -4.37120
C          0.32080       -1.31790       -5.86410
C         -5.86550       -4.72210       -2.06170
C         -4.95910       -4.04230       -1.22370
N         -3.64970       -3.79030       -1.34350
N         -3.33800       -3.17910       -0.23270
C         -1.99050       -2.76260        0.02910
C         -1.10560       -3.96840        0.32420
N         -4.29990       -2.99990        0.62920
C         -5.37200       -3.54920        0.03620
C         -6.70430       -3.66920        0.48530
C         -7.59870       -4.30970       -0.35170
C         -7.16620       -4.89690       -1.58950
O         -7.96830       -5.56960       -2.44690
C         -9.16890       -6.19050       -2.03920
O         -8.93800       -4.43170       -0.07810
C         -9.56980       -3.43740        0.69680
C         -6.92850       -3.04630        1.79510
C         -6.73630       -3.60370        3.03680
C         -6.60420       -5.04250        3.27490
C         -5.68230       -5.51330        4.20750
C         -5.53840       -6.87100        4.41670
C         -6.30150       -7.77640        3.70000
C         -7.22250       -7.32790        2.76310
C         -8.08370       -8.29250        1.99810
C         -9.45550       -8.43460        2.65930
C         -7.36960       -5.96320        2.56620
C         -6.58780       -2.59630        4.02850
S         -6.15400       -2.62060        5.72660
C         -5.93780       -0.89780        5.69260
C         -5.30770        0.11910        6.44500
C         -4.70730        0.17010        7.72410
C         -3.89280        1.30880        8.07920
N         -3.40150        1.21140        9.30260
S         -3.91120       -0.17900        9.95820
N         -4.77340       -0.72050        8.69930
C         -3.60050        2.28060        7.09180
C         -2.51400        3.16610        6.93480
S         -1.03950        3.60560        7.74820
C         -0.41140        4.25230        6.24170
C          0.89920        4.54820        5.80160
C          2.06140        4.57710        6.69350
C          2.02580        5.36980        7.83620
C          3.12990        5.42920        8.66510
C          4.27140        4.70870        8.36040
C          4.31500        3.89440        7.23580
C          5.53420        3.07560        6.92280
C          5.44270        1.69880        7.58320
C          3.19590        3.82160        6.42080
C          0.94270        4.71550        4.42980
S         -0.65890        4.62550        3.69680
C         -1.35470        4.21250        5.21620
C         -2.55140        3.60830        5.60950
N         -3.64790        3.10700        4.96180
C         -4.27880        2.25060        5.84390
C         -5.24610        1.25140        5.59320
N         -5.93430        0.98650        4.42030
C         -6.28690       -0.33890        4.46240
C         -6.66330       -1.30400        3.52150
S         -6.94590       -1.29370        1.81960
C         -6.69190        1.93510        3.63220
C         -8.19590        1.72620        3.80400
C         -3.67930        3.11890        3.51600
C         -3.07530        1.84830        2.92260
C          2.01620        4.70160        3.48680
C          1.87530        4.13260        2.25160
C          3.07240        4.03110        1.51540
C          3.26160        3.36070        0.29770
C          2.16730        2.59990       -0.31820
C          1.85440        2.71730       -1.67050
C          0.80070        2.00930       -2.21230
C          0.02550        1.16130       -1.42850
S         -1.32280        0.28130       -2.17150
C         -2.69950        0.69090       -1.02030
C         -4.02750        0.43490       -1.70370
C          0.37500        1.01690       -0.09100
F         -0.31550        0.16800        0.70630
C          1.42110        1.72040        0.46480
C          4.53870        3.39980       -0.24060
C          5.63150        4.01340        0.43080
C          5.45200        4.61600        1.69880
C          6.58180        5.11590        2.48610
C          6.53570        6.35880        3.11060
C          7.58240        6.80610        3.89280
C          8.71400        6.02160        4.08640
S         10.09960        6.44600        5.08460
C          9.91510        8.23980        5.37050
C         10.16940        9.05110        4.11430
C          8.74120        4.77120        3.46380
C          7.71020        4.31760        2.67440
F          9.81110        3.97230        3.64680
C          4.16070        4.63760        2.19450
S          3.65560        5.26150        3.75620
C          6.81020        3.90470       -0.32650
C          6.66210        3.20310       -1.50930
S          5.01430        2.65210       -1.73480
C          7.73440        2.99530       -2.40410
C          7.78950        2.26970       -3.55980
C          6.71270        1.43620       -4.12640
O          5.54970        1.37460       -3.77430
C          7.31900        0.67550       -5.22910
C          6.69660       -0.29920       -6.00730
C          7.51250       -0.84790       -6.96640
C          8.84940       -0.46100       -7.13550
C          9.47520        0.49490       -6.37090
C          8.66140        1.07300       -5.39080
C          8.96360        2.10550       -4.40220
C         10.12940        2.82200       -4.33420
C         11.22840        2.64070       -5.20060
N         12.15840        2.55110       -5.86770
C         10.39940        3.86900       -3.42720
N         10.69450        4.74190       -2.74110
C          9.06530       -1.42060       -8.27920
C          9.06910       -0.81180       -9.69750
C          8.81490       -1.99720      -10.60060
C          7.54920       -2.36210      -10.44110
C          6.92660       -1.42960       -9.42710
C          7.69110       -0.13960       -9.75100
C          7.57490       -1.85070       -8.09100
H         -5.77910       -6.26440       -3.56280
H         -2.42630       -0.96760       -4.24730
H         -1.10470       -5.24750       -6.60910
H          0.87190       -2.63490       -7.65880
H          2.26440       -4.12500       -5.94760
H          3.82820       -2.20890       -6.81900
H          3.14530        0.04750       -5.56780
H          1.14050       -0.48930       -3.96410
H          2.45990       -2.76360       -3.68510
H          0.74320       -3.14020       -3.95880
H          0.20850       -0.41550       -6.46160
H         -2.01970       -2.08720        0.88520
H         -1.61940       -2.23750       -0.85520
H         -1.46250       -4.49500        1.20620
H         -1.11490       -4.65150       -0.52160
H         -0.08620       -3.63810        0.50100
H         -9.99340       -5.47730       -1.98330
H         -9.38040       -6.92840       -2.81370
H         -9.06010       -6.69280       -1.07680
H        -10.63830       -3.59220        0.54710
H         -9.29470       -2.43560        0.35680
H         -9.33880       -3.53570        1.76120
H         -5.06640       -4.81720        4.75470
H         -4.82100       -7.22630        5.14180
H         -6.18000       -8.83710        3.86650
H         -7.59890       -9.26970        1.95770
H         -8.21330       -7.93560        0.97340
H         -9.34650       -8.79630        3.67930
H         -9.96320       -7.47300        2.69040
H        -10.07450       -9.13680        2.10560
H         -8.10550       -5.62220        1.85640
H          1.13970        5.94480        8.06080
H          3.10240        6.04760        9.55010
H          5.13700        4.77380        9.00380
H          5.62830        2.95440        5.84130
H          6.42650        3.59030        7.28420
H          5.36310        1.80200        8.66290
H          4.56500        1.16460        7.22610
H          6.32680        1.10840        7.35440
H          3.20240        3.15850        5.56750
H         -6.44340        2.93940        3.97820
H         -6.42860        1.82300        2.57430
H         -8.73380        2.50250        3.26640
H         -8.46680        1.77710        4.85630
H         -8.49960        0.76030        3.41020
H         -4.69310        3.26230        3.15090
H         -3.09080        3.98410        3.19980
H         -2.04750        1.72790        3.25630
H         -3.08220        1.91200        1.83830
H         -3.64160        0.97090        3.22340
H          0.93510        3.75600        1.89260
H          2.42250        3.38730       -2.29560
H          0.55250        2.11510       -3.25700
H         -2.58130        1.74510       -0.76510
H         -2.59530        0.07930       -0.12570
H         -4.83930        0.63460       -1.00690
H         -4.11150       -0.59730       -2.03710
H         -4.14480        1.08180       -2.57020
H          1.66750        1.55230        1.50160
H          5.67630        6.99580        2.96910
H          7.50190        7.77330        4.36090
H         10.66870        8.45350        6.12850
H          8.93130        8.42710        5.79870
H          9.45140        8.80360        3.33530
H         10.08870       10.11320        4.33720
H         11.16840        8.85030        3.73460
H          7.77660        3.33390        2.23640
H          7.75030        4.33780       -0.03240
H          8.64910        3.47950       -2.08290
H          5.66790       -0.57380       -5.83330
H         10.50730        0.77080       -6.50720
H          9.84560       -2.16490       -8.13320
H          9.93590       -0.19820       -9.92670
H          9.57150       -2.46690      -11.20100
H          7.03740       -3.19760      -10.88150
H          5.84110       -1.37770       -9.41120
H          7.55500        0.65360       -9.01800
H          7.45670        0.23890      -10.74450
H          7.36090       -2.88290       -7.82000
