
  xtb     02132208153D
 energy: -307.859686420210 gnorm: 0.002249491691 xtb: 6.4.1 (unknown)
188211  0     0  0            999 V2000
   -3.8839    2.2211   -9.8513 C   0  0  0  0  0  0  0  0  0  0  0  0
   -3.0186    3.2424  -10.1126 C   0  0  0  0  0  0  0  0  0  0  0  0
   -1.9727    3.7709   -9.2185 C   0  0  0  0  0  0  0  0  0  0  0  0
   -1.8648    3.5946   -8.0190 O   0  0  0  0  0  0  0  0  0  0  0  0
   -1.0663    4.5535  -10.0760 C   0  0  0  0  0  0  0  0  0  0  0  0
    0.1308    5.1613   -9.7004 C   0  0  0  0  0  0  0  0  0  0  0  0
    0.7778    5.8050  -10.7276 C   0  0  0  0  0  0  0  0  0  0  0  0
    0.2774    5.8368  -12.0369 C   0  0  0  0  0  0  0  0  0  0  0  0
   -0.9027    5.2466  -12.4211 C   0  0  0  0  0  0  0  0  0  0  0  0
   -1.5821    4.5933  -11.3886 C   0  0  0  0  0  0  0  0  0  0  0  0
   -2.8471    3.8663  -11.4135 C   0  0  0  0  0  0  0  0  0  0  0  0
   -3.7483    3.8492  -12.4430 C   0  0  0  0  0  0  0  0  0  0  0  0
   -5.0339    3.2634  -12.3886 C   0  0  0  0  0  0  0  0  0  0  0  0
   -6.1102    2.8634  -12.4111 N   0  0  0  0  0  0  0  0  0  0  0  0
   -3.5471    4.4891  -13.6842 C   0  0  0  0  0  0  0  0  0  0  0  0
   -3.4463    4.9865  -14.7139 N   0  0  0  0  0  0  0  0  0  0  0  0
    1.4435    6.6438  -12.5492 C   0  0  0  0  0  0  0  0  0  0  0  0
    1.1870    8.1466  -12.7889 C   0  0  0  0  0  0  0  0  0  0  0  0
    2.5726    8.7504  -12.8122 C   0  0  0  0  0  0  0  0  0  0  0  0
    3.0442    8.7259  -11.5720 C   0  0  0  0  0  0  0  0  0  0  0  0
    1.9850    8.1053  -10.6895 C   0  0  0  0  0  0  0  0  0  0  0  0
    0.7218    8.6069  -11.4011 C   0  0  0  0  0  0  0  0  0  0  0  0
    1.9990    6.6139  -11.0890 C   0  0  0  0  0  0  0  0  0  0  0  0
   -4.1134    1.5179   -8.6514 C   0  0  0  0  0  0  0  0  0  0  0  0
   -3.5533    2.0156   -7.0811 S   0  0  0  0  0  0  0  0  0  0  0  0
   -4.3903    0.7066   -6.2933 C   0  0  0  0  0  0  0  0  0  0  0  0
   -5.0641   -0.0948   -7.2275 C   0  0  0  0  0  0  0  0  0  0  0  0
   -5.8970   -1.2416   -6.8930 C   0  0  0  0  0  0  0  0  0  0  0  0
   -6.0526   -1.6452   -5.7443 O   0  0  0  0  0  0  0  0  0  0  0  0
   -6.5744   -1.8583   -8.0302 C   0  0  0  0  0  0  0  0  0  0  0  0
   -7.4490   -2.9134   -7.9414 C   0  0  0  0  0  0  0  0  0  0  0  0
   -7.9268   -3.6386   -6.7357 C   0  0  0  0  0  0  0  0  0  0  0  0
   -9.1134   -2.9074   -6.1002 C   0  0  0  0  0  0  0  0  0  0  0  0
   -8.0642   -3.3359   -9.5036 S   0  0  0  0  0  0  0  0  0  0  0  0
   -7.1237   -2.1149  -10.2898 C   0  0  0  0  0  0  0  0  0  0  0  0
   -7.1747   -1.9623  -11.7656 C   0  0  0  0  0  0  0  0  0  0  0  0
   -6.0786   -2.8000  -12.4317 C   0  0  0  0  0  0  0  0  0  0  0  0
   -6.3736   -1.4161   -9.3768 C   0  0  0  0  0  0  0  0  0  0  0  0
   -5.4374   -0.3511   -9.7226 C   0  0  0  0  0  0  0  0  0  0  0  0
   -5.1080   -0.1063  -10.8729 O   0  0  0  0  0  0  0  0  0  0  0  0
   -4.8936    0.3623   -8.5544 C   0  0  0  0  0  0  0  0  0  0  0  0
   -4.2428    0.6068   -4.8903 C   0  0  0  0  0  0  0  0  0  0  0  0
   -3.5109    1.5226   -4.1409 C   0  0  0  0  0  0  0  0  0  0  0  0
   -3.4499    1.1805   -2.8013 C   0  0  0  0  0  0  0  0  0  0  0  0
   -2.6746    1.8870   -1.4091 S   0  0  0  0  0  0  0  0  0  0  0  0
   -3.2566    0.5662   -0.4494 C   0  0  0  0  0  0  0  0  0  0  0  0
   -3.0902    0.1422    0.9049 C   0  0  0  0  0  0  0  0  0  0  0  0
   -2.3779    0.7210    1.9527 C   0  0  0  0  0  0  0  0  0  0  0  0
   -2.3099    0.0215    3.1340 C   0  0  0  0  0  0  0  0  0  0  0  0
   -1.6051    0.4017    4.4223 C   0  0  0  0  0  0  0  0  0  0  0  0
   -0.1204    0.6831    4.3169 C   0  0  0  0  0  0  0  0  0  0  0  0
    0.6297    0.1065    3.2996 C   0  0  0  0  0  0  0  0  0  0  0  0
    2.0118    0.1619    3.3221 C   0  0  0  0  0  0  0  0  0  0  0  0
    2.6856    0.7842    4.3640 C   0  0  0  0  0  0  0  0  0  0  0  0
    4.1816    0.7382    4.4704 C   0  0  0  0  0  0  0  0  0  0  0  0
    4.6055   -0.3888    5.4164 C   0  0  0  0  0  0  0  0  0  0  0  0
    1.9339    1.3922    5.3597 C   0  0  0  0  0  0  0  0  0  0  0  0
    0.5536    1.3407    5.3404 C   0  0  0  0  0  0  0  0  0  0  0  0
   -2.4193    1.4924    5.1540 C   0  0  0  0  0  0  0  0  0  0  0  0
   -2.3287    2.8647    4.5011 C   0  0  0  0  0  0  0  0  0  0  0  0
   -1.7183   -0.8944    5.1810 C   0  0  0  0  0  0  0  0  0  0  0  0
   -2.5196   -1.7988    4.5116 C   0  0  0  0  0  0  0  0  0  0  0  0
   -2.9216   -1.2531    3.2496 C   0  0  0  0  0  0  0  0  0  0  0  0
   -3.6593   -1.8155    2.2112 C   0  0  0  0  0  0  0  0  0  0  0  0
   -3.7537   -1.1015    1.0373 C   0  0  0  0  0  0  0  0  0  0  0  0
   -4.4647   -1.4729   -0.2516 C   0  0  0  0  0  0  0  0  0  0  0  0
   -5.9971   -1.3618   -0.0685 C   0  0  0  0  0  0  0  0  0  0  0  0
   -6.6048   -2.4822    0.7635 C   0  0  0  0  0  0  0  0  0  0  0  0
   -4.0247   -2.7902   -0.8594 C   0  0  0  0  0  0  0  0  0  0  0  0
   -4.7402   -3.3591   -1.9073 C   0  0  0  0  0  0  0  0  0  0  0  0
   -4.3025   -4.5214   -2.5127 C   0  0  0  0  0  0  0  0  0  0  0  0
   -3.1355   -5.1492   -2.0991 C   0  0  0  0  0  0  0  0  0  0  0  0
   -2.6867   -6.4353   -2.7308 C   0  0  0  0  0  0  0  0  0  0  0  0
   -3.3119   -7.6318   -2.0107 C   0  0  0  0  0  0  0  0  0  0  0  0
   -2.4163   -4.5737   -1.0613 C   0  0  0  0  0  0  0  0  0  0  0  0
   -2.8479   -3.4080   -0.4555 C   0  0  0  0  0  0  0  0  0  0  0  0
   -4.0144   -0.3512   -1.1526 C   0  0  0  0  0  0  0  0  0  0  0  0
   -4.1339   -0.0112   -2.4985 C   0  0  0  0  0  0  0  0  0  0  0  0
   -4.8825   -0.6919   -3.8930 S   0  0  0  0  0  0  0  0  0  0  0  0
   -2.5932   -3.3554    5.2783 S   0  0  0  0  0  0  0  0  0  0  0  0
   -1.4445   -2.8120    6.4731 C   0  0  0  0  0  0  0  0  0  0  0  0
   -0.7086   -3.4508    7.4726 C   0  0  0  0  0  0  0  0  0  0  0  0
    0.2359   -2.6063    8.0221 C   0  0  0  0  0  0  0  0  0  0  0  0
    0.1539   -0.9796    7.3640 S   0  0  0  0  0  0  0  0  0  0  0  0
   -1.0915   -1.4659    6.2815 C   0  0  0  0  0  0  0  0  0  0  0  0
    1.3250   -2.8794    8.8792 C   0  0  0  0  0  0  0  0  0  0  0  0
    2.7938   -1.7001    8.9188 Se  0  0  0  0  0  2  0  0  0  0  0  0
    3.6535   -2.9024   10.1131 C   0  0  0  0  0  0  0  0  0  0  0  0
    2.8033   -4.0050   10.3565 C   0  0  0  0  0  0  0  0  0  0  0  0
    2.9437   -5.1672   11.1557 C   0  0  0  0  0  0  0  0  0  0  0  0
    1.8690   -5.9949   11.0918 C   0  0  0  0  0  0  0  0  0  0  0  0
    1.6791   -7.3008   11.7785 C   0  0  0  0  0  0  0  0  0  0  0  0
    1.6121   -8.4550   10.7765 C   0  0  0  0  0  0  0  0  0  0  0  0
    0.6133   -5.3916   10.0319 S   0  0  0  0  0  0  0  0  0  0  0  0
    1.5673   -3.9844    9.6730 C   0  0  0  0  0  0  0  0  0  0  0  0
    4.9198   -2.8157   10.6795 C   0  0  0  0  0  0  0  0  0  0  0  0
    5.9046   -1.8586   10.5202 C   0  0  0  0  0  0  0  0  0  0  0  0
    5.7942   -0.6869    9.6741 C   0  0  0  0  0  0  0  0  0  0  0  0
    4.8171   -0.3362    9.0140 O   0  0  0  0  0  0  0  0  0  0  0  0
    7.0820    0.0177    9.7465 C   0  0  0  0  0  0  0  0  0  0  0  0
    7.4476    1.1819    9.0760 C   0  0  0  0  0  0  0  0  0  0  0  0
    8.7301    1.5989    9.3431 C   0  0  0  0  0  0  0  0  0  0  0  0
    9.5841    0.9105   10.2131 C   0  0  0  0  0  0  0  0  0  0  0  0
    9.2351   -0.2437   10.8776 C   0  0  0  0  0  0  0  0  0  0  0  0
    7.9359   -0.6871   10.6202 C   0  0  0  0  0  0  0  0  0  0  0  0
    7.2167   -1.8623   11.1227 C   0  0  0  0  0  0  0  0  0  0  0  0
    7.7224   -2.7840   12.0071 C   0  0  0  0  0  0  0  0  0  0  0  0
    7.0356   -3.9153   12.4913 C   0  0  0  0  0  0  0  0  0  0  0  0
    6.5469   -4.8581   12.9323 N   0  0  0  0  0  0  0  0  0  0  0  0
    9.0155   -2.7314   12.5653 C   0  0  0  0  0  0  0  0  0  0  0  0
   10.0517   -2.7531   13.0602 N   0  0  0  0  0  0  0  0  0  0  0  0
   10.7103    1.8957   10.0152 C   0  0  0  0  0  0  0  0  0  0  0  0
   10.9404    2.9208   11.1458 C   0  0  0  0  0  0  0  0  0  0  0  0
   11.7433    4.0169   10.4823 C   0  0  0  0  0  0  0  0  0  0  0  0
   10.9333    4.6680    9.6571 C   0  0  0  0  0  0  0  0  0  0  0  0
    9.5694    4.0223    9.7484 C   0  0  0  0  0  0  0  0  0  0  0  0
    9.5712    3.6086   11.2259 C   0  0  0  0  0  0  0  0  0  0  0  0
    9.7569    2.6625    9.0431 C   0  0  0  0  0  0  0  0  0  0  0  0
   -4.4568    1.8365  -10.6874 H   0  0  0  0  0  0  0  0  0  0  0  0
    0.4872    5.1038   -8.6839 H   0  0  0  0  0  0  0  0  0  0  0  0
   -1.2714    5.2701  -13.4329 H   0  0  0  0  0  0  0  0  0  0  0  0
    2.0300    6.1798  -13.3397 H   0  0  0  0  0  0  0  0  0  0  0  0
    0.5410    8.3683  -13.6339 H   0  0  0  0  0  0  0  0  0  0  0  0
    3.0720    9.0714  -13.7074 H   0  0  0  0  0  0  0  0  0  0  0  0
    4.0164    9.0226  -11.2243 H   0  0  0  0  0  0  0  0  0  0  0  0
    2.0670    8.2919   -9.6220 H   0  0  0  0  0  0  0  0  0  0  0  0
    0.6175    9.6889  -11.3403 H   0  0  0  0  0  0  0  0  0  0  0  0
   -0.1974    8.1332  -11.0614 H   0  0  0  0  0  0  0  0  0  0  0  0
    2.9585    6.1338  -10.9055 H   0  0  0  0  0  0  0  0  0  0  0  0
   -7.1145   -3.6890   -6.0084 H   0  0  0  0  0  0  0  0  0  0  0  0
   -8.2276   -4.6505   -7.0152 H   0  0  0  0  0  0  0  0  0  0  0  0
   -9.9264   -2.8025   -6.8159 H   0  0  0  0  0  0  0  0  0  0  0  0
   -9.4738   -3.4656   -5.2405 H   0  0  0  0  0  0  0  0  0  0  0  0
   -8.8044   -1.9197   -5.7682 H   0  0  0  0  0  0  0  0  0  0  0  0
   -8.1532   -2.2776  -12.1337 H   0  0  0  0  0  0  0  0  0  0  0  0
   -7.0134   -0.9124  -12.0193 H   0  0  0  0  0  0  0  0  0  0  0  0
   -6.1439   -2.6989  -13.5114 H   0  0  0  0  0  0  0  0  0  0  0  0
   -6.1851   -3.8510  -12.1688 H   0  0  0  0  0  0  0  0  0  0  0  0
   -5.1012   -2.4500  -12.1096 H   0  0  0  0  0  0  0  0  0  0  0  0
   -3.0384    2.3863   -4.5733 H   0  0  0  0  0  0  0  0  0  0  0  0
   -1.8636    1.6589    1.8109 H   0  0  0  0  0  0  0  0  0  0  0  0
    0.1298   -0.4115    2.4936 H   0  0  0  0  0  0  0  0  0  0  0  0
    2.5738   -0.3082    2.5272 H   0  0  0  0  0  0  0  0  0  0  0  0
    4.6222    0.5705    3.4852 H   0  0  0  0  0  0  0  0  0  0  0  0
    4.5556    1.6891    4.8560 H   0  0  0  0  0  0  0  0  0  0  0  0
    4.2372   -1.3453    5.0510 H   0  0  0  0  0  0  0  0  0  0  0  0
    4.2028   -0.2281    6.4158 H   0  0  0  0  0  0  0  0  0  0  0  0
    5.6899   -0.4395    5.4862 H   0  0  0  0  0  0  0  0  0  0  0  0
    2.4347    1.8866    6.1792 H   0  0  0  0  0  0  0  0  0  0  0  0
    0.0097    1.8028    6.1490 H   0  0  0  0  0  0  0  0  0  0  0  0
   -2.0744    1.5502    6.1876 H   0  0  0  0  0  0  0  0  0  0  0  0
   -3.4631    1.1682    5.1790 H   0  0  0  0  0  0  0  0  0  0  0  0
   -2.8247    2.8660    3.5345 H   0  0  0  0  0  0  0  0  0  0  0  0
   -1.2910    3.1584    4.3622 H   0  0  0  0  0  0  0  0  0  0  0  0
   -2.8160    3.6045    5.1324 H   0  0  0  0  0  0  0  0  0  0  0  0
   -4.0928   -2.7975    2.3211 H   0  0  0  0  0  0  0  0  0  0  0  0
   -6.4597   -1.3473   -1.0565 H   0  0  0  0  0  0  0  0  0  0  0  0
   -6.2078   -0.3990    0.4044 H   0  0  0  0  0  0  0  0  0  0  0  0
   -7.6897   -2.4065    0.7417 H   0  0  0  0  0  0  0  0  0  0  0  0
   -6.2828   -2.4164    1.7991 H   0  0  0  0  0  0  0  0  0  0  0  0
   -6.3186   -3.4539    0.3675 H   0  0  0  0  0  0  0  0  0  0  0  0
   -5.6423   -2.8942   -2.2720 H   0  0  0  0  0  0  0  0  0  0  0  0
   -4.8745   -4.9403   -3.3282 H   0  0  0  0  0  0  0  0  0  0  0  0
   -2.9821   -6.4536   -3.7819 H   0  0  0  0  0  0  0  0  0  0  0  0
   -1.5988   -6.5133   -2.6799 H   0  0  0  0  0  0  0  0  0  0  0  0
   -2.9905   -8.5639   -2.4697 H   0  0  0  0  0  0  0  0  0  0  0  0
   -3.0159   -7.6394   -0.9640 H   0  0  0  0  0  0  0  0  0  0  0  0
   -4.3972   -7.5766   -2.0585 H   0  0  0  0  0  0  0  0  0  0  0  0
   -1.4986   -5.0368   -0.7266 H   0  0  0  0  0  0  0  0  0  0  0  0
   -2.2545   -2.9752    0.3363 H   0  0  0  0  0  0  0  0  0  0  0  0
   -0.8086   -4.4860    7.7432 H   0  0  0  0  0  0  0  0  0  0  0  0
    3.8059   -5.3822   11.7622 H   0  0  0  0  0  0  0  0  0  0  0  0
    0.7510   -7.2764   12.3564 H   0  0  0  0  0  0  0  0  0  0  0  0
    2.5095   -7.4568   12.4696 H   0  0  0  0  0  0  0  0  0  0  0  0
    2.5328   -8.5091   10.2001 H   0  0  0  0  0  0  0  0  0  0  0  0
    1.4733   -9.3972   11.2997 H   0  0  0  0  0  0  0  0  0  0  0  0
    0.7807   -8.3126   10.0892 H   0  0  0  0  0  0  0  0  0  0  0  0
    5.1623   -3.6479   11.3283 H   0  0  0  0  0  0  0  0  0  0  0  0
    6.7589    1.6802    8.4118 H   0  0  0  0  0  0  0  0  0  0  0  0
    9.9079   -0.7653   11.5376 H   0  0  0  0  0  0  0  0  0  0  0  0
   11.6370    1.4840    9.6195 H   0  0  0  0  0  0  0  0  0  0  0  0
   11.3467    2.5038   12.0632 H   0  0  0  0  0  0  0  0  0  0  0  0
   12.7963    4.1657   10.6347 H   0  0  0  0  0  0  0  0  0  0  0  0
   11.1739    5.4689    8.9826 H   0  0  0  0  0  0  0  0  0  0  0  0
    8.7256    4.6078    9.3927 H   0  0  0  0  0  0  0  0  0  0  0  0
    8.7556    2.9425   11.5011 H   0  0  0  0  0  0  0  0  0  0  0  0
    9.5809    4.4683   11.8939 H   0  0  0  0  0  0  0  0  0  0  0  0
   10.0487    2.7606    7.9989 H   0  0  0  0  0  0  0  0  0  0  0  0
  1  2  2  0  0  0  0
  2  3  1  0  0  0  0
  3  4  2  0  0  0  0
  3  5  1  0  0  0  0
  5  6  2  0  0  0  0
  6  7  1  0  0  0  0
  7  8  2  0  0  0  0
  8  9  1  0  0  0  0
  9 10  2  0  0  0  0
 10 11  1  0  0  0  0
 11 12  2  0  0  0  0
 12 13  1  0  0  0  0
 13 14  3  0  0  0  0
 12 15  1  0  0  0  0
 15 16  3  0  0  0  0
  8 17  1  0  0  0  0
 17 18  1  0  0  0  0
 18 19  1  0  0  0  0
 19 20  2  0  0  0  0
 20 21  1  0  0  0  0
 21 22  1  0  0  0  0
 21 23  1  0  0  0  0
  1 24  1  0  0  0  0
 24 25  1  0  0  0  0
 25 26  1  0  0  0  0
 26 27  2  0  0  0  0
 27 28  1  0  0  0  0
 28 29  2  0  0  0  0
 28 30  1  0  0  0  0
 30 31  2  0  0  0  0
 31 32  1  0  0  0  0
 32 33  1  0  0  0  0
 31 34  1  0  0  0  0
 34 35  1  0  0  0  0
 35 36  1  0  0  0  0
 36 37  1  0  0  0  0
 35 38  2  0  0  0  0
 38 39  1  0  0  0  0
 39 40  2  0  0  0  0
 39 41  1  0  0  0  0
 26 42  1  0  0  0  0
 42 43  2  0  0  0  0
 43 44  1  0  0  0  0
 44 45  1  0  0  0  0
 45 46  1  0  0  0  0
 46 47  1  0  0  0  0
 47 48  2  0  0  0  0
 48 49  1  0  0  0  0
 49 50  1  0  0  0  0
 50 51  1  0  0  0  0
 51 52  2  0  0  0  0
 52 53  1  0  0  0  0
 53 54  2  0  0  0  0
 54 55  1  0  0  0  0
 55 56  1  0  0  0  0
 54 57  1  0  0  0  0
 57 58  2  0  0  0  0
 50 59  1  0  0  0  0
 59 60  1  0  0  0  0
 50 61  1  0  0  0  0
 61 62  2  0  0  0  0
 62 63  1  0  0  0  0
 63 64  1  0  0  0  0
 64 65  2  0  0  0  0
 65 66  1  0  0  0  0
 66 67  1  0  0  0  0
 67 68  1  0  0  0  0
 66 69  1  0  0  0  0
 69 70  2  0  0  0  0
 70 71  1  0  0  0  0
 71 72  2  0  0  0  0
 72 73  1  0  0  0  0
 73 74  1  0  0  0  0
 72 75  1  0  0  0  0
 75 76  2  0  0  0  0
 66 77  1  0  0  0  0
 77 78  1  0  0  0  0
 78 79  1  0  0  0  0
 62 80  1  0  0  0  0
 80 81  1  0  0  0  0
 81 82  1  0  0  0  0
 82 83  2  0  0  0  0
 83 84  1  0  0  0  0
 84 85  1  0  0  0  0
 83 86  1  0  0  0  0
 86 87  1  0  0  0  0
 87 88  1  0  0  0  0
 88 89  2  0  0  0  0
 89 90  1  0  0  0  0
 90 91  2  0  0  0  0
 91 92  1  0  0  0  0
 92 93  1  0  0  0  0
 91 94  1  0  0  0  0
 94 95  1  0  0  0  0
 88 96  1  0  0  0  0
 96 97  2  0  0  0  0
 97 98  1  0  0  0  0
 98 99  2  0  0  0  0
 98100  1  0  0  0  0
100101  2  0  0  0  0
101102  1  0  0  0  0
102103  2  0  0  0  0
103104  1  0  0  0  0
104105  2  0  0  0  0
105106  1  0  0  0  0
106107  2  0  0  0  0
107108  1  0  0  0  0
108109  3  0  0  0  0
107110  1  0  0  0  0
110111  3  0  0  0  0
103112  1  0  0  0  0
112113  1  0  0  0  0
113114  1  0  0  0  0
114115  2  0  0  0  0
115116  1  0  0  0  0
116117  1  0  0  0  0
116118  1  0  0  0  0
 11  2  1  0  0  0  0
 23 17  1  0  0  0  0
 41 24  2  0  0  0  0
 79 42  1  0  0  0  0
 85 81  2  0  0  0  0
 95 86  2  0  0  0  0
106 97  1  0  0  0  0
118112  1  0  0  0  0
 10  5  1  0  0  0  0
 22 18  1  0  0  0  0
 41 27  1  0  0  0  0
 78 44  2  0  0  0  0
 95 89  1  0  0  0  0
105100  1  0  0  0  0
117113  1  0  0  0  0
 23  7  1  0  0  0  0
 38 30  1  0  0  0  0
 77 46  2  0  0  0  0
118102  1  0  0  0  0
 65 47  1  0  0  0  0
 76 69  1  0  0  0  0
 63 49  2  0  0  0  0
 58 51  1  0  0  0  0
 85 61  1  0  0  0  0
  1119  1  0  0  0  0
  6120  1  0  0  0  0
  9121  1  0  0  0  0
 17122  1  0  0  0  0
 18123  1  0  0  0  0
 19124  1  0  0  0  0
 20125  1  0  0  0  0
 21126  1  0  0  0  0
 22127  1  0  0  0  0
 22128  1  0  0  0  0
 23129  1  0  0  0  0
 32130  1  0  0  0  0
 32131  1  0  0  0  0
 33132  1  0  0  0  0
 33133  1  0  0  0  0
 33134  1  0  0  0  0
 36135  1  0  0  0  0
 36136  1  0  0  0  0
 37137  1  0  0  0  0
 37138  1  0  0  0  0
 37139  1  0  0  0  0
 43140  1  0  0  0  0
 48141  1  0  0  0  0
 52142  1  0  0  0  0
 53143  1  0  0  0  0
 55144  1  0  0  0  0
 55145  1  0  0  0  0
 56146  1  0  0  0  0
 56147  1  0  0  0  0
 56148  1  0  0  0  0
 57149  1  0  0  0  0
 58150  1  0  0  0  0
 59151  1  0  0  0  0
 59152  1  0  0  0  0
 60153  1  0  0  0  0
 60154  1  0  0  0  0
 60155  1  0  0  0  0
 64156  1  0  0  0  0
 67157  1  0  0  0  0
 67158  1  0  0  0  0
 68159  1  0  0  0  0
 68160  1  0  0  0  0
 68161  1  0  0  0  0
 70162  1  0  0  0  0
 71163  1  0  0  0  0
 73164  1  0  0  0  0
 73165  1  0  0  0  0
 74166  1  0  0  0  0
 74167  1  0  0  0  0
 74168  1  0  0  0  0
 75169  1  0  0  0  0
 76170  1  0  0  0  0
 82171  1  0  0  0  0
 90172  1  0  0  0  0
 92173  1  0  0  0  0
 92174  1  0  0  0  0
 93175  1  0  0  0  0
 93176  1  0  0  0  0
 93177  1  0  0  0  0
 96178  1  0  0  0  0
101179  1  0  0  0  0
104180  1  0  0  0  0
112181  1  0  0  0  0
113182  1  0  0  0  0
114183  1  0  0  0  0
115184  1  0  0  0  0
116185  1  0  0  0  0
117186  1  0  0  0  0
117187  1  0  0  0  0
118188  1  0  0  0  0
M  END
