
  xtb     02242223113D
 energy: -411.987484933200 gnorm: 0.000387043024 xtb: 6.4.1 (unknown)
259289  0     0  0            999 V2000
    6.4024   -2.1312  -10.7430 C   0  0  0  0  0  0  0  0  0  0  0  0
    7.2347   -1.4932   -9.8599 C   0  0  0  0  0  0  0  0  0  0  0  0
    6.9975   -1.3182   -8.4224 C   0  0  0  0  0  0  0  0  0  0  0  0
    6.0568   -1.7337   -7.7677 O   0  0  0  0  0  0  0  0  0  0  0  0
    8.1301   -0.5296   -7.9081 C   0  0  0  0  0  0  0  0  0  0  0  0
    8.3281   -0.1060   -6.5964 C   0  0  0  0  0  0  0  0  0  0  0  0
    9.4763    0.6262   -6.4128 C   0  0  0  0  0  0  0  0  0  0  0  0
   10.3650    0.9114   -7.4576 C   0  0  0  0  0  0  0  0  0  0  0  0
   10.1833    0.4948   -8.7551 C   0  0  0  0  0  0  0  0  0  0  0  0
    9.0180   -0.2478   -8.9655 C   0  0  0  0  0  0  0  0  0  0  0  0
    8.4897   -0.8463  -10.1912 C   0  0  0  0  0  0  0  0  0  0  0  0
    9.0978   -0.7949  -11.4197 C   0  0  0  0  0  0  0  0  0  0  0  0
    8.6144   -1.3766  -12.6102 C   0  0  0  0  0  0  0  0  0  0  0  0
    8.3039   -1.8162  -13.6257 N   0  0  0  0  0  0  0  0  0  0  0  0
   10.3224   -0.1450  -11.6804 C   0  0  0  0  0  0  0  0  0  0  0  0
   11.3095    0.3626  -11.9752 N   0  0  0  0  0  0  0  0  0  0  0  0
   11.2925    1.6936   -6.5619 C   0  0  0  0  0  0  0  0  0  0  0  0
   11.2417    3.2393   -6.6452 C   0  0  0  0  0  0  0  0  0  0  0  0
    9.8532    3.5984   -7.1129 C   0  0  0  0  0  0  0  0  0  0  0  0
    9.0108    3.3296   -6.1244 C   0  0  0  0  0  0  0  0  0  0  0  0
    9.8146    2.7838   -4.9702 C   0  0  0  0  0  0  0  0  0  0  0  0
   11.1193    3.5761   -5.1505 C   0  0  0  0  0  0  0  0  0  0  0  0
   10.3015    1.3769   -5.3978 C   0  0  0  0  0  0  0  0  0  0  0  0
    5.1678   -2.7652  -10.5435 C   0  0  0  0  0  0  0  0  0  0  0  0
    4.3193   -2.9537   -9.0151 S   0  0  0  0  0  0  0  0  0  0  0  0
    3.0459   -3.7509   -9.8246 C   0  0  0  0  0  0  0  0  0  0  0  0
    1.7800   -4.3170   -9.4628 C   0  0  0  0  0  0  0  0  0  0  0  0
    1.1803   -4.8005  -10.6433 C   0  0  0  0  0  0  0  0  0  0  0  0
    2.0848   -4.5882  -11.8450 C   0  0  0  0  0  0  0  0  0  0  0  0
    1.3409   -3.7561  -12.8711 C   0  0  0  0  0  0  0  0  0  0  0  0
    0.5394   -4.3744  -13.8226 C   0  0  0  0  0  0  0  0  0  0  0  0
   -0.1781   -3.6212  -14.7322 C   0  0  0  0  0  0  0  0  0  0  0  0
   -0.1180   -2.2338  -14.7156 C   0  0  0  0  0  0  0  0  0  0  0  0
   -0.9291   -1.4165  -15.6793 C   0  0  0  0  0  0  0  0  0  0  0  0
   -2.3059   -1.1050  -15.0890 C   0  0  0  0  0  0  0  0  0  0  0  0
    0.6731   -1.6205  -13.7538 C   0  0  0  0  0  0  0  0  0  0  0  0
    1.3909   -2.3694  -12.8398 C   0  0  0  0  0  0  0  0  0  0  0  0
    2.6118   -5.8830  -12.4379 C   0  0  0  0  0  0  0  0  0  0  0  0
    2.4858   -7.0976  -11.7799 C   0  0  0  0  0  0  0  0  0  0  0  0
    3.0151   -8.2509  -12.3312 C   0  0  0  0  0  0  0  0  0  0  0  0
    3.6879   -8.2201  -13.5445 C   0  0  0  0  0  0  0  0  0  0  0  0
    4.3012   -9.4651  -14.1175 C   0  0  0  0  0  0  0  0  0  0  0  0
    5.7407   -9.6262  -13.6245 C   0  0  0  0  0  0  0  0  0  0  0  0
    3.8234   -6.9984  -14.1926 C   0  0  0  0  0  0  0  0  0  0  0  0
    3.2946   -5.8448  -13.6480 C   0  0  0  0  0  0  0  0  0  0  0  0
    3.2452   -3.8698  -11.1997 C   0  0  0  0  0  0  0  0  0  0  0  0
    4.4450   -3.3256  -11.6058 C   0  0  0  0  0  0  0  0  0  0  0  0
   -0.0847   -5.3465  -10.5943 C   0  0  0  0  0  0  0  0  0  0  0  0
   -0.7286   -5.4487   -9.3723 C   0  0  0  0  0  0  0  0  0  0  0  0
   -0.1149   -5.0268   -8.1860 C   0  0  0  0  0  0  0  0  0  0  0  0
    1.1456   -4.4318   -8.2394 C   0  0  0  0  0  0  0  0  0  0  0  0
   -0.7906   -5.1637   -6.9100 C   0  0  0  0  0  0  0  0  0  0  0  0
   -1.6884   -6.1203   -6.4888 C   0  0  0  0  0  0  0  0  0  0  0  0
   -2.0304   -7.3389   -7.2266 C   0  0  0  0  0  0  0  0  0  0  0  0
   -3.3445   -7.7932   -7.2698 C   0  0  0  0  0  0  0  0  0  0  0  0
   -3.6521   -8.9472   -7.9670 C   0  0  0  0  0  0  0  0  0  0  0  0
   -2.6608   -9.6518   -8.6258 C   0  0  0  0  0  0  0  0  0  0  0  0
   -1.3406   -9.2179   -8.5851 C   0  0  0  0  0  0  0  0  0  0  0  0
   -0.2531   -9.9991   -9.2660 C   0  0  0  0  0  0  0  0  0  0  0  0
    0.3176  -11.0604   -8.3237 C   0  0  0  0  0  0  0  0  0  0  0  0
   -1.0362   -8.0705   -7.8717 C   0  0  0  0  0  0  0  0  0  0  0  0
   -2.1846   -5.8248   -5.1968 C   0  0  0  0  0  0  0  0  0  0  0  0
   -3.3317   -6.6235   -4.1458 S   0  0  0  0  0  0  0  0  0  0  0  0
   -3.0685   -5.3934   -2.9546 C   0  0  0  0  0  0  0  0  0  0  0  0
   -3.4830   -5.0555   -1.6529 C   0  0  0  0  0  0  0  0  0  0  0  0
   -4.3067   -5.7304   -0.7263 C   0  0  0  0  0  0  0  0  0  0  0  0
   -4.4404   -5.2003    0.6028 C   0  0  0  0  0  0  0  0  0  0  0  0
   -5.1890   -5.9675    1.3799 N   0  0  0  0  0  0  0  0  0  0  0  0
   -5.6904   -7.2409    0.5140 S   0  0  0  0  0  0  0  0  0  0  0  0
   -4.9685   -6.8659   -0.8858 N   0  0  0  0  0  0  0  0  0  0  0  0
   -3.8440   -3.9577    0.9069 C   0  0  0  0  0  0  0  0  0  0  0  0
   -3.9155   -3.1402    2.0490 C   0  0  0  0  0  0  0  0  0  0  0  0
   -4.5930   -3.1659    3.6424 S   0  0  0  0  0  0  0  0  0  0  0  0
   -3.9628   -1.5604    3.9115 C   0  0  0  0  0  0  0  0  0  0  0  0
   -3.9552   -0.7209    5.0469 C   0  0  0  0  0  0  0  0  0  0  0  0
   -4.6353   -1.0550    6.2996 C   0  0  0  0  0  0  0  0  0  0  0  0
   -4.4513   -2.3007    6.8925 C   0  0  0  0  0  0  0  0  0  0  0  0
   -5.1053   -2.6054    8.0703 C   0  0  0  0  0  0  0  0  0  0  0  0
   -5.9469   -1.6794    8.6634 C   0  0  0  0  0  0  0  0  0  0  0  0
   -6.1584   -0.4405    8.0741 C   0  0  0  0  0  0  0  0  0  0  0  0
   -7.1065    0.5574    8.6729 C   0  0  0  0  0  0  0  0  0  0  0  0
   -8.4833    0.4546    8.0149 C   0  0  0  0  0  0  0  0  0  0  0  0
   -5.5067   -0.1451    6.8858 C   0  0  0  0  0  0  0  0  0  0  0  0
   -3.2040    0.4129    4.8220 C   0  0  0  0  0  0  0  0  0  0  0  0
   -2.6271    0.5123    3.1601 S   0  0  0  0  0  0  0  0  0  0  0  0
   -3.2773   -1.0469    2.8125 C   0  0  0  0  0  0  0  0  0  0  0  0
   -3.2495   -1.9517    1.7436 C   0  0  0  0  0  0  0  0  0  0  0  0
   -2.7574   -2.0049    0.4659 N   0  0  0  0  0  0  0  0  0  0  0  0
   -3.0909   -3.2395   -0.0618 C   0  0  0  0  0  0  0  0  0  0  0  0
   -2.8083   -3.8535   -1.3083 C   0  0  0  0  0  0  0  0  0  0  0  0
   -1.9779   -3.4906   -2.3604 N   0  0  0  0  0  0  0  0  0  0  0  0
   -2.1423   -4.4287   -3.3479 C   0  0  0  0  0  0  0  0  0  0  0  0
   -1.6382   -4.6745   -4.6322 C   0  0  0  0  0  0  0  0  0  0  0  0
   -0.5148   -3.9207   -5.7034 S   0  0  0  0  0  0  0  0  0  0  0  0
   -0.7235   -2.7695   -2.2986 C   0  0  0  0  0  0  0  0  0  0  0  0
    0.2488   -3.4501   -1.3373 C   0  0  0  0  0  0  0  0  0  0  0  0
   -2.3973   -0.7836   -0.2186 C   0  0  0  0  0  0  0  0  0  0  0  0
   -0.9993   -0.2932    0.1511 C   0  0  0  0  0  0  0  0  0  0  0  0
   -2.6694    1.3723    5.7459 C   0  0  0  0  0  0  0  0  0  0  0  0
   -1.3211    1.6834    5.8701 C   0  0  0  0  0  0  0  0  0  0  0  0
   -0.2735    1.0620    5.2101 N   0  0  0  0  0  0  0  0  0  0  0  0
    0.8425    1.8394    4.8540 C   0  0  0  0  0  0  0  0  0  0  0  0
    2.1308    1.3373    5.0157 C   0  0  0  0  0  0  0  0  0  0  0  0
    3.2219    2.1103    4.6756 C   0  0  0  0  0  0  0  0  0  0  0  0
    3.0634    3.3983    4.1761 C   0  0  0  0  0  0  0  0  0  0  0  0
    4.2563    4.2418    3.8453 C   0  0  0  0  0  0  0  0  0  0  0  0
    1.7744    3.8895    4.0150 C   0  0  0  0  0  0  0  0  0  0  0  0
    0.6734    3.1227    4.3422 C   0  0  0  0  0  0  0  0  0  0  0  0
   -0.3025   -0.3002    4.8856 C   0  0  0  0  0  0  0  0  0  0  0  0
   -0.9232   -1.2300    5.7161 C   0  0  0  0  0  0  0  0  0  0  0  0
   -1.0109   -2.5538    5.3311 C   0  0  0  0  0  0  0  0  0  0  0  0
   -0.4938   -2.9914    4.1189 C   0  0  0  0  0  0  0  0  0  0  0  0
   -0.6678   -4.4104    3.6729 C   0  0  0  0  0  0  0  0  0  0  0  0
    0.1674   -2.0668    3.3188 C   0  0  0  0  0  0  0  0  0  0  0  0
    0.2697   -0.7431    3.6928 C   0  0  0  0  0  0  0  0  0  0  0  0
   -1.1272    2.7221    6.8119 C   0  0  0  0  0  0  0  0  0  0  0  0
    0.2734    3.5058    7.4396 S   0  0  0  0  0  0  0  0  0  0  0  0
   -0.7371    4.5451    8.4565 C   0  0  0  0  0  0  0  0  0  0  0  0
   -2.1016    4.1953    8.3776 C   0  0  0  0  0  0  0  0  0  0  0  0
   -3.1038    4.6499    9.1844 N   0  0  0  0  0  0  0  0  0  0  0  0
   -4.4417    4.5941    8.7412 C   0  0  0  0  0  0  0  0  0  0  0  0
   -5.4350    4.1410    9.6023 C   0  0  0  0  0  0  0  0  0  0  0  0
   -6.7490    4.0957    9.1768 C   0  0  0  0  0  0  0  0  0  0  0  0
   -7.0998    4.4905    7.8916 C   0  0  0  0  0  0  0  0  0  0  0  0
   -8.5183    4.4124    7.4176 C   0  0  0  0  0  0  0  0  0  0  0  0
   -6.0986    4.9539    7.0445 C   0  0  0  0  0  0  0  0  0  0  0  0
   -4.7834    5.0134    7.4588 C   0  0  0  0  0  0  0  0  0  0  0  0
   -2.8657    5.1788   10.4626 C   0  0  0  0  0  0  0  0  0  0  0  0
   -1.9401    4.5950   11.3261 C   0  0  0  0  0  0  0  0  0  0  0  0
   -1.6962    5.1552   12.5621 C   0  0  0  0  0  0  0  0  0  0  0  0
   -2.3604    6.3078   12.9763 C   0  0  0  0  0  0  0  0  0  0  0  0
   -2.0422    6.9320   14.2985 C   0  0  0  0  0  0  0  0  0  0  0  0
   -3.3103    6.8589   12.1274 C   0  0  0  0  0  0  0  0  0  0  0  0
   -3.5679    6.3043   10.8874 C   0  0  0  0  0  0  0  0  0  0  0  0
   -2.2926    3.1854    7.4048 C   0  0  0  0  0  0  0  0  0  0  0  0
   -3.6734    2.3094    6.8368 S   0  0  0  0  0  0  0  0  0  0  0  0
   -0.0774    5.5320    9.1930 C   0  0  0  0  0  0  0  0  0  0  0  0
   -0.6341    6.7094    9.6440 C   0  0  0  0  0  0  0  0  0  0  0  0
   -1.7815    7.3701    9.0040 C   0  0  0  0  0  0  0  0  0  0  0  0
   -2.4297    6.9736    8.0522 O   0  0  0  0  0  0  0  0  0  0  0  0
   -1.9032    8.6880    9.6636 C   0  0  0  0  0  0  0  0  0  0  0  0
   -2.8303    9.6860    9.3802 C   0  0  0  0  0  0  0  0  0  0  0  0
   -2.6985   10.8106   10.1607 C   0  0  0  0  0  0  0  0  0  0  0  0
   -1.7123   10.9367   11.1458 C   0  0  0  0  0  0  0  0  0  0  0  0
   -0.7888    9.9589   11.4337 C   0  0  0  0  0  0  0  0  0  0  0  0
   -0.9095    8.8070   10.6538 C   0  0  0  0  0  0  0  0  0  0  0  0
   -0.1301    7.5705   10.6748 C   0  0  0  0  0  0  0  0  0  0  0  0
    0.8090    7.2236   11.6166 C   0  0  0  0  0  0  0  0  0  0  0  0
    1.4343    5.9629   11.6753 C   0  0  0  0  0  0  0  0  0  0  0  0
    1.9628    4.9506   11.8029 N   0  0  0  0  0  0  0  0  0  0  0  0
    1.2040    8.0447   12.6873 C   0  0  0  0  0  0  0  0  0  0  0  0
    1.5556    8.6607   13.5921 N   0  0  0  0  0  0  0  0  0  0  0  0
   -2.1521   12.3304   11.5228 C   0  0  0  0  0  0  0  0  0  0  0  0
   -1.2881   13.4934   10.9916 C   0  0  0  0  0  0  0  0  0  0  0  0
   -2.1967   14.6970   11.0958 C   0  0  0  0  0  0  0  0  0  0  0  0
   -3.1333   14.5772   10.1636 C   0  0  0  0  0  0  0  0  0  0  0  0
   -2.8731   13.2906    9.4137 C   0  0  0  0  0  0  0  0  0  0  0  0
   -1.3408   13.2534    9.4773 C   0  0  0  0  0  0  0  0  0  0  0  0
   -3.2546   12.1888   10.4248 C   0  0  0  0  0  0  0  0  0  0  0  0
    6.7193   -2.1531  -11.7788 H   0  0  0  0  0  0  0  0  0  0  0  0
    7.6177   -0.3510   -5.8223 H   0  0  0  0  0  0  0  0  0  0  0  0
   10.8793    0.7230   -9.5445 H   0  0  0  0  0  0  0  0  0  0  0  0
   12.3099    1.3158   -6.4827 H   0  0  0  0  0  0  0  0  0  0  0  0
   12.0643    3.6887   -7.1947 H   0  0  0  0  0  0  0  0  0  0  0  0
    9.6265    3.9459   -8.1039 H   0  0  0  0  0  0  0  0  0  0  0  0
    7.9392    3.4071   -6.1246 H   0  0  0  0  0  0  0  0  0  0  0  0
    9.3381    2.8194   -3.9939 H   0  0  0  0  0  0  0  0  0  0  0  0
   10.9934    4.6422   -4.9678 H   0  0  0  0  0  0  0  0  0  0  0  0
   11.9449    3.1951   -4.5509 H   0  0  0  0  0  0  0  0  0  0  0  0
   10.6724    0.7933   -4.5574 H   0  0  0  0  0  0  0  0  0  0  0  0
    0.4867   -5.4531  -13.8602 H   0  0  0  0  0  0  0  0  0  0  0  0
   -0.7916   -4.1193  -15.4696 H   0  0  0  0  0  0  0  0  0  0  0  0
   -1.0547   -1.9643  -16.6155 H   0  0  0  0  0  0  0  0  0  0  0  0
   -0.4115   -0.4803  -15.8978 H   0  0  0  0  0  0  0  0  0  0  0  0
   -2.8431   -2.0265  -14.8754 H   0  0  0  0  0  0  0  0  0  0  0  0
   -2.8942   -0.5129  -15.7861 H   0  0  0  0  0  0  0  0  0  0  0  0
   -2.2019   -0.5479  -14.1605 H   0  0  0  0  0  0  0  0  0  0  0  0
    0.7313   -0.5418  -13.7199 H   0  0  0  0  0  0  0  0  0  0  0  0
    1.9972   -1.8683  -12.0993 H   0  0  0  0  0  0  0  0  0  0  0  0
    1.9685   -7.1473  -10.8329 H   0  0  0  0  0  0  0  0  0  0  0  0
    2.9011   -9.1904  -11.8087 H   0  0  0  0  0  0  0  0  0  0  0  0
    3.7180  -10.3380  -13.8171 H   0  0  0  0  0  0  0  0  0  0  0  0
    4.2990   -9.4108  -15.2080 H   0  0  0  0  0  0  0  0  0  0  0  0
    6.3408   -8.7696  -13.9230 H   0  0  0  0  0  0  0  0  0  0  0  0
    5.7632   -9.6970  -12.5392 H   0  0  0  0  0  0  0  0  0  0  0  0
    6.1876  -10.5259  -14.0411 H   0  0  0  0  0  0  0  0  0  0  0  0
    4.3478   -6.9509  -15.1363 H   0  0  0  0  0  0  0  0  0  0  0  0
    3.4010   -4.9054  -14.1709 H   0  0  0  0  0  0  0  0  0  0  0  0
    4.8114   -3.3040  -12.6167 H   0  0  0  0  0  0  0  0  0  0  0  0
   -0.5739   -5.6885  -11.4937 H   0  0  0  0  0  0  0  0  0  0  0  0
   -1.7259   -5.8575   -9.3310 H   0  0  0  0  0  0  0  0  0  0  0  0
    1.6243   -4.0731   -7.3401 H   0  0  0  0  0  0  0  0  0  0  0  0
   -4.1231   -7.2351   -6.7723 H   0  0  0  0  0  0  0  0  0  0  0  0
   -4.6741   -9.2951   -8.0004 H   0  0  0  0  0  0  0  0  0  0  0  0
   -2.9110  -10.5468   -9.1772 H   0  0  0  0  0  0  0  0  0  0  0  0
    0.5467   -9.3228   -9.5758 H   0  0  0  0  0  0  0  0  0  0  0  0
   -0.6523  -10.4862  -10.1581 H   0  0  0  0  0  0  0  0  0  0  0  0
    1.1062  -11.6243   -8.8167 H   0  0  0  0  0  0  0  0  0  0  0  0
   -0.4634  -11.7517   -8.0154 H   0  0  0  0  0  0  0  0  0  0  0  0
    0.7298  -10.5919   -7.4328 H   0  0  0  0  0  0  0  0  0  0  0  0
   -0.0107   -7.7335   -7.8160 H   0  0  0  0  0  0  0  0  0  0  0  0
   -3.7923   -3.0194    6.4314 H   0  0  0  0  0  0  0  0  0  0  0  0
   -4.9572   -3.5710    8.5312 H   0  0  0  0  0  0  0  0  0  0  0  0
   -6.4493   -1.9237    9.5884 H   0  0  0  0  0  0  0  0  0  0  0  0
   -7.2049    0.3772    9.7452 H   0  0  0  0  0  0  0  0  0  0  0  0
   -6.7118    1.5653    8.5280 H   0  0  0  0  0  0  0  0  0  0  0  0
   -8.9014   -0.5388    8.1625 H   0  0  0  0  0  0  0  0  0  0  0  0
   -8.4047    0.6350    6.9453 H   0  0  0  0  0  0  0  0  0  0  0  0
   -9.1651    1.1858    8.4426 H   0  0  0  0  0  0  0  0  0  0  0  0
   -5.6985    0.7986    6.3958 H   0  0  0  0  0  0  0  0  0  0  0  0
   -0.3085   -2.7777   -3.3093 H   0  0  0  0  0  0  0  0  0  0  0  0
   -0.8763   -1.7311   -2.0155 H   0  0  0  0  0  0  0  0  0  0  0  0
    0.4323   -4.4746   -1.6535 H   0  0  0  0  0  0  0  0  0  0  0  0
   -0.1620   -3.4723   -0.3298 H   0  0  0  0  0  0  0  0  0  0  0  0
    1.1957   -2.9165   -1.3248 H   0  0  0  0  0  0  0  0  0  0  0  0
   -3.1206   -0.0143    0.0769 H   0  0  0  0  0  0  0  0  0  0  0  0
   -2.5092   -0.9405   -1.2923 H   0  0  0  0  0  0  0  0  0  0  0  0
   -0.9681   -0.0309    1.2046 H   0  0  0  0  0  0  0  0  0  0  0  0
   -0.7559    0.5917   -0.4312 H   0  0  0  0  0  0  0  0  0  0  0  0
   -0.2461   -1.0538   -0.0293 H   0  0  0  0  0  0  0  0  0  0  0  0
    2.2671    0.3421    5.4126 H   0  0  0  0  0  0  0  0  0  0  0  0
    4.2167    1.7108    4.8107 H   0  0  0  0  0  0  0  0  0  0  0  0
    4.6044    4.7584    4.7404 H   0  0  0  0  0  0  0  0  0  0  0  0
    5.0744    3.6289    3.4734 H   0  0  0  0  0  0  0  0  0  0  0  0
    4.0077    4.9921    3.0985 H   0  0  0  0  0  0  0  0  0  0  0  0
    1.6277    4.8856    3.6228 H   0  0  0  0  0  0  0  0  0  0  0  0
   -0.3239    3.5131    4.1996 H   0  0  0  0  0  0  0  0  0  0  0  0
   -1.3400   -0.9127    6.6609 H   0  0  0  0  0  0  0  0  0  0  0  0
   -1.4931   -3.2625    5.9883 H   0  0  0  0  0  0  0  0  0  0  0  0
    0.1711   -4.7328    3.0598 H   0  0  0  0  0  0  0  0  0  0  0  0
   -0.7594   -5.0780    4.5262 H   0  0  0  0  0  0  0  0  0  0  0  0
   -1.5770   -4.5040    3.0762 H   0  0  0  0  0  0  0  0  0  0  0  0
    0.5993   -2.3864    2.3810 H   0  0  0  0  0  0  0  0  0  0  0  0
    0.7744   -0.0337    3.0533 H   0  0  0  0  0  0  0  0  0  0  0  0
   -5.1729    3.8245   10.6014 H   0  0  0  0  0  0  0  0  0  0  0  0
   -7.5127    3.7447    9.8558 H   0  0  0  0  0  0  0  0  0  0  0  0
   -9.2001    4.2594    8.2502 H   0  0  0  0  0  0  0  0  0  0  0  0
   -8.8003    5.3243    6.8947 H   0  0  0  0  0  0  0  0  0  0  0  0
   -8.6340    3.5806    6.7227 H   0  0  0  0  0  0  0  0  0  0  0  0
   -6.3568    5.2830    6.0484 H   0  0  0  0  0  0  0  0  0  0  0  0
   -4.0159    5.4121    6.8146 H   0  0  0  0  0  0  0  0  0  0  0  0
   -1.4093    3.7045   11.0244 H   0  0  0  0  0  0  0  0  0  0  0  0
   -0.9706    4.6951   13.2167 H   0  0  0  0  0  0  0  0  0  0  0  0
   -2.0129    6.1778   15.0825 H   0  0  0  0  0  0  0  0  0  0  0  0
   -1.0621    7.4090   14.2641 H   0  0  0  0  0  0  0  0  0  0  0  0
   -2.7790    7.6871   14.5602 H   0  0  0  0  0  0  0  0  0  0  0  0
   -3.8488    7.7452   12.4306 H   0  0  0  0  0  0  0  0  0  0  0  0
   -4.3058    6.7470   10.2353 H   0  0  0  0  0  0  0  0  0  0  0  0
    0.9774    5.3577    9.3695 H   0  0  0  0  0  0  0  0  0  0  0  0
   -3.5756    9.5499    8.6119 H   0  0  0  0  0  0  0  0  0  0  0  0
   -0.0294   10.0707   12.1898 H   0  0  0  0  0  0  0  0  0  0  0  0
   -2.4617   12.4687   12.5572 H   0  0  0  0  0  0  0  0  0  0  0  0
   -0.3075   13.5790   11.4519 H   0  0  0  0  0  0  0  0  0  0  0  0
   -2.1010   15.4579   11.8480 H   0  0  0  0  0  0  0  0  0  0  0  0
   -3.9763   15.2180    9.9817 H   0  0  0  0  0  0  0  0  0  0  0  0
   -3.3364   13.1922    8.4355 H   0  0  0  0  0  0  0  0  0  0  0  0
   -0.9070   12.3060    9.1631 H   0  0  0  0  0  0  0  0  0  0  0  0
   -0.8853   14.0673    8.9153 H   0  0  0  0  0  0  0  0  0  0  0  0
   -4.2994   12.2328   10.7280 H   0  0  0  0  0  0  0  0  0  0  0  0
  1  2  2  0  0  0  0
  2  3  1  0  0  0  0
  3  4  2  0  0  0  0
  3  5  1  0  0  0  0
  5  6  2  0  0  0  0
  6  7  1  0  0  0  0
  7  8  2  0  0  0  0
  8  9  1  0  0  0  0
  9 10  2  0  0  0  0
 10 11  1  0  0  0  0
 11 12  2  0  0  0  0
 12 13  1  0  0  0  0
 13 14  3  0  0  0  0
 12 15  1  0  0  0  0
 15 16  3  0  0  0  0
  8 17  1  0  0  0  0
 17 18  1  0  0  0  0
 18 19  1  0  0  0  0
 19 20  2  0  0  0  0
 20 21  1  0  0  0  0
 21 22  1  0  0  0  0
 21 23  1  0  0  0  0
  1 24  1  0  0  0  0
 24 25  1  0  0  0  0
 25 26  1  0  0  0  0
 26 27  1  0  0  0  0
 27 28  2  0  0  0  0
 28 29  1  0  0  0  0
 29 30  1  0  0  0  0
 30 31  2  0  0  0  0
 31 32  1  0  0  0  0
 32 33  2  0  0  0  0
 33 34  1  0  0  0  0
 34 35  1  0  0  0  0
 33 36  1  0  0  0  0
 36 37  2  0  0  0  0
 29 38  1  0  0  0  0
 38 39  2  0  0  0  0
 39 40  1  0  0  0  0
 40 41  2  0  0  0  0
 41 42  1  0  0  0  0
 42 43  1  0  0  0  0
 41 44  1  0  0  0  0
 44 45  2  0  0  0  0
 29 46  1  0  0  0  0
 46 47  1  0  0  0  0
 28 48  1  0  0  0  0
 48 49  2  0  0  0  0
 49 50  1  0  0  0  0
 50 51  2  0  0  0  0
 50 52  1  0  0  0  0
 52 53  2  0  0  0  0
 53 54  1  0  0  0  0
 54 55  2  0  0  0  0
 55 56  1  0  0  0  0
 56 57  2  0  0  0  0
 57 58  1  0  0  0  0
 58 59  1  0  0  0  0
 59 60  1  0  0  0  0
 58 61  2  0  0  0  0
 53 62  1  0  0  0  0
 62 63  1  0  0  0  0
 63 64  1  0  0  0  0
 64 65  1  0  0  0  0
 65 66  1  0  0  0  0
 66 67  1  0  0  0  0
 67 68  2  0  0  0  0
 68 69  1  0  0  0  0
 69 70  1  0  0  0  0
 67 71  1  0  0  0  0
 71 72  1  0  0  0  0
 72 73  1  0  0  0  0
 73 74  1  0  0  0  0
 74 75  1  0  0  0  0
 75 76  1  0  0  0  0
 76 77  2  0  0  0  0
 77 78  1  0  0  0  0
 78 79  2  0  0  0  0
 79 80  1  0  0  0  0
 80 81  1  0  0  0  0
 81 82  1  0  0  0  0
 80 83  2  0  0  0  0
 75 84  2  0  0  0  0
 84 85  1  0  0  0  0
 85 86  1  0  0  0  0
 86 87  1  0  0  0  0
 87 88  1  0  0  0  0
 88 89  1  0  0  0  0
 89 90  1  0  0  0  0
 90 91  1  0  0  0  0
 91 92  1  0  0  0  0
 92 93  1  0  0  0  0
 93 94  1  0  0  0  0
 91 95  1  0  0  0  0
 95 96  1  0  0  0  0
 88 97  1  0  0  0  0
 97 98  1  0  0  0  0
 84 99  1  0  0  0  0
 99100  2  0  0  0  0
100101  1  0  0  0  0
101102  1  0  0  0  0
102103  2  0  0  0  0
103104  1  0  0  0  0
104105  2  0  0  0  0
105106  1  0  0  0  0
105107  1  0  0  0  0
107108  2  0  0  0  0
101109  1  0  0  0  0
109110  2  0  0  0  0
110111  1  0  0  0  0
111112  2  0  0  0  0
112113  1  0  0  0  0
112114  1  0  0  0  0
114115  2  0  0  0  0
100116  1  0  0  0  0
116117  1  0  0  0  0
117118  1  0  0  0  0
118119  2  0  0  0  0
119120  1  0  0  0  0
120121  1  0  0  0  0
121122  2  0  0  0  0
122123  1  0  0  0  0
123124  2  0  0  0  0
124125  1  0  0  0  0
124126  1  0  0  0  0
126127  2  0  0  0  0
120128  1  0  0  0  0
128129  2  0  0  0  0
129130  1  0  0  0  0
130131  2  0  0  0  0
131132  1  0  0  0  0
131133  1  0  0  0  0
133134  2  0  0  0  0
119135  1  0  0  0  0
135136  1  0  0  0  0
118137  1  0  0  0  0
137138  2  0  0  0  0
138139  1  0  0  0  0
139140  2  0  0  0  0
139141  1  0  0  0  0
141142  2  0  0  0  0
142143  1  0  0  0  0
143144  2  0  0  0  0
144145  1  0  0  0  0
145146  2  0  0  0  0
146147  1  0  0  0  0
147148  2  0  0  0  0
148149  1  0  0  0  0
149150  3  0  0  0  0
148151  1  0  0  0  0
151152  3  0  0  0  0
144153  1  0  0  0  0
153154  1  0  0  0  0
154155  1  0  0  0  0
155156  2  0  0  0  0
156157  1  0  0  0  0
157158  1  0  0  0  0
157159  1  0  0  0  0
 11  2  1  0  0  0  0
 23 17  1  0  0  0  0
 47 24  2  0  0  0  0
 94 52  1  0  0  0  0
136 99  1  0  0  0  0
147138  1  0  0  0  0
159153  1  0  0  0  0
 10  5  1  0  0  0  0
 22 18  1  0  0  0  0
 46 26  2  0  0  0  0
 61 54  1  0  0  0  0
 93 62  2  0  0  0  0
108102  1  0  0  0  0
115109  1  0  0  0  0
135116  2  0  0  0  0
146141  1  0  0  0  0
158154  1  0  0  0  0
 23  7  1  0  0  0  0
 51 27  1  0  0  0  0
 92 64  2  0  0  0  0
127121  1  0  0  0  0
134128  1  0  0  0  0
159143  1  0  0  0  0
 37 30  1  0  0  0  0
 45 38  1  0  0  0  0
 90 65  2  0  0  0  0
 70 66  2  0  0  0  0
 89 71  2  0  0  0  0
 87 72  2  0  0  0  0
 86 74  2  0  0  0  0
 83 76  1  0  0  0  0
  1160  1  0  0  0  0
  6161  1  0  0  0  0
  9162  1  0  0  0  0
 17163  1  0  0  0  0
 18164  1  0  0  0  0
 19165  1  0  0  0  0
 20166  1  0  0  0  0
 21167  1  0  0  0  0
 22168  1  0  0  0  0
 22169  1  0  0  0  0
 23170  1  0  0  0  0
 31171  1  0  0  0  0
 32172  1  0  0  0  0
 34173  1  0  0  0  0
 34174  1  0  0  0  0
 35175  1  0  0  0  0
 35176  1  0  0  0  0
 35177  1  0  0  0  0
 36178  1  0  0  0  0
 37179  1  0  0  0  0
 39180  1  0  0  0  0
 40181  1  0  0  0  0
 42182  1  0  0  0  0
 42183  1  0  0  0  0
 43184  1  0  0  0  0
 43185  1  0  0  0  0
 43186  1  0  0  0  0
 44187  1  0  0  0  0
 45188  1  0  0  0  0
 47189  1  0  0  0  0
 48190  1  0  0  0  0
 49191  1  0  0  0  0
 51192  1  0  0  0  0
 55193  1  0  0  0  0
 56194  1  0  0  0  0
 57195  1  0  0  0  0
 59196  1  0  0  0  0
 59197  1  0  0  0  0
 60198  1  0  0  0  0
 60199  1  0  0  0  0
 60200  1  0  0  0  0
 61201  1  0  0  0  0
 77202  1  0  0  0  0
 78203  1  0  0  0  0
 79204  1  0  0  0  0
 81205  1  0  0  0  0
 81206  1  0  0  0  0
 82207  1  0  0  0  0
 82208  1  0  0  0  0
 82209  1  0  0  0  0
 83210  1  0  0  0  0
 95211  1  0  0  0  0
 95212  1  0  0  0  0
 96213  1  0  0  0  0
 96214  1  0  0  0  0
 96215  1  0  0  0  0
 97216  1  0  0  0  0
 97217  1  0  0  0  0
 98218  1  0  0  0  0
 98219  1  0  0  0  0
 98220  1  0  0  0  0
103221  1  0  0  0  0
104222  1  0  0  0  0
106223  1  0  0  0  0
106224  1  0  0  0  0
106225  1  0  0  0  0
107226  1  0  0  0  0
108227  1  0  0  0  0
110228  1  0  0  0  0
111229  1  0  0  0  0
113230  1  0  0  0  0
113231  1  0  0  0  0
113232  1  0  0  0  0
114233  1  0  0  0  0
115234  1  0  0  0  0
122235  1  0  0  0  0
123236  1  0  0  0  0
125237  1  0  0  0  0
125238  1  0  0  0  0
125239  1  0  0  0  0
126240  1  0  0  0  0
127241  1  0  0  0  0
129242  1  0  0  0  0
130243  1  0  0  0  0
132244  1  0  0  0  0
132245  1  0  0  0  0
132246  1  0  0  0  0
133247  1  0  0  0  0
134248  1  0  0  0  0
137249  1  0  0  0  0
142250  1  0  0  0  0
145251  1  0  0  0  0
153252  1  0  0  0  0
154253  1  0  0  0  0
155254  1  0  0  0  0
156255  1  0  0  0  0
157256  1  0  0  0  0
158257  1  0  0  0  0
158258  1  0  0  0  0
159259  1  0  0  0  0
M  END
