
  xtb     02132206173D
 energy: -307.200652503688 gnorm: 0.000349706906 xtb: 6.4.1 (unknown)
168188  0     0  0            999 V2000
    3.6834   -7.1599   -5.2579 C   0  0  0  0  0  0  0  0  0  0  0  0
    2.7868   -6.9452   -6.2415 C   0  0  0  0  0  0  0  0  0  0  0  0
    1.7516   -5.8766   -6.1674 C   0  0  0  0  0  0  0  0  0  0  0  0
    1.6385   -5.0316   -5.3062 O   0  0  0  0  0  0  0  0  0  0  0  0
    0.8719   -6.0943   -7.3248 C   0  0  0  0  0  0  0  0  0  0  0  0
   -0.2567   -5.3497   -7.6633 C   0  0  0  0  0  0  0  0  0  0  0  0
   -0.9069   -5.7971   -8.7868 C   0  0  0  0  0  0  0  0  0  0  0  0
   -0.4693   -6.9080   -9.5229 C   0  0  0  0  0  0  0  0  0  0  0  0
    0.6447   -7.6469   -9.2055 C   0  0  0  0  0  0  0  0  0  0  0  0
    1.3251   -7.2085   -8.0637 C   0  0  0  0  0  0  0  0  0  0  0  0
    2.5293   -7.7395   -7.4353 C   0  0  0  0  0  0  0  0  0  0  0  0
    3.2943   -8.7754   -7.8915 C   0  0  0  0  0  0  0  0  0  0  0  0
    4.4903   -9.2171   -7.2839 C   0  0  0  0  0  0  0  0  0  0  0  0
    5.4822   -9.6145   -6.8651 N   0  0  0  0  0  0  0  0  0  0  0  0
    3.0102   -9.5331   -9.0483 C   0  0  0  0  0  0  0  0  0  0  0  0
    2.8366  -10.1866   -9.9757 N   0  0  0  0  0  0  0  0  0  0  0  0
   -1.6081   -6.8034  -10.5059 C   0  0  0  0  0  0  0  0  0  0  0  0
   -2.7867   -7.7966  -10.3501 C   0  0  0  0  0  0  0  0  0  0  0  0
   -2.8285   -8.1898   -8.8941 C   0  0  0  0  0  0  0  0  0  0  0  0
   -3.2403   -7.1363   -8.2016 C   0  0  0  0  0  0  0  0  0  0  0  0
   -3.4838   -6.0110   -9.1769 C   0  0  0  0  0  0  0  0  0  0  0  0
   -3.9650   -6.8106  -10.3980 C   0  0  0  0  0  0  0  0  0  0  0  0
   -2.0919   -5.5639   -9.6890 C   0  0  0  0  0  0  0  0  0  0  0  0
    3.7660   -6.2998   -4.0973 C   0  0  0  0  0  0  0  0  0  0  0  0
    4.3751   -4.6870   -4.1121 S   0  0  0  0  0  0  0  0  0  0  0  0
    3.9982   -4.4642   -2.4135 C   0  0  0  0  0  0  0  0  0  0  0  0
    3.4462   -5.6228   -1.8790 C   0  0  0  0  0  0  0  0  0  0  0  0
    3.0031   -5.8252   -0.5110 C   0  0  0  0  0  0  0  0  0  0  0  0
    2.9501   -4.9257    0.3226 O   0  0  0  0  0  0  0  0  0  0  0  0
    2.6146   -7.2046   -0.2018 C   0  0  0  0  0  0  0  0  0  0  0  0
    2.3220   -7.6533    1.0617 C   0  0  0  0  0  0  0  0  0  0  0  0
    2.2897   -6.8978    2.3410 C   0  0  0  0  0  0  0  0  0  0  0  0
    0.9437   -6.1886    2.5163 C   0  0  0  0  0  0  0  0  0  0  0  0
    1.9081   -9.3347    1.0441 S   0  0  0  0  0  0  0  0  0  0  0  0
    2.1205   -9.4462   -0.6689 C   0  0  0  0  0  0  0  0  0  0  0  0
    1.8571  -10.7225   -1.3810 C   0  0  0  0  0  0  0  0  0  0  0  0
    0.4039  -10.7801   -1.8616 C   0  0  0  0  0  0  0  0  0  0  0  0
    2.4984   -8.2365   -1.1937 C   0  0  0  0  0  0  0  0  0  0  0  0
    2.7868   -7.9898   -2.6025 C   0  0  0  0  0  0  0  0  0  0  0  0
    2.6168   -8.7905   -3.5126 O   0  0  0  0  0  0  0  0  0  0  0  0
    3.3409   -6.6632   -2.8441 C   0  0  0  0  0  0  0  0  0  0  0  0
    4.1668   -3.1724   -1.8457 C   0  0  0  0  0  0  0  0  0  0  0  0
    4.9255   -2.1330   -2.3815 C   0  0  0  0  0  0  0  0  0  0  0  0
    5.9850   -2.2833   -3.3785 C   0  0  0  0  0  0  0  0  0  0  0  0
    6.9564   -3.2732   -3.2338 C   0  0  0  0  0  0  0  0  0  0  0  0
    7.9864   -3.3644   -4.1485 C   0  0  0  0  0  0  0  0  0  0  0  0
    8.0642   -2.4716   -5.2044 C   0  0  0  0  0  0  0  0  0  0  0  0
    7.1102   -1.4744   -5.3587 C   0  0  0  0  0  0  0  0  0  0  0  0
    7.2195   -0.4593   -6.4590 C   0  0  0  0  0  0  0  0  0  0  0  0
    7.8991    0.8090   -5.9382 C   0  0  0  0  0  0  0  0  0  0  0  0
    6.0760   -1.3891   -4.4386 C   0  0  0  0  0  0  0  0  0  0  0  0
    4.5988   -0.9044   -1.7916 C   0  0  0  0  0  0  0  0  0  0  0  0
    5.1639    0.7331   -2.0542 S   0  0  0  0  0  0  0  0  0  0  0  0
    4.0220    1.2868   -0.8748 C   0  0  0  0  0  0  0  0  0  0  0  0
    3.5655    2.4872   -0.3098 C   0  0  0  0  0  0  0  0  0  0  0  0
    4.0224    3.8164   -0.4475 C   0  0  0  0  0  0  0  0  0  0  0  0
    3.3820    4.8539    0.3091 C   0  0  0  0  0  0  0  0  0  0  0  0
    3.9402    6.0386    0.1179 N   0  0  0  0  0  0  0  0  0  0  0  0
    5.1648    5.8653   -0.9277 S   0  0  0  0  0  0  0  0  0  0  0  0
    5.0285    4.2714   -1.1774 N   0  0  0  0  0  0  0  0  0  0  0  0
    2.2408    4.5324    1.0768 C   0  0  0  0  0  0  0  0  0  0  0  0
    1.3172    5.3539    1.7410 C   0  0  0  0  0  0  0  0  0  0  0  0
    1.0571    7.0309    2.0837 S   0  0  0  0  0  0  0  0  0  0  0  0
   -0.4776    6.6199    2.8136 C   0  0  0  0  0  0  0  0  0  0  0  0
   -1.5172    7.3997    3.3557 C   0  0  0  0  0  0  0  0  0  0  0  0
   -1.5105    8.8616    3.3668 C   0  0  0  0  0  0  0  0  0  0  0  0
   -2.6364    9.5806    2.9719 C   0  0  0  0  0  0  0  0  0  0  0  0
   -2.6053   10.9615    2.9728 C   0  0  0  0  0  0  0  0  0  0  0  0
   -1.4603   11.6337    3.3636 C   0  0  0  0  0  0  0  0  0  0  0  0
   -0.3246   10.9319    3.7478 C   0  0  0  0  0  0  0  0  0  0  0  0
    0.9053   11.6536    4.2156 C   0  0  0  0  0  0  0  0  0  0  0  0
    0.8559   11.8512    5.7320 C   0  0  0  0  0  0  0  0  0  0  0  0
   -0.3602    9.5462    3.7426 C   0  0  0  0  0  0  0  0  0  0  0  0
   -2.5769    6.6039    3.7577 C   0  0  0  0  0  0  0  0  0  0  0  0
   -2.3045    4.8994    3.4467 S   0  0  0  0  0  0  0  0  0  0  0  0
   -0.7492    5.2486    2.7905 C   0  0  0  0  0  0  0  0  0  0  0  0
    0.2836    4.5243    2.1853 C   0  0  0  0  0  0  0  0  0  0  0  0
    0.5511    3.2224    1.8606 N   0  0  0  0  0  0  0  0  0  0  0  0
    1.7523    3.1976    1.1725 C   0  0  0  0  0  0  0  0  0  0  0  0
    2.4945    2.1495    0.5684 C   0  0  0  0  0  0  0  0  0  0  0  0
    2.3567    0.7713    0.5768 N   0  0  0  0  0  0  0  0  0  0  0  0
    3.2726    0.2574   -0.2993 C   0  0  0  0  0  0  0  0  0  0  0  0
    3.6056   -1.0018   -0.8129 C   0  0  0  0  0  0  0  0  0  0  0  0
    3.1304   -2.6373   -0.5335 S   0  0  0  0  0  0  0  0  0  0  0  0
    1.7444   -0.1016    1.5547 C   0  0  0  0  0  0  0  0  0  0  0  0
    2.2344    0.2077    2.9666 C   0  0  0  0  0  0  0  0  0  0  0  0
   -0.5055    2.2383    1.9265 C   0  0  0  0  0  0  0  0  0  0  0  0
   -1.0133    1.8648    0.5363 C   0  0  0  0  0  0  0  0  0  0  0  0
   -3.8040    7.0037    4.4006 C   0  0  0  0  0  0  0  0  0  0  0  0
   -5.0334    6.4156    4.0625 C   0  0  0  0  0  0  0  0  0  0  0  0
   -5.0722    5.5014    3.0812 F   0  0  0  0  0  0  0  0  0  0  0  0
   -6.2163    6.7810    4.6730 C   0  0  0  0  0  0  0  0  0  0  0  0
   -7.3615    6.2497    4.2325 F   0  0  0  0  0  0  0  0  0  0  0  0
   -6.2490    7.7652    5.6697 C   0  0  0  0  0  0  0  0  0  0  0  0
   -5.0285    8.3710    5.9931 C   0  0  0  0  0  0  0  0  0  0  0  0
   -5.0142    9.3072    6.9516 F   0  0  0  0  0  0  0  0  0  0  0  0
   -3.8405    7.9870    5.4023 C   0  0  0  0  0  0  0  0  0  0  0  0
   -2.6984    8.5390    5.8330 F   0  0  0  0  0  0  0  0  0  0  0  0
   -7.4778    8.1781    6.3088 C   0  0  0  0  0  0  0  0  0  0  0  0
   -8.4321    7.3180    6.7350 C   0  0  0  0  0  0  0  0  0  0  0  0
   -8.2019    5.8552    6.9424 C   0  0  0  0  0  0  0  0  0  0  0  0
   -7.1983    5.2257    6.7023 O   0  0  0  0  0  0  0  0  0  0  0  0
   -9.4142    5.3662    7.6235 C   0  0  0  0  0  0  0  0  0  0  0  0
   -9.6973    4.0835    8.0565 C   0  0  0  0  0  0  0  0  0  0  0  0
  -10.9060    3.8506    8.6913 C   0  0  0  0  0  0  0  0  0  0  0  0
  -11.7934    4.9026    8.8863 C   0  0  0  0  0  0  0  0  0  0  0  0
  -13.4376    4.5602    9.7711 Br  0  0  0  0  0  0  0  0  0  0  0  0
  -11.5236    6.1977    8.4612 C   0  0  0  0  0  0  0  0  0  0  0  0
  -10.3176    6.4267    7.8180 C   0  0  0  0  0  0  0  0  0  0  0  0
   -9.7522    7.6469    7.2483 C   0  0  0  0  0  0  0  0  0  0  0  0
  -10.3875    8.8510    7.1297 C   0  0  0  0  0  0  0  0  0  0  0  0
  -11.6900    9.1111    7.6098 C   0  0  0  0  0  0  0  0  0  0  0  0
  -12.7411    9.3786    7.9831 N   0  0  0  0  0  0  0  0  0  0  0  0
   -9.8438    9.9837    6.4835 C   0  0  0  0  0  0  0  0  0  0  0  0
   -9.4739   10.9330    5.9560 N   0  0  0  0  0  0  0  0  0  0  0  0
    4.3367   -8.0230   -5.2689 H   0  0  0  0  0  0  0  0  0  0  0  0
   -0.5594   -4.5035   -7.0665 H   0  0  0  0  0  0  0  0  0  0  0  0
    0.9682   -8.4976   -9.7819 H   0  0  0  0  0  0  0  0  0  0  0  0
   -1.3281   -6.6523  -11.5464 H   0  0  0  0  0  0  0  0  0  0  0  0
   -2.7863   -8.6124  -11.0677 H   0  0  0  0  0  0  0  0  0  0  0  0
   -2.5099   -9.1461   -8.5228 H   0  0  0  0  0  0  0  0  0  0  0  0
   -3.3340   -7.0366   -7.1360 H   0  0  0  0  0  0  0  0  0  0  0  0
   -4.1179   -5.2007   -8.8270 H   0  0  0  0  0  0  0  0  0  0  0  0
   -4.0028   -6.2230  -11.3142 H   0  0  0  0  0  0  0  0  0  0  0  0
   -4.9260   -7.2949  -10.2315 H   0  0  0  0  0  0  0  0  0  0  0  0
   -2.1247   -4.6009  -10.1948 H   0  0  0  0  0  0  0  0  0  0  0  0
    3.0802   -6.1451    2.3284 H   0  0  0  0  0  0  0  0  0  0  0  0
    2.4561   -7.5839    3.1738 H   0  0  0  0  0  0  0  0  0  0  0  0
    0.9208   -5.6711    3.4714 H   0  0  0  0  0  0  0  0  0  0  0  0
    0.1262   -6.9057    2.4859 H   0  0  0  0  0  0  0  0  0  0  0  0
    0.8078   -5.4596    1.7221 H   0  0  0  0  0  0  0  0  0  0  0  0
    2.0568  -11.5638   -0.7145 H   0  0  0  0  0  0  0  0  0  0  0  0
    2.5159  -10.7837   -2.2493 H   0  0  0  0  0  0  0  0  0  0  0  0
    0.2173  -11.7265   -2.3614 H   0  0  0  0  0  0  0  0  0  0  0  0
    0.2158   -9.9732   -2.5652 H   0  0  0  0  0  0  0  0  0  0  0  0
   -0.2818  -10.6853   -1.0220 H   0  0  0  0  0  0  0  0  0  0  0  0
    6.9052   -3.9546   -2.3969 H   0  0  0  0  0  0  0  0  0  0  0  0
    8.7392   -4.1303   -4.0341 H   0  0  0  0  0  0  0  0  0  0  0  0
    8.8766   -2.5475   -5.9127 H   0  0  0  0  0  0  0  0  0  0  0  0
    6.2236   -0.2069   -6.8289 H   0  0  0  0  0  0  0  0  0  0  0  0
    7.7999   -0.8684   -7.2880 H   0  0  0  0  0  0  0  0  0  0  0  0
    7.3306    1.2311   -5.1127 H   0  0  0  0  0  0  0  0  0  0  0  0
    8.9009    0.5807   -5.5813 H   0  0  0  0  0  0  0  0  0  0  0  0
    7.9726    1.5528   -6.7279 H   0  0  0  0  0  0  0  0  0  0  0  0
    5.3224   -0.6238   -4.5527 H   0  0  0  0  0  0  0  0  0  0  0  0
   -3.5238    9.0568    2.6455 H   0  0  0  0  0  0  0  0  0  0  0  0
   -3.4788   11.5168    2.6643 H   0  0  0  0  0  0  0  0  0  0  0  0
   -1.4461   12.7139    3.3649 H   0  0  0  0  0  0  0  0  0  0  0  0
    1.7939   11.0754    3.9552 H   0  0  0  0  0  0  0  0  0  0  0  0
    0.9735   12.6271    3.7263 H   0  0  0  0  0  0  0  0  0  0  0  0
    1.7488   12.3665    6.0780 H   0  0  0  0  0  0  0  0  0  0  0  0
    0.7898   10.8898    6.2360 H   0  0  0  0  0  0  0  0  0  0  0  0
   -0.0155   12.4404    6.0086 H   0  0  0  0  0  0  0  0  0  0  0  0
    0.5109    8.9888    4.0537 H   0  0  0  0  0  0  0  0  0  0  0  0
    2.0401   -1.1191    1.2872 H   0  0  0  0  0  0  0  0  0  0  0  0
    0.6566   -0.0579    1.4875 H   0  0  0  0  0  0  0  0  0  0  0  0
    2.0178    1.2363    3.2459 H   0  0  0  0  0  0  0  0  0  0  0  0
    1.7547   -0.4591    3.6779 H   0  0  0  0  0  0  0  0  0  0  0  0
    3.3101    0.0602    3.0257 H   0  0  0  0  0  0  0  0  0  0  0  0
   -1.3202    2.6937    2.4948 H   0  0  0  0  0  0  0  0  0  0  0  0
   -0.1771    1.3615    2.4846 H   0  0  0  0  0  0  0  0  0  0  0  0
   -1.7971    1.1166    0.6175 H   0  0  0  0  0  0  0  0  0  0  0  0
   -0.2122    1.4707   -0.0842 H   0  0  0  0  0  0  0  0  0  0  0  0
   -1.4241    2.7432    0.0439 H   0  0  0  0  0  0  0  0  0  0  0  0
   -7.5899    9.2435    6.4638 H   0  0  0  0  0  0  0  0  0  0  0  0
   -8.9871    3.2879    7.8939 H   0  0  0  0  0  0  0  0  0  0  0  0
  -11.1644    2.8619    9.0374 H   0  0  0  0  0  0  0  0  0  0  0  0
  -12.2385    6.9846    8.6389 H   0  0  0  0  0  0  0  0  0  0  0  0
  1  2  2  0  0  0  0
  2  3  1  0  0  0  0
  3  4  2  0  0  0  0
  3  5  1  0  0  0  0
  5  6  2  0  0  0  0
  6  7  1  0  0  0  0
  7  8  2  0  0  0  0
  8  9  1  0  0  0  0
  9 10  2  0  0  0  0
 10 11  1  0  0  0  0
 11 12  2  0  0  0  0
 12 13  1  0  0  0  0
 13 14  3  0  0  0  0
 12 15  1  0  0  0  0
 15 16  3  0  0  0  0
  8 17  1  0  0  0  0
 17 18  1  0  0  0  0
 18 19  1  0  0  0  0
 19 20  2  0  0  0  0
 20 21  1  0  0  0  0
 21 22  1  0  0  0  0
 21 23  1  0  0  0  0
  1 24  1  0  0  0  0
 24 25  1  0  0  0  0
 25 26  1  0  0  0  0
 26 27  2  0  0  0  0
 27 28  1  0  0  0  0
 28 29  2  0  0  0  0
 28 30  1  0  0  0  0
 30 31  2  0  0  0  0
 31 32  1  0  0  0  0
 32 33  1  0  0  0  0
 31 34  1  0  0  0  0
 34 35  1  0  0  0  0
 35 36  1  0  0  0  0
 36 37  1  0  0  0  0
 35 38  2  0  0  0  0
 38 39  1  0  0  0  0
 39 40  2  0  0  0  0
 39 41  1  0  0  0  0
 26 42  1  0  0  0  0
 42 43  2  0  0  0  0
 43 44  1  0  0  0  0
 44 45  2  0  0  0  0
 45 46  1  0  0  0  0
 46 47  2  0  0  0  0
 47 48  1  0  0  0  0
 48 49  1  0  0  0  0
 49 50  1  0  0  0  0
 48 51  2  0  0  0  0
 43 52  1  0  0  0  0
 52 53  1  0  0  0  0
 53 54  1  0  0  0  0
 54 55  1  0  0  0  0
 55 56  1  0  0  0  0
 56 57  1  0  0  0  0
 57 58  2  0  0  0  0
 58 59  1  0  0  0  0
 59 60  1  0  0  0  0
 57 61  1  0  0  0  0
 61 62  1  0  0  0  0
 62 63  1  0  0  0  0
 63 64  1  0  0  0  0
 64 65  1  0  0  0  0
 65 66  1  0  0  0  0
 66 67  2  0  0  0  0
 67 68  1  0  0  0  0
 68 69  2  0  0  0  0
 69 70  1  0  0  0  0
 70 71  1  0  0  0  0
 71 72  1  0  0  0  0
 70 73  2  0  0  0  0
 65 74  2  0  0  0  0
 74 75  1  0  0  0  0
 75 76  1  0  0  0  0
 76 77  1  0  0  0  0
 77 78  1  0  0  0  0
 78 79  1  0  0  0  0
 79 80  1  0  0  0  0
 80 81  1  0  0  0  0
 81 82  1  0  0  0  0
 82 83  1  0  0  0  0
 83 84  1  0  0  0  0
 81 85  1  0  0  0  0
 85 86  1  0  0  0  0
 78 87  1  0  0  0  0
 87 88  1  0  0  0  0
 74 89  1  0  0  0  0
 89 90  2  0  0  0  0
 90 91  1  0  0  0  0
 90 92  1  0  0  0  0
 92 93  1  0  0  0  0
 92 94  2  0  0  0  0
 94 95  1  0  0  0  0
 95 96  1  0  0  0  0
 95 97  2  0  0  0  0
 97 98  1  0  0  0  0
 94 99  1  0  0  0  0
 99100  2  0  0  0  0
100101  1  0  0  0  0
101102  2  0  0  0  0
101103  1  0  0  0  0
103104  2  0  0  0  0
104105  1  0  0  0  0
105106  2  0  0  0  0
106107  1  0  0  0  0
106108  1  0  0  0  0
108109  2  0  0  0  0
109110  1  0  0  0  0
110111  2  0  0  0  0
111112  1  0  0  0  0
112113  3  0  0  0  0
111114  1  0  0  0  0
114115  3  0  0  0  0
 11  2  1  0  0  0  0
 23 17  1  0  0  0  0
 41 24  2  0  0  0  0
 84 42  1  0  0  0  0
 97 89  1  0  0  0  0
110100  1  0  0  0  0
 10  5  1  0  0  0  0
 22 18  1  0  0  0  0
 41 27  1  0  0  0  0
 51 44  1  0  0  0  0
 83 52  2  0  0  0  0
109103  1  0  0  0  0
 23  7  1  0  0  0  0
 38 30  1  0  0  0  0
 82 54  2  0  0  0  0
 80 55  2  0  0  0  0
 60 56  2  0  0  0  0
 79 61  2  0  0  0  0
 77 62  2  0  0  0  0
 76 64  2  0  0  0  0
 73 66  1  0  0  0  0
  1116  1  0  0  0  0
  6117  1  0  0  0  0
  9118  1  0  0  0  0
 17119  1  0  0  0  0
 18120  1  0  0  0  0
 19121  1  0  0  0  0
 20122  1  0  0  0  0
 21123  1  0  0  0  0
 22124  1  0  0  0  0
 22125  1  0  0  0  0
 23126  1  0  0  0  0
 32127  1  0  0  0  0
 32128  1  0  0  0  0
 33129  1  0  0  0  0
 33130  1  0  0  0  0
 33131  1  0  0  0  0
 36132  1  0  0  0  0
 36133  1  0  0  0  0
 37134  1  0  0  0  0
 37135  1  0  0  0  0
 37136  1  0  0  0  0
 45137  1  0  0  0  0
 46138  1  0  0  0  0
 47139  1  0  0  0  0
 49140  1  0  0  0  0
 49141  1  0  0  0  0
 50142  1  0  0  0  0
 50143  1  0  0  0  0
 50144  1  0  0  0  0
 51145  1  0  0  0  0
 67146  1  0  0  0  0
 68147  1  0  0  0  0
 69148  1  0  0  0  0
 71149  1  0  0  0  0
 71150  1  0  0  0  0
 72151  1  0  0  0  0
 72152  1  0  0  0  0
 72153  1  0  0  0  0
 73154  1  0  0  0  0
 85155  1  0  0  0  0
 85156  1  0  0  0  0
 86157  1  0  0  0  0
 86158  1  0  0  0  0
 86159  1  0  0  0  0
 87160  1  0  0  0  0
 87161  1  0  0  0  0
 88162  1  0  0  0  0
 88163  1  0  0  0  0
 88164  1  0  0  0  0
 99165  1  0  0  0  0
104166  1  0  0  0  0
105167  1  0  0  0  0
108168  1  0  0  0  0
M  END
