
  xtb     02222202513D
 energy: -293.557832724139 gnorm: 0.000557259448 xtb: 6.4.1 (unknown)
167189  0     0  0            999 V2000
   -5.2503    6.5405   -9.2189 C   0  0  0  0  0  0  0  0  0  0  0  0
   -5.2929    7.7138   -8.5456 C   0  0  0  0  0  0  0  0  0  0  0  0
   -4.8602    7.9011   -7.1288 C   0  0  0  0  0  0  0  0  0  0  0  0
   -4.5574    7.0503   -6.3229 O   0  0  0  0  0  0  0  0  0  0  0  0
   -4.7757    9.3586   -6.9321 C   0  0  0  0  0  0  0  0  0  0  0  0
   -4.3618   10.0128   -5.7732 C   0  0  0  0  0  0  0  0  0  0  0  0
   -4.3600   11.3822   -5.8742 C   0  0  0  0  0  0  0  0  0  0  0  0
   -4.7392   12.0560   -7.0445 C   0  0  0  0  0  0  0  0  0  0  0  0
   -5.1522   11.4244   -8.1924 C   0  0  0  0  0  0  0  0  0  0  0  0
   -5.1623   10.0273   -8.1116 C   0  0  0  0  0  0  0  0  0  0  0  0
   -5.5265    9.0350   -9.1150 C   0  0  0  0  0  0  0  0  0  0  0  0
   -6.0553    9.2956  -10.3499 C   0  0  0  0  0  0  0  0  0  0  0  0
   -6.2880   10.5892  -10.8642 C   0  0  0  0  0  0  0  0  0  0  0  0
   -6.4963   11.6102  -11.3457 N   0  0  0  0  0  0  0  0  0  0  0  0
   -6.4644    8.3142  -11.2788 C   0  0  0  0  0  0  0  0  0  0  0  0
   -6.8291    7.5810  -12.0836 N   0  0  0  0  0  0  0  0  0  0  0  0
   -4.4703   13.4130   -6.4444 C   0  0  0  0  0  0  0  0  0  0  0  0
   -3.1642   14.1357   -6.8585 C   0  0  0  0  0  0  0  0  0  0  0  0
   -2.1802   13.0585   -7.2423 C   0  0  0  0  0  0  0  0  0  0  0  0
   -1.8244   12.4214   -6.1347 C   0  0  0  0  0  0  0  0  0  0  0  0
   -2.5617   13.0565   -4.9815 C   0  0  0  0  0  0  0  0  0  0  0  0
   -2.6243   14.5126   -5.4695 C   0  0  0  0  0  0  0  0  0  0  0  0
   -4.0514   12.6628   -5.1408 C   0  0  0  0  0  0  0  0  0  0  0  0
   -5.0581    5.2374   -8.6218 C   0  0  0  0  0  0  0  0  0  0  0  0
   -5.7103    4.8694   -7.4337 C   0  0  0  0  0  0  0  0  0  0  0  0
   -5.4421    3.6360   -6.8927 C   0  0  0  0  0  0  0  0  0  0  0  0
   -5.9767    3.0210   -5.6470 C   0  0  0  0  0  0  0  0  0  0  0  0
   -6.8298    3.4537   -4.9110 O   0  0  0  0  0  0  0  0  0  0  0  0
   -5.2281    1.7403   -5.5214 C   0  0  0  0  0  0  0  0  0  0  0  0
   -4.3734    1.5867   -6.6321 C   0  0  0  0  0  0  0  0  0  0  0  0
   -4.5191    2.7532   -7.4906 C   0  0  0  0  0  0  0  0  0  0  0  0
   -3.9187    3.0897   -8.6902 C   0  0  0  0  0  0  0  0  0  0  0  0
   -4.2121    4.3210   -9.2547 C   0  0  0  0  0  0  0  0  0  0  0  0
   -3.5425    0.4856   -6.7134 C   0  0  0  0  0  0  0  0  0  0  0  0
   -3.5573   -0.4348   -5.6766 C   0  0  0  0  0  0  0  0  0  0  0  0
   -4.3971   -0.2873   -4.5700 C   0  0  0  0  0  0  0  0  0  0  0  0
   -5.2556    0.8229   -4.5001 C   0  0  0  0  0  0  0  0  0  0  0  0
   -4.3105   -1.2122   -3.4600 C   0  0  0  0  0  0  0  0  0  0  0  0
   -5.2833   -1.5981   -2.5618 C   0  0  0  0  0  0  0  0  0  0  0  0
   -6.7139   -1.3205   -2.6999 C   0  0  0  0  0  0  0  0  0  0  0  0
   -7.3413   -1.4304   -3.9392 C   0  0  0  0  0  0  0  0  0  0  0  0
   -8.6965   -1.1881   -4.0483 C   0  0  0  0  0  0  0  0  0  0  0  0
   -9.4364   -0.8395   -2.9315 C   0  0  0  0  0  0  0  0  0  0  0  0
   -8.8294   -0.7354   -1.6865 C   0  0  0  0  0  0  0  0  0  0  0  0
   -9.6175   -0.3148   -0.4800 C   0  0  0  0  0  0  0  0  0  0  0  0
   -9.6196    1.2101   -0.3539 C   0  0  0  0  0  0  0  0  0  0  0  0
   -7.4683   -0.9785   -1.5828 C   0  0  0  0  0  0  0  0  0  0  0  0
   -4.7330   -2.3661   -1.5096 C   0  0  0  0  0  0  0  0  0  0  0  0
   -5.4190   -3.1004   -0.0782 S   0  0  0  0  0  0  0  0  0  0  0  0
   -3.8395   -3.6443    0.3801 C   0  0  0  0  0  0  0  0  0  0  0  0
   -3.2036   -4.3217    1.4383 C   0  0  0  0  0  0  0  0  0  0  0  0
   -3.6972   -4.9759    2.5886 C   0  0  0  0  0  0  0  0  0  0  0  0
   -2.7686   -5.6166    3.4816 C   0  0  0  0  0  0  0  0  0  0  0  0
   -3.3752   -6.2251    4.4883 N   0  0  0  0  0  0  0  0  0  0  0  0
   -4.9729   -6.0105    4.3320 S   0  0  0  0  0  0  0  0  0  0  0  0
   -4.9539   -5.1295    2.9739 N   0  0  0  0  0  0  0  0  0  0  0  0
   -1.3821   -5.4577    3.2600 C   0  0  0  0  0  0  0  0  0  0  0  0
   -0.2659   -5.7343    4.0680 C   0  0  0  0  0  0  0  0  0  0  0  0
    0.0964   -6.4592    5.5980 S   0  0  0  0  0  0  0  0  0  0  0  0
    1.7548   -5.9304    5.4322 C   0  0  0  0  0  0  0  0  0  0  0  0
    2.8877   -6.0563    6.2656 C   0  0  0  0  0  0  0  0  0  0  0  0
    2.8658   -6.8411    7.5025 C   0  0  0  0  0  0  0  0  0  0  0  0
    3.8620   -7.7793    7.7656 C   0  0  0  0  0  0  0  0  0  0  0  0
    3.7955   -8.5490    8.9102 C   0  0  0  0  0  0  0  0  0  0  0  0
    2.7408   -8.3978    9.7952 C   0  0  0  0  0  0  0  0  0  0  0  0
    1.7378   -7.4706    9.5464 C   0  0  0  0  0  0  0  0  0  0  0  0
    0.5594   -7.3352   10.4665 C   0  0  0  0  0  0  0  0  0  0  0  0
   -0.6263   -8.1388    9.9285 C   0  0  0  0  0  0  0  0  0  0  0  0
    1.8101   -6.6992    8.3954 C   0  0  0  0  0  0  0  0  0  0  0  0
    3.9897   -5.4336    5.7133 C   0  0  0  0  0  0  0  0  0  0  0  0
    3.6394   -4.7343    4.1392 S   0  0  0  0  0  0  0  0  0  0  0  0
    1.9960   -5.2491    4.2391 C   0  0  0  0  0  0  0  0  0  0  0  0
    0.8427   -5.1500    3.4495 C   0  0  0  0  0  0  0  0  0  0  0  0
    0.4655   -4.5634    2.2705 N   0  0  0  0  0  0  0  0  0  0  0  0
   -0.8960   -4.7490    2.1282 C   0  0  0  0  0  0  0  0  0  0  0  0
   -1.8147   -4.3120    1.1431 C   0  0  0  0  0  0  0  0  0  0  0  0
   -1.6185   -3.7143   -0.0912 N   0  0  0  0  0  0  0  0  0  0  0  0
   -2.8466   -3.2946   -0.5363 C   0  0  0  0  0  0  0  0  0  0  0  0
   -3.3589   -2.5720   -1.6205 C   0  0  0  0  0  0  0  0  0  0  0  0
   -2.7203   -1.8307   -3.0416 S   0  0  0  0  0  0  0  0  0  0  0  0
   -0.5751   -4.0044   -1.0510 C   0  0  0  0  0  0  0  0  0  0  0  0
   -1.0370   -5.0399   -2.0766 C   0  0  0  0  0  0  0  0  0  0  0  0
    1.3456   -3.6298    1.6035 C   0  0  0  0  0  0  0  0  0  0  0  0
    2.4651   -4.3348    0.8380 C   0  0  0  0  0  0  0  0  0  0  0  0
    5.3031   -5.1952    6.2648 C   0  0  0  0  0  0  0  0  0  0  0  0
    6.3863   -4.9695    5.3981 C   0  0  0  0  0  0  0  0  0  0  0  0
    7.6186   -4.6812    5.9294 C   0  0  0  0  0  0  0  0  0  0  0  0
    8.8966   -4.3889    5.2262 C   0  0  0  0  0  0  0  0  0  0  0  0
    9.1089   -4.4035    4.0383 O   0  0  0  0  0  0  0  0  0  0  0  0
    9.8562   -4.0885    6.3245 C   0  0  0  0  0  0  0  0  0  0  0  0
    9.2075   -4.2469    7.5675 C   0  0  0  0  0  0  0  0  0  0  0  0
    7.8194   -4.6053    7.3224 C   0  0  0  0  0  0  0  0  0  0  0  0
    6.7573   -4.8278    8.1803 C   0  0  0  0  0  0  0  0  0  0  0  0
    5.5108   -5.1132    7.6467 C   0  0  0  0  0  0  0  0  0  0  0  0
    9.9166   -4.0647    8.7420 C   0  0  0  0  0  0  0  0  0  0  0  0
   11.2513   -3.7046    8.6604 C   0  0  0  0  0  0  0  0  0  0  0  0
   11.8834   -3.4793    7.4306 C   0  0  0  0  0  0  0  0  0  0  0  0
   11.1708   -3.7035    6.2402 C   0  0  0  0  0  0  0  0  0  0  0  0
   13.2681   -3.0744    7.4306 C   0  0  0  0  0  0  0  0  0  0  0  0
   13.8689   -2.2122    6.5751 C   0  0  0  0  0  0  0  0  0  0  0  0
   13.1617   -1.2985    5.6192 C   0  0  0  0  0  0  0  0  0  0  0  0
   11.9738   -1.1939    5.4228 O   0  0  0  0  0  0  0  0  0  0  0  0
   14.2371   -0.4897    5.0500 C   0  0  0  0  0  0  0  0  0  0  0  0
   14.3332    0.7803    3.9098 S   0  0  0  0  0  0  0  0  0  0  0  0
   16.0545    0.8466    4.1588 C   0  0  0  0  0  0  0  0  0  0  0  0
   17.0837    2.0857    3.2049 Br  0  0  0  0  0  0  0  0  0  0  0  0
   16.5289   -0.0551    5.0714 C   0  0  0  0  0  0  0  0  0  0  0  0
   15.4724   -0.8267    5.5881 C   0  0  0  0  0  0  0  0  0  0  0  0
   15.2944   -1.8975    6.5478 C   0  0  0  0  0  0  0  0  0  0  0  0
   16.3086   -2.4918    7.2468 C   0  0  0  0  0  0  0  0  0  0  0  0
   17.6504   -2.0752    7.1033 C   0  0  0  0  0  0  0  0  0  0  0  0
   18.7450   -1.7469    7.0044 N   0  0  0  0  0  0  0  0  0  0  0  0
   16.1701   -3.5526    8.1655 C   0  0  0  0  0  0  0  0  0  0  0  0
   16.1373   -4.4163    8.9210 N   0  0  0  0  0  0  0  0  0  0  0  0
   -5.3094    6.5541  -10.3008 H   0  0  0  0  0  0  0  0  0  0  0  0
   -4.0774    9.4536   -4.8956 H   0  0  0  0  0  0  0  0  0  0  0  0
   -5.4364   11.9562   -9.0850 H   0  0  0  0  0  0  0  0  0  0  0  0
   -5.3206   14.0898   -6.3938 H   0  0  0  0  0  0  0  0  0  0  0  0
   -3.3017   14.9385   -7.5777 H   0  0  0  0  0  0  0  0  0  0  0  0
   -1.8964   12.8402   -8.2552 H   0  0  0  0  0  0  0  0  0  0  0  0
   -1.1844   11.5641   -6.0372 H   0  0  0  0  0  0  0  0  0  0  0  0
   -2.1506   12.8769   -3.9917 H   0  0  0  0  0  0  0  0  0  0  0  0
   -3.3068   15.1349   -4.8924 H   0  0  0  0  0  0  0  0  0  0  0  0
   -1.6438   14.9842   -5.5130 H   0  0  0  0  0  0  0  0  0  0  0  0
   -4.6291   12.8480   -4.2374 H   0  0  0  0  0  0  0  0  0  0  0  0
   -6.4228    5.5277   -6.9635 H   0  0  0  0  0  0  0  0  0  0  0  0
   -3.2316    2.4158   -9.1791 H   0  0  0  0  0  0  0  0  0  0  0  0
   -3.7420    4.6045  -10.1857 H   0  0  0  0  0  0  0  0  0  0  0  0
   -2.8793    0.3462   -7.5536 H   0  0  0  0  0  0  0  0  0  0  0  0
   -2.8969   -1.2898   -5.7162 H   0  0  0  0  0  0  0  0  0  0  0  0
   -5.8968    0.9742   -3.6460 H   0  0  0  0  0  0  0  0  0  0  0  0
   -6.7663   -1.7162   -4.8079 H   0  0  0  0  0  0  0  0  0  0  0  0
   -9.1804   -1.2749   -5.0100 H   0  0  0  0  0  0  0  0  0  0  0  0
  -10.4962   -0.6515   -3.0255 H   0  0  0  0  0  0  0  0  0  0  0  0
  -10.6460   -0.6708   -0.5671 H   0  0  0  0  0  0  0  0  0  0  0  0
   -9.1784   -0.7520    0.4189 H   0  0  0  0  0  0  0  0  0  0  0  0
   -8.6029    1.5827   -0.2511 H   0  0  0  0  0  0  0  0  0  0  0  0
  -10.1928    1.5193    0.5170 H   0  0  0  0  0  0  0  0  0  0  0  0
  -10.0595    1.6631   -1.2396 H   0  0  0  0  0  0  0  0  0  0  0  0
   -6.9842   -0.8874   -0.6212 H   0  0  0  0  0  0  0  0  0  0  0  0
    4.6764   -7.9052    7.0674 H   0  0  0  0  0  0  0  0  0  0  0  0
    4.5673   -9.2773    9.1112 H   0  0  0  0  0  0  0  0  0  0  0  0
    2.6952   -9.0077   10.6860 H   0  0  0  0  0  0  0  0  0  0  0  0
    0.2725   -6.2846   10.5482 H   0  0  0  0  0  0  0  0  0  0  0  0
    0.8214   -7.6973   11.4625 H   0  0  0  0  0  0  0  0  0  0  0  0
   -0.3628   -9.1910    9.8465 H   0  0  0  0  0  0  0  0  0  0  0  0
   -1.4814   -8.0454   10.5937 H   0  0  0  0  0  0  0  0  0  0  0  0
   -0.9110   -7.7802    8.9420 H   0  0  0  0  0  0  0  0  0  0  0  0
    1.0400   -5.9682    8.1965 H   0  0  0  0  0  0  0  0  0  0  0  0
   -0.3003   -3.0750   -1.5604 H   0  0  0  0  0  0  0  0  0  0  0  0
    0.2873   -4.4023   -0.5277 H   0  0  0  0  0  0  0  0  0  0  0  0
   -1.8734   -4.6658   -2.6602 H   0  0  0  0  0  0  0  0  0  0  0  0
   -1.3447   -5.9547   -1.5742 H   0  0  0  0  0  0  0  0  0  0  0  0
   -0.2194   -5.2703   -2.7543 H   0  0  0  0  0  0  0  0  0  0  0  0
    1.8011   -2.9944    2.3721 H   0  0  0  0  0  0  0  0  0  0  0  0
    0.7530   -2.9870    0.9521 H   0  0  0  0  0  0  0  0  0  0  0  0
    2.0763   -5.0719    0.1390 H   0  0  0  0  0  0  0  0  0  0  0  0
    3.0480   -3.6025    0.2869 H   0  0  0  0  0  0  0  0  0  0  0  0
    3.1262   -4.8486    1.5302 H   0  0  0  0  0  0  0  0  0  0  0  0
    6.2544   -5.0202    4.3270 H   0  0  0  0  0  0  0  0  0  0  0  0
    6.8825   -4.7629    9.2506 H   0  0  0  0  0  0  0  0  0  0  0  0
    4.6728   -5.2549    8.3113 H   0  0  0  0  0  0  0  0  0  0  0  0
    9.4467   -4.2021    9.7040 H   0  0  0  0  0  0  0  0  0  0  0  0
   11.8177   -3.5570    9.5689 H   0  0  0  0  0  0  0  0  0  0  0  0
   11.6463   -3.6083    5.2778 H   0  0  0  0  0  0  0  0  0  0  0  0
   13.8684   -3.4998    8.2265 H   0  0  0  0  0  0  0  0  0  0  0  0
   17.5655   -0.1406    5.3400 H   0  0  0  0  0  0  0  0  0  0  0  0
  1  2  2  0  0  0  0
  2  3  1  0  0  0  0
  3  4  2  0  0  0  0
  3  5  1  0  0  0  0
  5  6  2  0  0  0  0
  6  7  1  0  0  0  0
  7  8  2  0  0  0  0
  8  9  1  0  0  0  0
  9 10  2  0  0  0  0
 10 11  1  0  0  0  0
 11 12  2  0  0  0  0
 12 13  1  0  0  0  0
 13 14  3  0  0  0  0
 12 15  1  0  0  0  0
 15 16  3  0  0  0  0
  8 17  1  0  0  0  0
 17 18  1  0  0  0  0
 18 19  1  0  0  0  0
 19 20  2  0  0  0  0
 20 21  1  0  0  0  0
 21 22  1  0  0  0  0
 21 23  1  0  0  0  0
  1 24  1  0  0  0  0
 24 25  2  0  0  0  0
 25 26  1  0  0  0  0
 26 27  1  0  0  0  0
 27 28  2  0  0  0  0
 27 29  1  0  0  0  0
 29 30  2  0  0  0  0
 30 31  1  0  0  0  0
 31 32  1  0  0  0  0
 32 33  2  0  0  0  0
 30 34  1  0  0  0  0
 34 35  2  0  0  0  0
 35 36  1  0  0  0  0
 36 37  2  0  0  0  0
 36 38  1  0  0  0  0
 38 39  2  0  0  0  0
 39 40  1  0  0  0  0
 40 41  2  0  0  0  0
 41 42  1  0  0  0  0
 42 43  2  0  0  0  0
 43 44  1  0  0  0  0
 44 45  1  0  0  0  0
 45 46  1  0  0  0  0
 44 47  2  0  0  0  0
 39 48  1  0  0  0  0
 48 49  1  0  0  0  0
 49 50  1  0  0  0  0
 50 51  1  0  0  0  0
 51 52  1  0  0  0  0
 52 53  1  0  0  0  0
 53 54  2  0  0  0  0
 54 55  1  0  0  0  0
 55 56  1  0  0  0  0
 53 57  1  0  0  0  0
 57 58  1  0  0  0  0
 58 59  1  0  0  0  0
 59 60  1  0  0  0  0
 60 61  1  0  0  0  0
 61 62  1  0  0  0  0
 62 63  2  0  0  0  0
 63 64  1  0  0  0  0
 64 65  2  0  0  0  0
 65 66  1  0  0  0  0
 66 67  1  0  0  0  0
 67 68  1  0  0  0  0
 66 69  2  0  0  0  0
 61 70  2  0  0  0  0
 70 71  1  0  0  0  0
 71 72  1  0  0  0  0
 72 73  1  0  0  0  0
 73 74  1  0  0  0  0
 74 75  1  0  0  0  0
 75 76  1  0  0  0  0
 76 77  1  0  0  0  0
 77 78  1  0  0  0  0
 78 79  1  0  0  0  0
 79 80  1  0  0  0  0
 77 81  1  0  0  0  0
 81 82  1  0  0  0  0
 74 83  1  0  0  0  0
 83 84  1  0  0  0  0
 70 85  1  0  0  0  0
 85 86  2  0  0  0  0
 86 87  1  0  0  0  0
 87 88  1  0  0  0  0
 88 89  2  0  0  0  0
 88 90  1  0  0  0  0
 90 91  2  0  0  0  0
 91 92  1  0  0  0  0
 92 93  1  0  0  0  0
 93 94  2  0  0  0  0
 91 95  1  0  0  0  0
 95 96  2  0  0  0  0
 96 97  1  0  0  0  0
 97 98  2  0  0  0  0
 97 99  1  0  0  0  0
 99100  2  0  0  0  0
100101  1  0  0  0  0
101102  2  0  0  0  0
101103  1  0  0  0  0
103104  1  0  0  0  0
104105  1  0  0  0  0
105106  1  0  0  0  0
105107  2  0  0  0  0
107108  1  0  0  0  0
108109  1  0  0  0  0
109110  2  0  0  0  0
110111  1  0  0  0  0
111112  3  0  0  0  0
110113  1  0  0  0  0
113114  3  0  0  0  0
 11  2  1  0  0  0  0
 23 17  1  0  0  0  0
 33 24  1  0  0  0  0
 80 38  1  0  0  0  0
 94 85  1  0  0  0  0
109100  1  0  0  0  0
 10  5  1  0  0  0  0
 22 18  1  0  0  0  0
 31 26  2  0  0  0  0
 47 40  1  0  0  0  0
 79 48  2  0  0  0  0
 92 87  2  0  0  0  0
108103  2  0  0  0  0
 23  7  1  0  0  0  0
 37 29  1  0  0  0  0
 78 50  2  0  0  0  0
 98 90  1  0  0  0  0
 76 51  2  0  0  0  0
 56 52  2  0  0  0  0
 75 57  2  0  0  0  0
 73 58  2  0  0  0  0
 72 60  2  0  0  0  0
 69 62  1  0  0  0  0
  1115  1  0  0  0  0
  6116  1  0  0  0  0
  9117  1  0  0  0  0
 17118  1  0  0  0  0
 18119  1  0  0  0  0
 19120  1  0  0  0  0
 20121  1  0  0  0  0
 21122  1  0  0  0  0
 22123  1  0  0  0  0
 22124  1  0  0  0  0
 23125  1  0  0  0  0
 25126  1  0  0  0  0
 32127  1  0  0  0  0
 33128  1  0  0  0  0
 34129  1  0  0  0  0
 35130  1  0  0  0  0
 37131  1  0  0  0  0
 41132  1  0  0  0  0
 42133  1  0  0  0  0
 43134  1  0  0  0  0
 45135  1  0  0  0  0
 45136  1  0  0  0  0
 46137  1  0  0  0  0
 46138  1  0  0  0  0
 46139  1  0  0  0  0
 47140  1  0  0  0  0
 63141  1  0  0  0  0
 64142  1  0  0  0  0
 65143  1  0  0  0  0
 67144  1  0  0  0  0
 67145  1  0  0  0  0
 68146  1  0  0  0  0
 68147  1  0  0  0  0
 68148  1  0  0  0  0
 69149  1  0  0  0  0
 81150  1  0  0  0  0
 81151  1  0  0  0  0
 82152  1  0  0  0  0
 82153  1  0  0  0  0
 82154  1  0  0  0  0
 83155  1  0  0  0  0
 83156  1  0  0  0  0
 84157  1  0  0  0  0
 84158  1  0  0  0  0
 84159  1  0  0  0  0
 86160  1  0  0  0  0
 93161  1  0  0  0  0
 94162  1  0  0  0  0
 95163  1  0  0  0  0
 96164  1  0  0  0  0
 98165  1  0  0  0  0
 99166  1  0  0  0  0
107167  1  0  0  0  0
M  END
