
  xtb     02212214253D
 energy: -417.713798144977 gnorm: 0.002619918406 xtb: 6.4.1 (unknown)
251281  0     0  0            999 V2000
    9.7638   -7.4188   -4.4961 C   0  0  0  0  0  0  0  0  0  0  0  0
   10.7369   -7.9492   -3.7044 C   0  0  0  0  0  0  0  0  0  0  0  0
   11.1830   -7.3831   -2.4008 C   0  0  0  0  0  0  0  0  0  0  0  0
   10.6219   -6.5511   -1.7241 O   0  0  0  0  0  0  0  0  0  0  0  0
   12.3749   -8.1612   -2.0181 C   0  0  0  0  0  0  0  0  0  0  0  0
   13.2032   -7.9296   -0.9218 C   0  0  0  0  0  0  0  0  0  0  0  0
   14.2540   -8.8085   -0.8208 C   0  0  0  0  0  0  0  0  0  0  0  0
   14.4578   -9.8520   -1.7347 C   0  0  0  0  0  0  0  0  0  0  0  0
   13.6360  -10.1045   -2.8068 C   0  0  0  0  0  0  0  0  0  0  0  0
   12.5624   -9.2157   -2.9333 C   0  0  0  0  0  0  0  0  0  0  0  0
   11.4994   -9.1635   -3.9352 C   0  0  0  0  0  0  0  0  0  0  0  0
   11.2832  -10.0974   -4.9142 C   0  0  0  0  0  0  0  0  0  0  0  0
   12.0597  -11.2606   -5.0963 C   0  0  0  0  0  0  0  0  0  0  0  0
   12.6450  -12.2262   -5.3029 N   0  0  0  0  0  0  0  0  0  0  0  0
   10.2395  -10.0549   -5.8621 C   0  0  0  0  0  0  0  0  0  0  0  0
    9.4180  -10.0941   -6.6639 N   0  0  0  0  0  0  0  0  0  0  0  0
   15.7032  -10.3316   -1.0307 C   0  0  0  0  0  0  0  0  0  0  0  0
   17.0517   -9.9574   -1.6818 C   0  0  0  0  0  0  0  0  0  0  0  0
   18.0527  -10.1243   -0.5614 C   0  0  0  0  0  0  0  0  0  0  0  0
   17.8598   -9.1358    0.3026 C   0  0  0  0  0  0  0  0  0  0  0  0
   16.7245   -8.2845   -0.2192 C   0  0  0  0  0  0  0  0  0  0  0  0
   16.9601   -8.4264   -1.7285 C   0  0  0  0  0  0  0  0  0  0  0  0
   15.4757   -9.1682   -0.0128 C   0  0  0  0  0  0  0  0  0  0  0  0
    9.2654   -6.0926   -4.3833 C   0  0  0  0  0  0  0  0  0  0  0  0
    8.0800   -5.5597   -4.8493 C   0  0  0  0  0  0  0  0  0  0  0  0
    8.0673   -4.1959   -4.4817 C   0  0  0  0  0  0  0  0  0  0  0  0
    7.1391   -3.1344   -4.6123 C   0  0  0  0  0  0  0  0  0  0  0  0
    5.8730   -3.1990   -5.2875 C   0  0  0  0  0  0  0  0  0  0  0  0
    5.3764   -4.1467   -6.1472 C   0  0  0  0  0  0  0  0  0  0  0  0
    4.0870   -3.8330   -6.6110 C   0  0  0  0  0  0  0  0  0  0  0  0
    3.2175   -4.8419   -7.7064 Cl  0  0  0  0  0  0  0  0  0  0  0  0
    3.5758   -2.6600   -6.1261 C   0  0  0  0  0  0  0  0  0  0  0  0
    2.2526   -2.0466   -6.4343 C   0  0  0  0  0  0  0  0  0  0  0  0
    1.9809   -0.7925   -5.6143 C   0  0  0  0  0  0  0  0  0  0  0  0
    4.7190   -1.9076   -5.0777 S   0  0  0  0  0  0  0  0  0  0  0  0
    7.5534   -1.9608   -3.9867 C   0  0  0  0  0  0  0  0  0  0  0  0
    8.7956   -1.7551   -3.3330 C   0  0  0  0  0  0  0  0  0  0  0  0
    9.7565   -2.7845   -3.2755 C   0  0  0  0  0  0  0  0  0  0  0  0
   11.0741   -2.6501   -2.7194 C   0  0  0  0  0  0  0  0  0  0  0  0
   12.0448   -4.0617   -2.4055 S   0  0  0  0  0  0  0  0  0  0  0  0
   13.3669   -3.1076   -1.8319 C   0  0  0  0  0  0  0  0  0  0  0  0
   14.6288   -3.7286   -1.3374 C   0  0  0  0  0  0  0  0  0  0  0  0
   15.0529   -4.9270   -2.1806 C   0  0  0  0  0  0  0  0  0  0  0  0
   13.0511   -1.7792   -1.9015 C   0  0  0  0  0  0  0  0  0  0  0  0
   11.7658   -1.5083   -2.4027 C   0  0  0  0  0  0  0  0  0  0  0  0
   14.1270   -0.5211   -1.4209 Cl  0  0  0  0  0  0  0  0  0  0  0  0
    9.3094   -3.9896   -3.8188 C   0  0  0  0  0  0  0  0  0  0  0  0
   10.0132   -5.1318   -3.7847 O   0  0  0  0  0  0  0  0  0  0  0  0
    8.7293   -0.4383   -2.8144 C   0  0  0  0  0  0  0  0  0  0  0  0
    7.5100    0.0719   -3.1817 C   0  0  0  0  0  0  0  0  0  0  0  0
    6.8007   -0.8427   -3.9009 O   0  0  0  0  0  0  0  0  0  0  0  0
    6.8395    1.2893   -2.8748 C   0  0  0  0  0  0  0  0  0  0  0  0
    7.2887    2.4257   -2.2220 C   0  0  0  0  0  0  0  0  0  0  0  0
    8.6833    2.7267   -1.8964 C   0  0  0  0  0  0  0  0  0  0  0  0
    9.6928    2.5233   -2.8357 C   0  0  0  0  0  0  0  0  0  0  0  0
   11.0018    2.8318   -2.5197 C   0  0  0  0  0  0  0  0  0  0  0  0
   11.3161    3.3583   -1.2780 C   0  0  0  0  0  0  0  0  0  0  0  0
   10.3203    3.5881   -0.3378 C   0  0  0  0  0  0  0  0  0  0  0  0
   10.6353    4.2355    0.9791 C   0  0  0  0  0  0  0  0  0  0  0  0
   10.3960    5.7440    0.8880 C   0  0  0  0  0  0  0  0  0  0  0  0
    9.0089    3.2668   -0.6573 C   0  0  0  0  0  0  0  0  0  0  0  0
    6.2134    3.2922   -1.9368 C   0  0  0  0  0  0  0  0  0  0  0  0
    6.0963    4.8044   -1.0649 S   0  0  0  0  0  0  0  0  0  0  0  0
    4.3793    4.7869   -1.2943 C   0  0  0  0  0  0  0  0  0  0  0  0
    3.2382    5.5042   -0.8855 C   0  0  0  0  0  0  0  0  0  0  0  0
    3.0569    6.7010   -0.1581 C   0  0  0  0  0  0  0  0  0  0  0  0
    1.7197    7.1449    0.1398 C   0  0  0  0  0  0  0  0  0  0  0  0
    1.7065    8.2963    0.7928 N   0  0  0  0  0  0  0  0  0  0  0  0
    3.2344    8.7797    1.0186 S   0  0  0  0  0  0  0  0  0  0  0  0
    3.9776    7.5376    0.2947 N   0  0  0  0  0  0  0  0  0  0  0  0
    0.6265    6.3123   -0.1919 C   0  0  0  0  0  0  0  0  0  0  0  0
   -0.7232    6.3229    0.2087 C   0  0  0  0  0  0  0  0  0  0  0  0
   -1.8035    7.2583    1.1915 S   0  0  0  0  0  0  0  0  0  0  0  0
   -3.0223    6.0166    1.0144 C   0  0  0  0  0  0  0  0  0  0  0  0
   -4.3053    5.8310    1.5901 C   0  0  0  0  0  0  0  0  0  0  0  0
   -4.9169    6.7829    2.5173 C   0  0  0  0  0  0  0  0  0  0  0  0
   -4.7580    8.1534    2.3209 C   0  0  0  0  0  0  0  0  0  0  0  0
   -5.3574    9.0481    3.1855 C   0  0  0  0  0  0  0  0  0  0  0  0
   -6.1196    8.5953    4.2496 C   0  0  0  0  0  0  0  0  0  0  0  0
   -6.2617    7.2341    4.4802 C   0  0  0  0  0  0  0  0  0  0  0  0
   -7.0927    6.7079    5.6161 C   0  0  0  0  0  0  0  0  0  0  0  0
   -8.3980    6.1019    5.0967 C   0  0  0  0  0  0  0  0  0  0  0  0
   -5.6442    6.3425    3.6158 C   0  0  0  0  0  0  0  0  0  0  0  0
   -4.8787    4.6614    1.1498 C   0  0  0  0  0  0  0  0  0  0  0  0
   -3.8305    3.7655    0.0499 S   0  0  0  0  0  0  0  0  0  0  0  0
   -2.6094    4.9715    0.1951 C   0  0  0  0  0  0  0  0  0  0  0  0
   -1.2919    5.1360   -0.2542 C   0  0  0  0  0  0  0  0  0  0  0  0
   -0.3706    4.4022   -0.9550 N   0  0  0  0  0  0  0  0  0  0  0  0
    0.8220    5.1082   -0.9191 C   0  0  0  0  0  0  0  0  0  0  0  0
    2.1196    4.7824   -1.3779 C   0  0  0  0  0  0  0  0  0  0  0  0
    2.5634    3.7154   -2.1386 N   0  0  0  0  0  0  0  0  0  0  0  0
    3.9333    3.6964   -2.0465 C   0  0  0  0  0  0  0  0  0  0  0  0
    4.9781    2.8392   -2.4068 C   0  0  0  0  0  0  0  0  0  0  0  0
    5.1152    1.3124   -3.1994 S   0  0  0  0  0  0  0  0  0  0  0  0
    1.8742    3.1292   -3.2686 C   0  0  0  0  0  0  0  0  0  0  0  0
    2.5517    3.4794   -4.5923 C   0  0  0  0  0  0  0  0  0  0  0  0
   -0.5753    2.9753   -1.1041 C   0  0  0  0  0  0  0  0  0  0  0  0
    0.2442    2.1795   -0.0927 C   0  0  0  0  0  0  0  0  0  0  0  0
   -6.1642    4.0394    1.3690 C   0  0  0  0  0  0  0  0  0  0  0  0
   -7.1045    3.7992    0.3821 C   0  0  0  0  0  0  0  0  0  0  0  0
   -7.0460    4.3587   -0.8781 N   0  0  0  0  0  0  0  0  0  0  0  0
   -6.4680    5.6343   -1.0376 C   0  0  0  0  0  0  0  0  0  0  0  0
   -6.8628    6.6919   -0.2271 C   0  0  0  0  0  0  0  0  0  0  0  0
   -6.2738    7.9327   -0.3730 C   0  0  0  0  0  0  0  0  0  0  0  0
   -5.2682    8.1432   -1.3071 C   0  0  0  0  0  0  0  0  0  0  0  0
   -4.5866    9.4714   -1.4301 C   0  0  0  0  0  0  0  0  0  0  0  0
   -4.8904    7.0819   -2.1230 C   0  0  0  0  0  0  0  0  0  0  0  0
   -5.4879    5.8443   -2.0035 C   0  0  0  0  0  0  0  0  0  0  0  0
   -7.5009    3.6602   -2.0028 C   0  0  0  0  0  0  0  0  0  0  0  0
   -8.0759    4.3550   -3.0645 C   0  0  0  0  0  0  0  0  0  0  0  0
   -8.5217    3.6743   -4.1784 C   0  0  0  0  0  0  0  0  0  0  0  0
   -8.4171    2.2906   -4.2659 C   0  0  0  0  0  0  0  0  0  0  0  0
   -8.9322    1.5585   -5.4672 C   0  0  0  0  0  0  0  0  0  0  0  0
   -7.8396    1.6064   -3.2044 C   0  0  0  0  0  0  0  0  0  0  0  0
   -7.3778    2.2760   -2.0880 C   0  0  0  0  0  0  0  0  0  0  0  0
   -8.1267    2.9342    0.8474 C   0  0  0  0  0  0  0  0  0  0  0  0
   -9.5830    2.3131    0.1639 S   0  0  0  0  0  0  0  0  0  0  0  0
   -9.8956    1.3643    1.6286 C   0  0  0  0  0  0  0  0  0  0  0  0
   -8.9511    1.6329    2.6407 C   0  0  0  0  0  0  0  0  0  0  0  0
   -9.0007    1.2308    3.9427 N   0  0  0  0  0  0  0  0  0  0  0  0
   -7.8071    1.1874    4.6995 C   0  0  0  0  0  0  0  0  0  0  0  0
   -6.6801    0.5378    4.2062 C   0  0  0  0  0  0  0  0  0  0  0  0
   -5.5245    0.5004    4.9607 C   0  0  0  0  0  0  0  0  0  0  0  0
   -5.4655    1.1001    6.2138 C   0  0  0  0  0  0  0  0  0  0  0  0
   -4.2000    1.0739    7.0139 C   0  0  0  0  0  0  0  0  0  0  0  0
   -6.6025    1.7351    6.6998 C   0  0  0  0  0  0  0  0  0  0  0  0
   -7.7656    1.7812    5.9559 C   0  0  0  0  0  0  0  0  0  0  0  0
  -10.1844    0.8472    4.5882 C   0  0  0  0  0  0  0  0  0  0  0  0
  -10.1743   -0.2434    5.4558 C   0  0  0  0  0  0  0  0  0  0  0  0
  -11.3417   -0.6564    6.0686 C   0  0  0  0  0  0  0  0  0  0  0  0
  -12.5416    0.0073    5.8464 C   0  0  0  0  0  0  0  0  0  0  0  0
  -13.8144   -0.4776    6.4657 C   0  0  0  0  0  0  0  0  0  0  0  0
  -12.5331    1.1244    5.0156 C   0  0  0  0  0  0  0  0  0  0  0  0
  -11.3760    1.5424    4.3917 C   0  0  0  0  0  0  0  0  0  0  0  0
   -7.9443    2.4978    2.1515 C   0  0  0  0  0  0  0  0  0  0  0  0
   -6.5335    3.1976    2.8639 S   0  0  0  0  0  0  0  0  0  0  0  0
  -10.9967    0.5029    1.6095 C   0  0  0  0  0  0  0  0  0  0  0  0
  -11.1280   -0.6350    2.3766 C   0  0  0  0  0  0  0  0  0  0  0  0
   -9.9838   -1.4093    2.8827 C   0  0  0  0  0  0  0  0  0  0  0  0
   -8.8003   -1.1551    2.7501 O   0  0  0  0  0  0  0  0  0  0  0  0
  -10.5574   -2.6367    3.4720 C   0  0  0  0  0  0  0  0  0  0  0  0
   -9.8627   -3.6785    4.0768 C   0  0  0  0  0  0  0  0  0  0  0  0
  -10.6691   -4.6794    4.5652 C   0  0  0  0  0  0  0  0  0  0  0  0
  -12.0628   -4.6555    4.4413 C   0  0  0  0  0  0  0  0  0  0  0  0
  -12.7598   -3.6376    3.8323 C   0  0  0  0  0  0  0  0  0  0  0  0
  -11.9592   -2.6025    3.3465 C   0  0  0  0  0  0  0  0  0  0  0  0
  -12.3323   -1.3507    2.6887 C   0  0  0  0  0  0  0  0  0  0  0  0
  -13.6092   -0.8617    2.5508 C   0  0  0  0  0  0  0  0  0  0  0  0
  -14.7696   -1.5333    2.9742 C   0  0  0  0  0  0  0  0  0  0  0  0
  -15.7501   -2.0283    3.3132 N   0  0  0  0  0  0  0  0  0  0  0  0
  -13.9071    0.4178    2.0426 C   0  0  0  0  0  0  0  0  0  0  0  0
  -14.2165    1.4595    1.6692 N   0  0  0  0  0  0  0  0  0  0  0  0
  -12.2299   -5.9676    5.1673 C   0  0  0  0  0  0  0  0  0  0  0  0
  -12.7052   -5.9167    6.6400 C   0  0  0  0  0  0  0  0  0  0  0  0
  -12.2679   -4.5804    7.1864 C   0  0  0  0  0  0  0  0  0  0  0  0
  -10.9473   -4.6049    7.3073 C   0  0  0  0  0  0  0  0  0  0  0  0
  -10.4682   -5.9573    6.8419 C   0  0  0  0  0  0  0  0  0  0  0  0
  -11.6522   -6.8313    7.2854 C   0  0  0  0  0  0  0  0  0  0  0  0
  -10.6753   -5.9933    5.3070 C   0  0  0  0  0  0  0  0  0  0  0  0
    9.3423   -7.9996   -5.3046 H   0  0  0  0  0  0  0  0  0  0  0  0
   13.0016   -7.1189   -0.2391 H   0  0  0  0  0  0  0  0  0  0  0  0
   13.8028  -10.9168   -3.4939 H   0  0  0  0  0  0  0  0  0  0  0  0
   15.6765  -11.3565   -0.6657 H   0  0  0  0  0  0  0  0  0  0  0  0
   17.2674  -10.4756   -2.6121 H   0  0  0  0  0  0  0  0  0  0  0  0
   18.7377  -10.9484   -0.4869 H   0  0  0  0  0  0  0  0  0  0  0  0
   18.3513   -8.9696    1.2432 H   0  0  0  0  0  0  0  0  0  0  0  0
   16.6422   -7.2789    0.1850 H   0  0  0  0  0  0  0  0  0  0  0  0
   16.1448   -8.0496   -2.3434 H   0  0  0  0  0  0  0  0  0  0  0  0
   17.8964   -7.9684   -2.0440 H   0  0  0  0  0  0  0  0  0  0  0  0
   15.2985   -9.4170    1.0318 H   0  0  0  0  0  0  0  0  0  0  0  0
    7.3141   -6.1212   -5.3420 H   0  0  0  0  0  0  0  0  0  0  0  0
    5.9110   -5.0185   -6.4687 H   0  0  0  0  0  0  0  0  0  0  0  0
    2.2185   -1.8051   -7.5019 H   0  0  0  0  0  0  0  0  0  0  0  0
    1.4706   -2.7903   -6.2527 H   0  0  0  0  0  0  0  0  0  0  0  0
    2.7406   -0.0388   -5.8097 H   0  0  0  0  0  0  0  0  0  0  0  0
    1.0067   -0.3814   -5.8675 H   0  0  0  0  0  0  0  0  0  0  0  0
    1.9974   -1.0237   -4.5516 H   0  0  0  0  0  0  0  0  0  0  0  0
   14.4883   -4.0489   -0.2997 H   0  0  0  0  0  0  0  0  0  0  0  0
   15.4131   -2.9675   -1.3432 H   0  0  0  0  0  0  0  0  0  0  0  0
   14.2859   -5.6985   -2.1557 H   0  0  0  0  0  0  0  0  0  0  0  0
   15.9816   -5.3459   -1.8013 H   0  0  0  0  0  0  0  0  0  0  0  0
   15.2046   -4.6268   -3.2151 H   0  0  0  0  0  0  0  0  0  0  0  0
   11.4026   -0.5100   -2.5491 H   0  0  0  0  0  0  0  0  0  0  0  0
    9.4462    0.0626   -2.2015 H   0  0  0  0  0  0  0  0  0  0  0  0
    9.4437    2.1345   -3.8119 H   0  0  0  0  0  0  0  0  0  0  0  0
   11.7827    2.6668   -3.2477 H   0  0  0  0  0  0  0  0  0  0  0  0
   12.3425    3.5966   -1.0398 H   0  0  0  0  0  0  0  0  0  0  0  0
   11.6767    4.0484    1.2474 H   0  0  0  0  0  0  0  0  0  0  0  0
    9.9984    3.8174    1.7610 H   0  0  0  0  0  0  0  0  0  0  0  0
   11.0273    6.1800    0.1170 H   0  0  0  0  0  0  0  0  0  0  0  0
   10.6244    6.2240    1.8364 H   0  0  0  0  0  0  0  0  0  0  0  0
    9.3578    5.9475    0.6352 H   0  0  0  0  0  0  0  0  0  0  0  0
    8.2304    3.4272    0.0740 H   0  0  0  0  0  0  0  0  0  0  0  0
   -4.1777    8.5123    1.4861 H   0  0  0  0  0  0  0  0  0  0  0  0
   -5.2335   10.1095    3.0272 H   0  0  0  0  0  0  0  0  0  0  0  0
   -6.5943    9.3042    4.9128 H   0  0  0  0  0  0  0  0  0  0  0  0
   -7.3199    7.5151    6.3149 H   0  0  0  0  0  0  0  0  0  0  0  0
   -6.5332    5.9375    6.1526 H   0  0  0  0  0  0  0  0  0  0  0  0
   -8.1902    5.2743    4.4222 H   0  0  0  0  0  0  0  0  0  0  0  0
   -8.9736    6.8504    4.5561 H   0  0  0  0  0  0  0  0  0  0  0  0
   -9.0007    5.7313    5.9228 H   0  0  0  0  0  0  0  0  0  0  0  0
   -5.7098    5.2859    3.8206 H   0  0  0  0  0  0  0  0  0  0  0  0
    0.8662    3.5409   -3.2908 H   0  0  0  0  0  0  0  0  0  0  0  0
    1.8347    2.0406   -3.1518 H   0  0  0  0  0  0  0  0  0  0  0  0
    1.9469    3.1049   -5.4139 H   0  0  0  0  0  0  0  0  0  0  0  0
    2.6474    4.5586   -4.6924 H   0  0  0  0  0  0  0  0  0  0  0  0
    3.5381    3.0320   -4.6617 H   0  0  0  0  0  0  0  0  0  0  0  0
   -1.6396    2.7986   -0.9316 H   0  0  0  0  0  0  0  0  0  0  0  0
   -0.3501    2.6424   -2.1165 H   0  0  0  0  0  0  0  0  0  0  0  0
    0.0032    2.4995    0.9185 H   0  0  0  0  0  0  0  0  0  0  0  0
    1.3091    2.3224   -0.2564 H   0  0  0  0  0  0  0  0  0  0  0  0
    0.0146    1.1219   -0.1872 H   0  0  0  0  0  0  0  0  0  0  0  0
   -7.6269    6.5371    0.5204 H   0  0  0  0  0  0  0  0  0  0  0  0
   -6.6007    8.7475    0.2559 H   0  0  0  0  0  0  0  0  0  0  0  0
   -5.0591   10.2115   -0.7890 H   0  0  0  0  0  0  0  0  0  0  0  0
   -3.5386    9.3833   -1.1430 H   0  0  0  0  0  0  0  0  0  0  0  0
   -4.6189    9.8273   -2.4588 H   0  0  0  0  0  0  0  0  0  0  0  0
   -4.1106    7.2265   -2.8569 H   0  0  0  0  0  0  0  0  0  0  0  0
   -5.1902    5.0252   -2.6421 H   0  0  0  0  0  0  0  0  0  0  0  0
   -8.1710    5.4294   -3.0068 H   0  0  0  0  0  0  0  0  0  0  0  0
   -8.9674    4.2272   -4.9929 H   0  0  0  0  0  0  0  0  0  0  0  0
   -8.8365    2.1677   -6.3632 H   0  0  0  0  0  0  0  0  0  0  0  0
   -9.9881    1.3208   -5.3341 H   0  0  0  0  0  0  0  0  0  0  0  0
   -8.3933    0.6253   -5.6145 H   0  0  0  0  0  0  0  0  0  0  0  0
   -7.7393    0.5316   -3.2538 H   0  0  0  0  0  0  0  0  0  0  0  0
   -6.9078    1.7275   -1.2849 H   0  0  0  0  0  0  0  0  0  0  0  0
   -6.7365    0.0447    3.2485 H   0  0  0  0  0  0  0  0  0  0  0  0
   -4.6548   -0.0103    4.5733 H   0  0  0  0  0  0  0  0  0  0  0  0
   -3.5647    1.9139    6.7306 H   0  0  0  0  0  0  0  0  0  0  0  0
   -3.6443    0.1572    6.8303 H   0  0  0  0  0  0  0  0  0  0  0  0
   -4.4096    1.1540    8.0778 H   0  0  0  0  0  0  0  0  0  0  0  0
   -6.5773    2.2024    7.6736 H   0  0  0  0  0  0  0  0  0  0  0  0
   -8.6447    2.2768    6.3416 H   0  0  0  0  0  0  0  0  0  0  0  0
   -9.2496   -0.7718    5.6331 H   0  0  0  0  0  0  0  0  0  0  0  0
  -11.3223   -1.5203    6.7167 H   0  0  0  0  0  0  0  0  0  0  0  0
  -14.2858   -1.2179    5.8172 H   0  0  0  0  0  0  0  0  0  0  0  0
  -14.5174    0.3406    6.6002 H   0  0  0  0  0  0  0  0  0  0  0  0
  -13.6242   -0.9458    7.4286 H   0  0  0  0  0  0  0  0  0  0  0  0
  -13.4491    1.6715    4.8471 H   0  0  0  0  0  0  0  0  0  0  0  0
  -11.3949    2.4080    3.7466 H   0  0  0  0  0  0  0  0  0  0  0  0
  -11.7737    0.7427    0.8936 H   0  0  0  0  0  0  0  0  0  0  0  0
   -8.7860   -3.6622    4.1476 H   0  0  0  0  0  0  0  0  0  0  0  0
  -13.8327   -3.6381    3.7319 H   0  0  0  0  0  0  0  0  0  0  0  0
  -12.7042   -6.7702    4.6061 H   0  0  0  0  0  0  0  0  0  0  0  0
  -13.7506   -6.1747    6.7866 H   0  0  0  0  0  0  0  0  0  0  0  0
  -12.9397   -3.7617    7.3667 H   0  0  0  0  0  0  0  0  0  0  0  0
  -10.2892   -3.8121    7.6135 H   0  0  0  0  0  0  0  0  0  0  0  0
   -9.4759   -6.2547    7.1713 H   0  0  0  0  0  0  0  0  0  0  0  0
  -11.7506   -6.8899    8.3685 H   0  0  0  0  0  0  0  0  0  0  0  0
  -11.6321   -7.8352    6.8634 H   0  0  0  0  0  0  0  0  0  0  0  0
  -10.1348   -6.8121    4.8356 H   0  0  0  0  0  0  0  0  0  0  0  0
  1  2  2  0  0  0  0
  2  3  1  0  0  0  0
  3  4  2  0  0  0  0
  3  5  1  0  0  0  0
  5  6  2  0  0  0  0
  6  7  1  0  0  0  0
  7  8  2  0  0  0  0
  8  9  1  0  0  0  0
  9 10  2  0  0  0  0
 10 11  1  0  0  0  0
 11 12  2  0  0  0  0
 12 13  1  0  0  0  0
 13 14  3  0  0  0  0
 12 15  1  0  0  0  0
 15 16  3  0  0  0  0
  8 17  1  0  0  0  0
 17 18  1  0  0  0  0
 18 19  1  0  0  0  0
 19 20  2  0  0  0  0
 20 21  1  0  0  0  0
 21 22  1  0  0  0  0
 21 23  1  0  0  0  0
  1 24  1  0  0  0  0
 24 25  2  0  0  0  0
 25 26  1  0  0  0  0
 26 27  2  0  0  0  0
 27 28  1  0  0  0  0
 28 29  2  0  0  0  0
 29 30  1  0  0  0  0
 30 31  1  0  0  0  0
 30 32  2  0  0  0  0
 32 33  1  0  0  0  0
 33 34  1  0  0  0  0
 32 35  1  0  0  0  0
 27 36  1  0  0  0  0
 36 37  2  0  0  0  0
 37 38  1  0  0  0  0
 38 39  1  0  0  0  0
 39 40  1  0  0  0  0
 40 41  1  0  0  0  0
 41 42  1  0  0  0  0
 42 43  1  0  0  0  0
 41 44  2  0  0  0  0
 44 45  1  0  0  0  0
 44 46  1  0  0  0  0
 38 47  2  0  0  0  0
 47 48  1  0  0  0  0
 37 49  1  0  0  0  0
 49 50  2  0  0  0  0
 50 51  1  0  0  0  0
 50 52  1  0  0  0  0
 52 53  2  0  0  0  0
 53 54  1  0  0  0  0
 54 55  2  0  0  0  0
 55 56  1  0  0  0  0
 56 57  2  0  0  0  0
 57 58  1  0  0  0  0
 58 59  1  0  0  0  0
 59 60  1  0  0  0  0
 58 61  2  0  0  0  0
 53 62  1  0  0  0  0
 62 63  1  0  0  0  0
 63 64  1  0  0  0  0
 64 65  1  0  0  0  0
 65 66  1  0  0  0  0
 66 67  1  0  0  0  0
 67 68  2  0  0  0  0
 68 69  1  0  0  0  0
 69 70  1  0  0  0  0
 67 71  1  0  0  0  0
 71 72  1  0  0  0  0
 72 73  1  0  0  0  0
 73 74  1  0  0  0  0
 74 75  1  0  0  0  0
 75 76  1  0  0  0  0
 76 77  2  0  0  0  0
 77 78  1  0  0  0  0
 78 79  2  0  0  0  0
 79 80  1  0  0  0  0
 80 81  1  0  0  0  0
 81 82  1  0  0  0  0
 80 83  2  0  0  0  0
 75 84  2  0  0  0  0
 84 85  1  0  0  0  0
 85 86  1  0  0  0  0
 86 87  1  0  0  0  0
 87 88  1  0  0  0  0
 88 89  1  0  0  0  0
 89 90  1  0  0  0  0
 90 91  1  0  0  0  0
 91 92  1  0  0  0  0
 92 93  1  0  0  0  0
 93 94  1  0  0  0  0
 91 95  1  0  0  0  0
 95 96  1  0  0  0  0
 88 97  1  0  0  0  0
 97 98  1  0  0  0  0
 84 99  1  0  0  0  0
 99100  2  0  0  0  0
100101  1  0  0  0  0
101102  1  0  0  0  0
102103  2  0  0  0  0
103104  1  0  0  0  0
104105  2  0  0  0  0
105106  1  0  0  0  0
105107  1  0  0  0  0
107108  2  0  0  0  0
101109  1  0  0  0  0
109110  2  0  0  0  0
110111  1  0  0  0  0
111112  2  0  0  0  0
112113  1  0  0  0  0
112114  1  0  0  0  0
114115  2  0  0  0  0
100116  1  0  0  0  0
116117  1  0  0  0  0
117118  1  0  0  0  0
118119  2  0  0  0  0
119120  1  0  0  0  0
120121  1  0  0  0  0
121122  2  0  0  0  0
122123  1  0  0  0  0
123124  2  0  0  0  0
124125  1  0  0  0  0
124126  1  0  0  0  0
126127  2  0  0  0  0
120128  1  0  0  0  0
128129  2  0  0  0  0
129130  1  0  0  0  0
130131  2  0  0  0  0
131132  1  0  0  0  0
131133  1  0  0  0  0
133134  2  0  0  0  0
119135  1  0  0  0  0
135136  1  0  0  0  0
118137  1  0  0  0  0
137138  2  0  0  0  0
138139  1  0  0  0  0
139140  2  0  0  0  0
139141  1  0  0  0  0
141142  2  0  0  0  0
142143  1  0  0  0  0
143144  2  0  0  0  0
144145  1  0  0  0  0
145146  2  0  0  0  0
146147  1  0  0  0  0
147148  2  0  0  0  0
148149  1  0  0  0  0
149150  3  0  0  0  0
148151  1  0  0  0  0
151152  3  0  0  0  0
144153  1  0  0  0  0
153154  1  0  0  0  0
154155  1  0  0  0  0
155156  2  0  0  0  0
156157  1  0  0  0  0
157158  1  0  0  0  0
157159  1  0  0  0  0
 11  2  1  0  0  0  0
 23 17  1  0  0  0  0
 48 24  1  0  0  0  0
 94 52  1  0  0  0  0
136 99  1  0  0  0  0
147138  1  0  0  0  0
159153  1  0  0  0  0
 10  5  1  0  0  0  0
 22 18  1  0  0  0  0
 47 26  1  0  0  0  0
 61 54  1  0  0  0  0
 93 62  2  0  0  0  0
108102  1  0  0  0  0
115109  1  0  0  0  0
135116  2  0  0  0  0
146141  1  0  0  0  0
158154  1  0  0  0  0
 23  7  1  0  0  0  0
 35 28  1  0  0  0  0
 51 36  1  0  0  0  0
 92 64  2  0  0  0  0
127121  1  0  0  0  0
134128  1  0  0  0  0
159143  1  0  0  0  0
 45 39  2  0  0  0  0
 90 65  2  0  0  0  0
 70 66  2  0  0  0  0
 89 71  2  0  0  0  0
 87 72  2  0  0  0  0
 86 74  2  0  0  0  0
 83 76  1  0  0  0  0
  1160  1  0  0  0  0
  6161  1  0  0  0  0
  9162  1  0  0  0  0
 17163  1  0  0  0  0
 18164  1  0  0  0  0
 19165  1  0  0  0  0
 20166  1  0  0  0  0
 21167  1  0  0  0  0
 22168  1  0  0  0  0
 22169  1  0  0  0  0
 23170  1  0  0  0  0
 25171  1  0  0  0  0
 29172  1  0  0  0  0
 33173  1  0  0  0  0
 33174  1  0  0  0  0
 34175  1  0  0  0  0
 34176  1  0  0  0  0
 34177  1  0  0  0  0
 42178  1  0  0  0  0
 42179  1  0  0  0  0
 43180  1  0  0  0  0
 43181  1  0  0  0  0
 43182  1  0  0  0  0
 45183  1  0  0  0  0
 49184  1  0  0  0  0
 55185  1  0  0  0  0
 56186  1  0  0  0  0
 57187  1  0  0  0  0
 59188  1  0  0  0  0
 59189  1  0  0  0  0
 60190  1  0  0  0  0
 60191  1  0  0  0  0
 60192  1  0  0  0  0
 61193  1  0  0  0  0
 77194  1  0  0  0  0
 78195  1  0  0  0  0
 79196  1  0  0  0  0
 81197  1  0  0  0  0
 81198  1  0  0  0  0
 82199  1  0  0  0  0
 82200  1  0  0  0  0
 82201  1  0  0  0  0
 83202  1  0  0  0  0
 95203  1  0  0  0  0
 95204  1  0  0  0  0
 96205  1  0  0  0  0
 96206  1  0  0  0  0
 96207  1  0  0  0  0
 97208  1  0  0  0  0
 97209  1  0  0  0  0
 98210  1  0  0  0  0
 98211  1  0  0  0  0
 98212  1  0  0  0  0
103213  1  0  0  0  0
104214  1  0  0  0  0
106215  1  0  0  0  0
106216  1  0  0  0  0
106217  1  0  0  0  0
107218  1  0  0  0  0
108219  1  0  0  0  0
110220  1  0  0  0  0
111221  1  0  0  0  0
113222  1  0  0  0  0
113223  1  0  0  0  0
113224  1  0  0  0  0
114225  1  0  0  0  0
115226  1  0  0  0  0
122227  1  0  0  0  0
123228  1  0  0  0  0
125229  1  0  0  0  0
125230  1  0  0  0  0
125231  1  0  0  0  0
126232  1  0  0  0  0
127233  1  0  0  0  0
129234  1  0  0  0  0
130235  1  0  0  0  0
132236  1  0  0  0  0
132237  1  0  0  0  0
132238  1  0  0  0  0
133239  1  0  0  0  0
134240  1  0  0  0  0
137241  1  0  0  0  0
142242  1  0  0  0  0
145243  1  0  0  0  0
153244  1  0  0  0  0
154245  1  0  0  0  0
155246  1  0  0  0  0
156247  1  0  0  0  0
157248  1  0  0  0  0
158249  1  0  0  0  0
158250  1  0  0  0  0
159251  1  0  0  0  0
M  END
