170

C          4.51370       -4.94880      -10.81320
C          4.51460       -5.98000       -9.93560
C          3.81750       -5.97700       -8.61460
O          3.24620       -5.05600       -8.07480
C          3.87240       -7.36780       -8.13450
C          3.33130       -7.85150       -6.94470
C          3.52370       -9.19690       -6.74920
C          4.19990      -10.00700       -7.67340
C          4.73870       -9.54310       -8.84900
C          4.55790       -8.17260       -9.06710
C          4.98830       -7.33630      -10.18130
C          5.75590       -7.74250      -11.23910
C          6.21900       -6.90460      -12.27660
N          6.64220       -6.29240      -13.15100
C          6.21190       -9.06350      -11.43740
N          6.61070      -10.11520      -11.66690
C          4.00880      -11.25040       -6.84160
C          2.91170      -12.25170       -7.28090
C          1.87750      -11.45270       -8.03470
C          1.24120      -10.68570       -7.15960
C          1.83360      -10.95210       -5.79770
C          2.18270      -12.44200       -5.94100
C          3.25950      -10.34740       -5.81160
C          4.09110       -3.60000      -10.50850
C          4.43610       -2.98400       -9.29420
C          3.93530       -1.73460       -9.02690
C          4.10650       -0.90230       -7.80650
O          4.81540       -1.11460       -6.85280
C          3.20400        0.25890       -8.03130
C          2.62040        0.16300       -9.31010
C          3.08300       -1.06920       -9.93330
C          2.80320       -1.64170      -11.16070
C          3.32580       -2.89480      -11.44260
C          1.71420        1.12370       -9.72050
C          1.36990        2.14260       -8.84530
C          1.92990        2.23370       -7.56640
C          2.87660        1.27440       -7.16870
C          1.48020        3.21600       -6.60470
C          0.87000        4.44310       -6.78050
C          0.75540        5.16420       -8.05010
C         -0.42560        5.82150       -8.38140
C         -0.51600        6.51660       -9.57300
C          0.56360        6.56680      -10.43650
C          1.75400        5.92330      -10.11770
C          2.94470        6.01440      -11.02830
C          3.81430        7.21540      -10.65210
C          1.84050        5.23180       -8.92030
C          0.42340        4.97560       -5.54910
S         -0.43770        6.43540       -5.10980
C         -0.41540        5.93370       -3.45010
C         -0.87570        6.35870       -2.18820
C         -1.52230        7.53550       -1.74970
C         -1.82750        7.68850       -0.35140
N         -2.38590        8.85790       -0.08270
S         -2.52270        9.69310       -1.46320
N         -1.87470        8.59490       -2.46040
C         -1.59160        6.60740        0.52760
C         -1.97560        6.37380        1.85960
S         -2.77610        7.19370        3.15820
C         -2.68440        5.73060        4.11160
C         -3.14430        5.39990        5.40500
C         -3.92670        6.33140        6.22140
C         -5.11390        5.92050        6.82370
C         -5.86530        6.82430        7.54910
C         -5.44610        8.13760        7.67820
C         -4.27060        8.56660        7.07530
C         -3.79210        9.97980        7.24230
C         -2.89640       10.09770        8.47720
C         -3.51950        7.65470        6.34870
C         -2.84770        4.08900        5.72450
S         -2.03360        3.25280        4.41070
C         -2.06030        4.67820        3.44070
C         -1.64620        5.04780        2.15470
N         -1.04770        4.46070        1.07110
C         -0.99100        5.40590        0.06470
C         -0.50850        5.34370       -1.26450
N          0.20980        4.36400       -1.92910
C          0.24170        4.71830       -3.25340
C          0.71950        4.17240       -4.44920
S          1.54990        2.73790       -4.91440
C          1.27050        3.53620       -1.39480
C          2.64260        4.16410       -1.64070
C         -0.94030        3.02040        0.98190
C          0.20030        2.46510        1.83490
C         -3.01810        3.36170        6.96030
C         -3.08600        1.95790        6.92870
C         -3.18190        1.26630        8.11020
C         -3.23960       -0.20270        8.33170
O         -3.23370       -1.08020        7.50230
C         -3.29200       -0.34620        9.81230
C         -3.28210        0.93440       10.40780
C         -3.21490        1.93230        9.35240
C         -3.14980        3.31400        9.38940
C         -3.04570        4.01450        8.19860
C         -3.33380        1.05280       11.78540
C         -3.34070       -0.09780       12.55670
C         -3.30840       -1.37180       11.97570
C         -3.32940       -1.48730       10.57200
C         -3.28500       -2.58360       12.75100
C         -2.64270       -2.80770       13.92760
C         -1.59030       -1.94220       14.52630
O         -1.26670       -0.81870       14.21820
C         -0.94320       -2.77990       15.56170
C          0.13480       -2.45440       16.36050
C          0.58880       -3.39920       17.27220
Cl         1.92460       -3.05960       18.29930
C         -0.05250       -4.63920       17.34900
F          0.39430       -5.54620       18.22440
C         -1.13490       -4.97250       16.55090
C         -1.58710       -4.02590       15.64310
C         -2.67880       -4.05660       14.67730
C         -3.61050       -5.05070       14.55640
C         -4.71920       -5.02150       13.68170
N         -5.65360       -5.06380       13.01640
C         -3.60460       -6.23470       15.32580
N         -3.64730       -7.21770       15.91580
H          4.80200       -5.13050      -11.84140
H          2.81880       -7.19080       -6.26310
H          5.25360      -10.17960       -9.54900
H          4.91910      -11.74950       -6.51590
H          3.28680      -13.14190       -7.77840
H          1.75710      -11.48500       -9.10170
H          0.48310       -9.94840       -7.34920
H          1.22720      -10.65920       -4.94470
H          2.82630      -12.81540       -5.14570
H          1.30050      -13.07440       -6.02790
H          3.68110      -10.25530       -4.81260
H          5.09160       -3.47020       -8.58990
H          2.18080       -1.13600      -11.88340
H          3.09740       -3.36500      -12.38860
H          1.25000        1.07220      -10.69380
H          0.62630        2.86460       -9.14490
H          3.32910        1.31950       -6.18860
H         -1.27310        5.77290       -7.71470
H         -1.43590        7.02080       -9.82960
H          0.48450        7.10990      -11.36730
H          2.61170        6.12100      -12.06260
H          3.53860        5.10100      -10.95200
H          4.16950        7.11900       -9.62860
H          3.24090        8.13650      -10.72920
H          4.67460        7.28460      -11.31370
H          2.76350        4.73570       -8.65450
H         -5.44610        4.89900        6.71050
H         -6.78740        6.50460        8.01170
H         -6.04130        8.83890        8.24510
H         -4.64760       10.64880        7.35310
H         -3.23010       10.28570        6.35810
H         -3.44110        9.79890        9.37030
H         -2.02520        9.45410        8.37630
H         -2.55730       11.12290        8.60450
H         -2.59960        7.97480        5.88100
H          1.13140        3.42820       -0.32540
H          1.22080        2.55310       -1.87370
H          2.85430        4.24070       -2.70330
H          3.41090        3.54870       -1.18070
H          2.68310        5.16040       -1.20490
H         -0.83310        2.74000       -0.06630
H         -1.88230        2.59240        1.34430
H          1.14180        2.97040        1.63140
H          0.32170        1.40440        1.63490
H         -0.02220        2.59140        2.89040
H         -3.06010        1.42610        5.98870
H         -3.16040        3.84620       10.32840
H         -2.96270        5.08980        8.22470
H         -3.36140        2.02200       12.25900
H         -3.40270       -0.01100       13.62900
H         -3.33510       -2.45860       10.09980
H         -3.79230       -3.42290       12.28870
H          0.60880       -1.48950       16.27550
H         -1.58060       -5.94810       16.65670
