236

C        -14.16520        2.11470        5.24790
C        -14.63040        2.71970        4.10450
C        -13.80480        3.21490        3.00090
O        -12.58870        3.17960        2.90720
C        -14.73460        3.77310        2.00370
C        -14.40430        4.35660        0.78370
C        -15.49010        4.77580        0.05290
C        -16.80730        4.62630        0.50480
C        -17.14550        4.05820        1.71050
C        -16.05600        3.62320        2.46940
C        -16.01740        2.97540        3.78150
C        -17.11830        2.67680        4.54620
C        -17.10310        2.05940        5.81330
N        -17.19060        1.56270        6.84660
C        -18.45020        2.94940        4.17290
N        -19.55980        3.13740        3.94240
C        -17.38990        5.24470       -0.74130
C        -18.00490        4.29250       -1.79670
C        -17.30510        2.96550       -1.63840
C        -16.05850        3.11130       -2.06690
C        -15.89260        4.54020       -2.52190
C        -17.30510        4.81840       -3.06020
C        -15.92150        5.41460       -1.24380
C        -12.86250        1.80560        5.64880
S        -11.38330        2.11870        4.74930
C        -10.47760        1.39500        6.00520
C         -9.12990        1.09030        6.27650
C         -9.02980        0.44300        7.50900
C        -10.39360        0.29530        8.14730
C        -10.39550        1.08830        9.46930
C        -11.72790        1.10540       10.20580
C        -10.81900       -1.17770        8.29940
C         -9.98730       -1.99080        9.28230
C        -11.25840        0.94350        7.08570
C        -12.59720        1.16480        6.87200
C         -7.71750        0.15190        7.85890
C         -6.81130        0.56200        6.89350
S         -7.60340        1.31870        5.52570
C         -5.39610        0.42620        6.88780
C         -4.52870        0.15860        7.93490
C         -4.87160        0.07420        9.35680
C         -5.62790        1.06650        9.97610
C         -5.89620        0.98200       11.32860
C         -5.41070       -0.07960       12.07400
C         -4.64600       -1.07150       11.47450
C         -4.05830       -2.19340       12.28030
C         -2.61660       -1.86210       12.67100
C         -4.38120       -0.98200       10.11560
C         -3.20220        0.03490        7.47680
S         -1.68720       -0.25300        8.30140
C         -0.85780       -0.11550        6.78710
C          0.45520       -0.15200        6.27890
C          1.73200       -0.19640        6.88440
C          2.90760       -0.03300        6.06430
N          4.01940       -0.01110        6.78140
S          3.63300       -0.19000        8.34300
N          2.02650       -0.29910        8.17030
C          2.77070        0.00690        4.65760
C          3.69200        0.00500        3.59240
S          5.40240        0.11450        3.31980
C          5.12040       -0.05540        1.60200
C          5.97380       -0.11870        0.48660
C          7.43700       -0.06460        0.57180
C          8.07510        1.02010        1.16200
C          9.45610        1.07650        1.17520
C         10.20430        0.06150        0.60510
C          9.58220       -1.04490        0.04150
C         10.37060       -2.14490       -0.61080
C         10.20740       -2.09710       -2.13090
C          8.19790       -1.10110        0.04320
C          5.26570       -0.30230       -0.69330
S          3.53420       -0.40770       -0.41340
C          3.77110       -0.19830        1.28070
C          2.95440       -0.15040        2.41430
N          1.61330       -0.20860        2.69410
C          1.48480       -0.08260        4.06430
C          0.33660        0.01730        4.87660
N         -0.99030        0.21980        4.54100
C         -1.71130        0.13200        5.70710
C         -3.04910        0.22720        6.10280
S         -4.56510        0.54340        5.34090
C         -1.47700        1.03330        3.44450
C         -1.72540        2.47380        3.89150
C          0.70140       -0.88400        1.79310
C          1.13040       -2.32980        1.54620
C          5.82090       -0.33490       -2.00990
C          5.41730       -1.01030       -3.15550
N          4.30220       -1.83610       -3.28870
C          4.50990       -3.04820       -3.97180
C          5.62970       -3.81770       -3.66740
C          5.89210       -4.97410       -4.37300
C          5.04530       -5.39940       -5.38830
C          5.36450       -6.62320       -6.18990
C          3.91640       -4.63960       -5.66770
C          3.64740       -3.47620       -4.97590
C          3.01410       -1.34040       -3.08950
C          1.98550       -2.20100       -2.70420
C          0.72740       -1.70330       -2.44080
C          0.44990       -0.34480       -2.55570
C         -0.92140        0.18630       -2.26470
C          1.46960        0.50200       -2.96870
C          2.73560        0.01810       -3.23620
C          6.34620       -0.83880       -4.21190
S          6.48190       -1.53720       -5.78520
C          7.97490       -0.63320       -6.06310
C          8.37940        0.09500       -4.91450
N          9.56630        0.75780       -4.76330
C          9.66070        1.76580       -3.78100
C         10.71440        1.76620       -2.87250
C         10.77680        2.72970       -1.88690
C          9.80480        3.71800       -1.78700
C          9.85290        4.73250       -0.68750
C          8.77600        3.73060       -2.72080
C          8.69920        2.76960       -3.70940
C         10.75450        0.37000       -5.41660
C         11.06830       -0.97370       -5.60770
C         12.21560       -1.32200       -6.29140
C         13.08690       -0.35250       -6.77660
C         14.29980       -0.72990       -7.56900
C         12.79170        0.98270       -6.53040
C         11.63880        1.34720       -5.86320
C          7.41590       -0.01190       -3.89690
S          7.28760        0.60370       -2.28380
C          8.64950       -0.58130       -7.28110
C          8.52020       -1.35730       -8.41060
C          7.63970       -2.51580       -8.57410
O          6.75010       -2.89250       -7.82950
C          8.04760       -3.16670       -9.83400
C          7.51390       -4.32450      -10.39250
C          8.10030       -4.69530      -11.57920
C          9.14100       -3.96630      -12.16760
C          9.67580       -2.82060      -11.62660
C          9.09500       -2.42750      -10.41860
C          9.37960       -1.27280       -9.56600
C         10.30750       -0.29500       -9.83750
C         11.21450       -0.33020      -10.91380
N         12.00910       -0.30190      -11.74360
C         10.48410        0.89250       -9.10250
N         10.67460        1.90370       -8.58860
C          9.23740       -4.90220      -13.34680
C          8.61810       -4.43930      -14.68860
C          7.51820       -3.46770      -14.34010
C          6.53120       -4.15640      -13.78280
C          6.94610       -5.60650      -13.74480
C          7.78220       -5.68270      -15.03220
C          8.07620       -5.71430      -12.69130
H        -14.91160        1.81230        5.97250
H        -13.37470        4.45040        0.47500
H        -18.16500        3.95450        2.04170
H        -17.98690        6.14280       -0.59560
H        -19.09130        4.26430       -1.80020
H        -17.75730        2.09990       -1.19070
H        -15.26060        2.39200       -2.04840
H        -15.05550        4.73860       -3.18630
H        -17.49560        5.87310       -3.25450
H        -17.54080        4.23230       -3.94730
H        -15.55860        6.42490       -1.42340
H         -9.62230        0.67150       10.11710
H        -10.10580        2.11640        9.23620
H        -11.63030        1.69290       11.11620
H        -12.50240        1.55850        9.59370
H        -12.04130        0.10300       10.48350
H        -11.86660       -1.19870        8.60290
H        -10.75640       -1.64210        7.31170
H        -10.36800       -3.00920        9.32070
H         -8.94730       -2.03090        8.97110
H        -10.03670       -1.57410       10.28440
H        -13.39620        0.88560        7.53600
H         -7.40760       -0.33780        8.76280
H         -5.99300        1.90120        9.39650
H         -6.48270        1.75270       11.80710
H         -5.62380       -0.13550       13.13180
H         -4.65120       -2.35510       13.18260
H         -4.06830       -3.11450       11.69390
H         -2.18220       -2.67610       13.24650
H         -2.01090       -1.70100       11.78220
H         -2.58700       -0.95640       13.27260
H         -3.79340       -1.75110        9.63580
H          7.48680        1.81850        1.58870
H          9.95370        1.92240        1.62600
H         11.28300        0.12420        0.60450
H         11.42750       -2.04430       -0.35750
H         10.02370       -3.11370       -0.24270
H         10.53750       -1.13410       -2.51270
H          9.16450       -2.23230       -2.41040
H         10.79710       -2.88010       -2.60270
H          7.69380       -1.95640       -0.38550
H         -0.73390        1.04460        2.64950
H         -2.40810        0.59440        3.07190
H         -2.03970        3.06980        3.03930
H         -2.50260        2.51970        4.64900
H         -0.81240        2.90100        4.30110
H          0.68130       -0.34100        0.84200
H         -0.29380       -0.89280        2.23410
H          2.09580       -2.37080        1.05080
H          1.19450       -2.86910        2.48890
H          0.39910       -2.81990        0.90980
H          6.29840       -3.49380       -2.88210
H          6.77250       -5.55380       -4.13410
H          4.45800       -7.09160       -6.56640
H          5.98230       -6.34420       -7.04410
H          5.91790       -7.34710       -5.59570
H          3.24670       -4.95150       -6.45590
H          2.78060       -2.88220       -5.22470
H          2.19100       -3.25530       -2.59440
H         -0.05530       -2.38050       -2.12950
H         -1.43830       -0.44510       -1.54520
H         -0.87000        1.20030       -1.87390
H         -1.51620        0.21010       -3.17850
H          1.27280        1.55860       -3.08090
H          3.51860        0.69110       -3.55380
H         11.47910        1.00630       -2.94040
H         11.59150        2.70980       -1.17840
H          9.26520        4.38060        0.16100
H          9.43510        5.68170       -1.01490
H         10.87370        4.89250       -0.34900
H          8.02310        4.50360       -2.67390
H          7.89870        2.79180       -4.43410
H         10.40240       -1.73860       -5.23670
H         12.43920       -2.36750       -6.44860
H         15.14930       -0.10770       -7.29620
H         14.56000       -1.77420       -7.41410
H         14.10690       -0.58050       -8.63230
H         13.45900        1.75100       -6.88980
H         11.40660        2.38870       -5.70450
H          9.42440        0.17290       -7.32070
H          6.70870       -4.85380       -9.90700
H         10.47600       -2.27040      -12.09300
H         10.19490       -5.40140      -13.48260
H          9.34080       -4.10180      -15.42670
H          7.59300       -2.40470      -14.47650
H          5.61680       -3.78350      -13.35980
H          6.14550       -6.33190      -13.62430
H          7.18320       -5.55230      -15.93220
H          8.37320       -6.59420      -15.11240
H          8.27580       -6.74440      -12.40160
