185

C         -5.76680        0.79410        9.24610
C         -5.21160        0.15440       10.30300
C         -3.74590        0.01610       10.53980
O         -2.84440        0.49270        9.88650
C         -3.61640       -0.71830       11.81060
C         -2.43000       -1.11660       12.42270
C         -2.60880       -1.78660       13.60830
C         -3.87720       -2.04160       14.14890
C         -5.05440       -1.65030       13.55920
C         -4.89550       -0.96220       12.35120
C         -5.90150       -0.39300       11.46080
C         -7.25300       -0.38750       11.68200
C         -7.88020       -0.92840       12.82480
N         -8.46180       -1.33840       13.72590
C         -8.22460        0.17550       10.82770
N         -9.08780        0.60890       10.20590
C         -3.30890       -2.74400       15.35630
C         -3.27630       -1.96380       16.69370
C         -3.21630       -0.49970       16.33500
C         -2.01670       -0.25700       15.82380
C         -1.24380       -1.55280       15.82790
C         -1.81310       -2.20330       17.09880
C         -1.89660       -2.45940       14.75470
C         -5.05760        1.21990        8.06900
C         -4.08470        0.46780        7.42290
F         -3.86130       -0.79850        7.81120
C         -3.35660        0.93900        6.34100
C         -3.57430        2.21340        5.84100
C         -4.66620        2.96080        6.36560
N         -5.04190        4.11240        5.76730
C         -6.02240        4.78520        6.28190
C         -6.69970        4.33650        7.45470
O         -7.66250        5.10520        7.94740
C         -8.37940        4.61150        9.08090
C         -9.42140        3.57650        8.68480
N         -6.39170        3.19360        8.01870
C         -5.38740        2.47160        7.48050
C         -2.73550        2.76350        4.81170
C         -2.33780        4.07480        4.63250
C         -2.62030        5.17140        5.55940
C         -2.46400        4.99740        6.93270
C         -2.74300        6.04070        7.79320
C         -3.17040        7.26060        7.29750
C         -3.30300        7.45890        5.92940
C         -3.80030        8.76740        5.38520
C         -5.31640        8.71880        5.18450
C         -3.01850        6.40930        5.06940
C         -1.53110        4.21190        3.48560
S         -0.71190        5.58150        2.77300
C         -0.06750        4.53170        1.55650
C          0.79650        4.58350        0.45270
C          1.56150        5.65550       -0.05360
C          2.46020        5.40800       -1.14080
N          3.14640        6.48570       -1.48780
S          2.69480        7.70930       -0.52730
N          1.60780        6.90980        0.36800
C          2.48370        4.12310       -1.72340
C          3.17680        3.65340       -2.84880
S          4.30290        4.22610       -4.03180
C          4.18240        2.68770       -4.85400
C          4.78790        2.17810       -6.02130
C          5.82390        2.88170       -6.77600
C          5.71650        4.24620       -7.02580
C          6.71020        4.89640       -7.73210
C          7.81380        4.19950       -8.19070
C          7.94210        2.83810       -7.94300
C          9.16030        2.08510       -8.39600
C         10.24640        2.12910       -7.31950
C          6.94650        2.19290       -7.22800
C          4.35260        0.89200       -6.28610
S          3.26700        0.27640       -5.06060
C          3.32150        1.78780       -4.22240
C          2.75400        2.34210       -3.06620
N          1.84270        1.98190       -2.11170
C          1.66600        3.05310       -1.25250
C          0.87000        3.26620       -0.09040
N          0.09460        2.44050        0.70590
C         -0.47320        3.20330        1.68910
C         -1.30230        3.01520        2.80210
S         -2.08640        1.69030        3.58430
C         -0.09560        1.01070        0.74920
C         -1.45580        0.60220        0.18170
C          1.19550        0.69840       -2.23270
C          2.08990       -0.42990       -1.71770
C          4.61880        0.07190       -7.44080
C          4.70470        0.58400       -8.72950
F          4.49800        1.89770       -8.94170
C          4.93180       -0.20180       -9.85090
C          5.04440       -1.57600       -9.74290
C          4.99940       -2.15340       -8.44450
N          5.25320       -3.47120       -8.28840
C          5.16920       -3.98080       -7.10090
C          4.81890       -3.18410       -5.97140
O          4.69900       -3.79830       -4.79810
C          4.35450       -2.99860       -3.66980
C          5.52690       -2.16380       -3.17270
N          4.65570       -1.88980       -6.08570
C          4.75280       -1.33970       -7.31320
C          5.23030       -2.41120      -10.90300
C          4.60340       -3.59660      -11.08460
C          3.39840       -4.03660      -10.32230
O          2.78490       -3.41820       -9.47980
C          3.00920       -5.33050      -10.90870
C          1.93780       -6.13090      -10.51730
C          1.78770       -7.27310      -11.26500
C          2.64000       -7.59730      -12.33040
C          3.69790       -6.81710      -12.72910
C          3.86900       -5.64710      -11.98060
C          4.86430       -4.58980      -12.11520
C          5.89710       -4.57120      -13.01360
C          6.13780       -5.56960      -13.98180
N          6.39360       -6.33670      -14.79670
C          6.87880       -3.56110      -13.10480
N          7.71810       -2.78980      -13.24390
C          1.89640       -8.87190      -12.64150
C          0.94050       -8.86980      -13.86010
C          0.49130       -7.44220      -14.05040
C         -0.31500       -7.13380      -13.04350
C         -0.42600       -8.34770      -12.15410
C         -0.31650       -9.46410      -13.20490
C          0.94710       -8.51060      -11.45580
H         -6.81130        1.07390        9.26730
H         -1.47530       -0.90210       11.96850
H         -6.02060       -1.85370       13.98950
H         -3.60730       -3.78210       15.48830
H         -4.04690       -2.25270       17.40340
H         -4.04640        0.17510       16.43310
H         -1.64410        0.66130       15.40910
H         -0.16310       -1.46740       15.75000
H         -1.53440       -1.66940       18.00600
H         -1.55740       -3.25730       17.19870
H         -1.27130       -3.31140       14.49520
H         -2.58740        0.30810        5.92170
H         -6.32610        5.69590        5.78800
H         -8.85120        5.49680        9.51270
H         -7.66860        4.18180        9.79330
H         -9.96770        3.25270        9.56500
H         -8.93950        2.70830        8.24440
H        -10.11840        3.99930        7.96530
H         -2.12410        4.04780        7.32030
H         -2.62610        5.90160        8.85830
H         -3.39500        8.06880        7.97900
H         -3.31740        8.97600        4.42870
H         -3.55380        9.57490        6.07710
H         -5.81690        8.51330        6.12870
H         -5.57740        7.93420        4.47770
H         -5.68020        9.66830        4.79840
H         -3.13190        6.54610        4.00420
H          4.84610        4.78720       -6.68840
H          6.62030        5.95410       -7.93090
H          8.58350        4.71370       -8.74830
H          8.89790        1.04500       -8.60180
H          9.54700        2.52750       -9.31600
H          9.88420        1.67870       -6.39790
H         10.52770        3.15840       -7.10830
H         11.13020        1.58700       -7.64770
H          7.04560        1.13720       -7.01310
H          0.72380        0.51590        0.23670
H         -0.05630        0.71080        1.80220
H         -1.61470        1.01750       -0.81150
H         -2.25140        0.96540        0.82650
H         -1.52460       -0.48070        0.12790
H          1.00900        0.53060       -3.29900
H          0.23370        0.71920       -1.72970
H          2.40990       -0.25060       -0.69310
H          2.97870       -0.50290       -2.33810
H          1.55790       -1.37600       -1.76140
H          4.95160        0.27810      -10.81740
H          5.39270       -5.03090       -6.98050
H          4.04300       -3.72060       -2.91140
H          3.51350       -2.35150       -3.93750
H          5.78570       -1.40840       -3.90940
H          5.25670       -1.67340       -2.24180
H          6.39150       -2.79930       -2.99720
H          5.92100       -2.04030      -11.64880
H          1.30570       -5.84200       -9.69220
H          4.34010       -7.07820      -13.55350
H          2.47520       -9.79050      -12.57010
H          1.33160       -9.37150      -14.74110
H          0.83990       -6.80540      -14.84230
H         -0.77430       -6.18750      -12.82560
H         -1.28010       -8.37410      -11.48250
H         -1.17020       -9.49160      -13.88030
H         -0.15610      -10.45150      -12.77420
H          0.90380       -9.19440      -10.61030
