
  xtb     02262206183D
 energy: -351.045664598875 gnorm: 0.000992732571 xtb: 6.4.1 (unknown)
218242  0     0  0            999 V2000
    2.7012  -11.0529    3.4389 C   0  0  0  0  0  0  0  0  0  0  0  0
    2.6156  -11.0025    4.8039 C   0  0  0  0  0  0  0  0  0  0  0  0
    2.3007   -9.8288    5.6299 C   0  0  0  0  0  0  0  0  0  0  0  0
    1.8530   -8.7547    5.2660 O   0  0  0  0  0  0  0  0  0  0  0  0
    2.6522  -10.1984    7.0123 C   0  0  0  0  0  0  0  0  0  0  0  0
    2.5886   -9.3820    8.1399 C   0  0  0  0  0  0  0  0  0  0  0  0
    2.9859  -10.0003    9.3007 C   0  0  0  0  0  0  0  0  0  0  0  0
    3.4247  -11.3305    9.3381 C   0  0  0  0  0  0  0  0  0  0  0  0
    3.4923  -12.1472    8.2342 C   0  0  0  0  0  0  0  0  0  0  0  0
    3.0821  -11.5408    7.0434 C   0  0  0  0  0  0  0  0  0  0  0  0
    2.9929  -12.0858    5.6908 C   0  0  0  0  0  0  0  0  0  0  0  0
    3.1423  -13.4029    5.3437 C   0  0  0  0  0  0  0  0  0  0  0  0
    2.8827  -13.9446    4.0650 C   0  0  0  0  0  0  0  0  0  0  0  0
    2.6433  -14.4869    3.0815 N   0  0  0  0  0  0  0  0  0  0  0  0
    3.5030  -14.4241    6.2465 C   0  0  0  0  0  0  0  0  0  0  0  0
    3.7969  -15.2995    6.9293 N   0  0  0  0  0  0  0  0  0  0  0  0
    3.6669  -11.2930   10.8266 C   0  0  0  0  0  0  0  0  0  0  0  0
    2.6091  -11.9831   11.7133 C   0  0  0  0  0  0  0  0  0  0  0  0
    2.8364  -11.3832   13.0820 C   0  0  0  0  0  0  0  0  0  0  0  0
    2.4150  -10.1256   13.0466 C   0  0  0  0  0  0  0  0  0  0  0  0
    1.8963   -9.8540   11.6528 C   0  0  0  0  0  0  0  0  0  0  0  0
    1.3309  -11.2378   11.3077 C   0  0  0  0  0  0  0  0  0  0  0  0
    3.1728   -9.8113   10.7857 C   0  0  0  0  0  0  0  0  0  0  0  0
    2.3420  -10.0941    2.4785 C   0  0  0  0  0  0  0  0  0  0  0  0
    1.4498   -8.6412    2.8089 S   0  0  0  0  0  0  0  0  0  0  0  0
    1.3360   -8.2146    1.1223 C   0  0  0  0  0  0  0  0  0  0  0  0
    1.9430   -9.2177    0.3298 C   0  0  0  0  0  0  0  0  0  0  0  0
    1.8235   -9.3450   -1.1206 C   0  0  0  0  0  0  0  0  0  0  0  0
    1.1307   -8.6024   -1.8066 O   0  0  0  0  0  0  0  0  0  0  0  0
    2.5221  -10.4884   -1.7040 C   0  0  0  0  0  0  0  0  0  0  0  0
    2.5758  -10.7687   -3.0466 C   0  0  0  0  0  0  0  0  0  0  0  0
    1.9332  -10.0549   -4.1796 C   0  0  0  0  0  0  0  0  0  0  0  0
    0.4738  -10.4918   -4.3378 C   0  0  0  0  0  0  0  0  0  0  0  0
    3.5127  -12.1964   -3.3430 S   0  0  0  0  0  0  0  0  0  0  0  0
    3.8525  -12.4158   -1.6621 C   0  0  0  0  0  0  0  0  0  0  0  0
    4.6756  -13.5449   -1.1629 C   0  0  0  0  0  0  0  0  0  0  0  0
    5.0247  -14.5621   -2.2391 C   0  0  0  0  0  0  0  0  0  0  0  0
    3.2597  -11.4246   -0.9175 C   0  0  0  0  0  0  0  0  0  0  0  0
    3.3722  -11.3107    0.5269 C   0  0  0  0  0  0  0  0  0  0  0  0
    4.1135  -12.0206    1.1912 O   0  0  0  0  0  0  0  0  0  0  0  0
    2.5494  -10.2319    1.1020 C   0  0  0  0  0  0  0  0  0  0  0  0
    0.7995   -6.9555    0.7557 C   0  0  0  0  0  0  0  0  0  0  0  0
    0.2359   -5.9801    1.6039 C   0  0  0  0  0  0  0  0  0  0  0  0
   -0.0147   -6.0971    3.0752 C   0  0  0  0  0  0  0  0  0  0  0  0
   -1.2289   -6.9640    3.4140 C   0  0  0  0  0  0  0  0  0  0  0  0
   -0.0176   -4.8010    0.9019 C   0  0  0  0  0  0  0  0  0  0  0  0
    0.3983   -4.8307   -0.4348 C   0  0  0  0  0  0  0  0  0  0  0  0
    0.9820   -6.3630   -0.9031 S   0  0  0  0  0  0  0  0  0  0  0  0
    0.1683   -3.5566   -0.9890 C   0  0  0  0  0  0  0  0  0  0  0  0
    0.3151   -3.0065   -2.2774 C   0  0  0  0  0  0  0  0  0  0  0  0
    0.7167   -3.5185   -3.4420 N   0  0  0  0  0  0  0  0  0  0  0  0
    0.5936   -2.5261   -4.2874 N   0  0  0  0  0  0  0  0  0  0  0  0
    0.8827   -2.6886   -5.6826 C   0  0  0  0  0  0  0  0  0  0  0  0
   -0.2947   -3.3415   -6.4010 C   0  0  0  0  0  0  0  0  0  0  0  0
    0.1496   -1.3924   -3.8034 N   0  0  0  0  0  0  0  0  0  0  0  0
   -0.0448   -1.6463   -2.5071 C   0  0  0  0  0  0  0  0  0  0  0  0
   -0.4146   -0.8262   -1.4222 C   0  0  0  0  0  0  0  0  0  0  0  0
   -0.5968    0.5549   -1.2766 C   0  0  0  0  0  0  0  0  0  0  0  0
   -0.6176    1.9538   -2.2645 S   0  0  0  0  0  0  0  0  0  0  0  0
   -0.8439    2.9411   -0.8277 C   0  0  0  0  0  0  0  0  0  0  0  0
   -0.8413    2.2273    0.3527 C   0  0  0  0  0  0  0  0  0  0  0  0
   -0.7675    2.9305    1.6758 C   0  0  0  0  0  0  0  0  0  0  0  0
    0.6595    3.4268    1.9270 C   0  0  0  0  0  0  0  0  0  0  0  0
   -0.7325    0.8418    0.0869 C   0  0  0  0  0  0  0  0  0  0  0  0
   -0.7059   -0.3427    0.7927 N   0  0  0  0  0  0  0  0  0  0  0  0
   -0.4767   -0.4099    2.2203 C   0  0  0  0  0  0  0  0  0  0  0  0
   -1.7264   -0.1138    3.0587 C   0  0  0  0  0  0  0  0  0  0  0  0
   -0.5135   -1.3723   -0.1163 C   0  0  0  0  0  0  0  0  0  0  0  0
   -0.3453   -2.7605    0.0609 C   0  0  0  0  0  0  0  0  0  0  0  0
   -0.5271   -3.5377    1.2114 N   0  0  0  0  0  0  0  0  0  0  0  0
   -1.8096   -3.4343    1.8912 C   0  0  0  0  0  0  0  0  0  0  0  0
   -2.8869   -4.2675    1.1962 C   0  0  0  0  0  0  0  0  0  0  0  0
   -1.0834    4.3448   -1.0139 C   0  0  0  0  0  0  0  0  0  0  0  0
   -2.1644    5.0906   -0.5693 C   0  0  0  0  0  0  0  0  0  0  0  0
   -3.2281    4.5958    0.1694 N   0  0  0  0  0  0  0  0  0  0  0  0
   -3.8505    5.4256    1.1153 C   0  0  0  0  0  0  0  0  0  0  0  0
   -3.0981    6.3058    1.8905 C   0  0  0  0  0  0  0  0  0  0  0  0
   -3.7207    7.1347    2.8016 C   0  0  0  0  0  0  0  0  0  0  0  0
   -5.0992    7.1030    2.9758 C   0  0  0  0  0  0  0  0  0  0  0  0
   -5.7593    8.0239    3.9553 C   0  0  0  0  0  0  0  0  0  0  0  0
   -5.8397    6.2104    2.2110 C   0  0  0  0  0  0  0  0  0  0  0  0
   -5.2307    5.3831    1.2884 C   0  0  0  0  0  0  0  0  0  0  0  0
   -3.6583    3.2736   -0.0099 C   0  0  0  0  0  0  0  0  0  0  0  0
   -3.6621    2.6923   -1.2769 C   0  0  0  0  0  0  0  0  0  0  0  0
   -3.9574    1.3538   -1.4276 C   0  0  0  0  0  0  0  0  0  0  0  0
   -4.2876    0.5629   -0.3325 C   0  0  0  0  0  0  0  0  0  0  0  0
   -4.5296   -0.9053   -0.5060 C   0  0  0  0  0  0  0  0  0  0  0  0
   -4.3686    1.1694    0.9132 C   0  0  0  0  0  0  0  0  0  0  0  0
   -4.0498    2.5039    1.0816 C   0  0  0  0  0  0  0  0  0  0  0  0
   -2.0698    6.4297   -1.0211 C   0  0  0  0  0  0  0  0  0  0  0  0
   -3.0163    7.8477   -0.7648 S   0  0  0  0  0  0  0  0  0  0  0  0
   -1.9479    8.7867   -1.8209 C   0  0  0  0  0  0  0  0  0  0  0  0
   -0.8565    8.0202   -2.2794 C   0  0  0  0  0  0  0  0  0  0  0  0
    0.2418    8.4734   -2.9543 N   0  0  0  0  0  0  0  0  0  0  0  0
    0.7076    9.7899   -2.8509 C   0  0  0  0  0  0  0  0  0  0  0  0
    1.2177   10.4382   -3.9751 C   0  0  0  0  0  0  0  0  0  0  0  0
    1.6378   11.7512   -3.8904 C   0  0  0  0  0  0  0  0  0  0  0  0
    1.5713   12.4507   -2.6915 C   0  0  0  0  0  0  0  0  0  0  0  0
    1.9685   13.8917   -2.6226 C   0  0  0  0  0  0  0  0  0  0  0  0
    1.1057   11.7819   -1.5636 C   0  0  0  0  0  0  0  0  0  0  0  0
    0.6789   10.4720   -1.6358 C   0  0  0  0  0  0  0  0  0  0  0  0
    0.9610    7.5713   -3.7676 C   0  0  0  0  0  0  0  0  0  0  0  0
    0.2871    6.7296   -4.6480 C   0  0  0  0  0  0  0  0  0  0  0  0
    0.9966    5.8333   -5.4203 C   0  0  0  0  0  0  0  0  0  0  0  0
    2.3834    5.7577   -5.3414 C   0  0  0  0  0  0  0  0  0  0  0  0
    3.1328    4.7550   -6.1634 C   0  0  0  0  0  0  0  0  0  0  0  0
    3.0461    6.6209   -4.4782 C   0  0  0  0  0  0  0  0  0  0  0  0
    2.3483    7.5206   -3.6951 C   0  0  0  0  0  0  0  0  0  0  0  0
   -0.9736    6.6821   -1.8344 C   0  0  0  0  0  0  0  0  0  0  0  0
   -0.0054    5.2634   -2.0478 S   0  0  0  0  0  0  0  0  0  0  0  0
   -2.2796   10.1300   -2.0127 C   0  0  0  0  0  0  0  0  0  0  0  0
   -1.8806   10.9170   -3.0724 C   0  0  0  0  0  0  0  0  0  0  0  0
   -1.5596   10.3895   -4.4072 C   0  0  0  0  0  0  0  0  0  0  0  0
   -1.5629    9.2250   -4.7626 O   0  0  0  0  0  0  0  0  0  0  0  0
   -1.3607   11.5747   -5.2692 C   0  0  0  0  0  0  0  0  0  0  0  0
   -1.0385   11.5832   -6.6219 C   0  0  0  0  0  0  0  0  0  0  0  0
   -0.8794   12.8423   -7.1516 C   0  0  0  0  0  0  0  0  0  0  0  0
   -1.0484   14.0073   -6.3950 C   0  0  0  0  0  0  0  0  0  0  0  0
   -1.3850   14.0120   -5.0614 C   0  0  0  0  0  0  0  0  0  0  0  0
   -1.5335   12.7422   -4.5016 C   0  0  0  0  0  0  0  0  0  0  0  0
   -1.8368   12.3495   -3.1263 C   0  0  0  0  0  0  0  0  0  0  0  0
   -1.8900   13.1915   -2.0405 C   0  0  0  0  0  0  0  0  0  0  0  0
   -2.0362   12.7501   -0.7114 C   0  0  0  0  0  0  0  0  0  0  0  0
   -2.1197   12.4597    0.3976 N   0  0  0  0  0  0  0  0  0  0  0  0
   -1.7204   14.5856   -2.1057 C   0  0  0  0  0  0  0  0  0  0  0  0
   -1.5754   15.7259   -2.0937 N   0  0  0  0  0  0  0  0  0  0  0  0
   -0.7179   14.9081   -7.5587 C   0  0  0  0  0  0  0  0  0  0  0  0
    0.6931   15.5455   -7.5956 C   0  0  0  0  0  0  0  0  0  0  0  0
    1.6049   14.6194   -6.8301 C   0  0  0  0  0  0  0  0  0  0  0  0
    1.7640   13.5189   -7.5532 C   0  0  0  0  0  0  0  0  0  0  0  0
    0.9594   13.6800   -8.8187 C   0  0  0  0  0  0  0  0  0  0  0  0
    1.0985   15.1951   -9.0362 C   0  0  0  0  0  0  0  0  0  0  0  0
   -0.5313   13.6090   -8.4042 C   0  0  0  0  0  0  0  0  0  0  0  0
    3.1375  -11.9473    3.0096 H   0  0  0  0  0  0  0  0  0  0  0  0
    2.2530   -8.3594    8.0655 H   0  0  0  0  0  0  0  0  0  0  0  0
    3.8394  -13.1660    8.2768 H   0  0  0  0  0  0  0  0  0  0  0  0
    4.6877  -11.4929   11.1466 H   0  0  0  0  0  0  0  0  0  0  0  0
    2.5991  -13.0676   11.6489 H   0  0  0  0  0  0  0  0  0  0  0  0
    3.3157  -11.9010   13.8920 H   0  0  0  0  0  0  0  0  0  0  0  0
    2.4720   -9.3829   13.8207 H   0  0  0  0  0  0  0  0  0  0  0  0
    1.2360   -8.9990   11.5344 H   0  0  0  0  0  0  0  0  0  0  0  0
    0.4824  -11.5039   11.9358 H   0  0  0  0  0  0  0  0  0  0  0  0
    1.0604  -11.3586   10.2604 H   0  0  0  0  0  0  0  0  0  0  0  0
    3.8625   -9.0232   11.0827 H   0  0  0  0  0  0  0  0  0  0  0  0
    2.4821  -10.2622   -5.1004 H   0  0  0  0  0  0  0  0  0  0  0  0
    1.9536   -8.9819   -3.9775 H   0  0  0  0  0  0  0  0  0  0  0  0
    0.4092  -11.5673   -4.4900 H   0  0  0  0  0  0  0  0  0  0  0  0
    0.0283   -9.9888   -5.1915 H   0  0  0  0  0  0  0  0  0  0  0  0
   -0.0871  -10.2241   -3.4466 H   0  0  0  0  0  0  0  0  0  0  0  0
    4.1373  -14.0237   -0.3384 H   0  0  0  0  0  0  0  0  0  0  0  0
    5.5886  -13.1330   -0.7195 H   0  0  0  0  0  0  0  0  0  0  0  0
    4.1211  -14.9905   -2.6679 H   0  0  0  0  0  0  0  0  0  0  0  0
    5.6191  -15.3665   -1.8141 H   0  0  0  0  0  0  0  0  0  0  0  0
    5.5966  -14.0949   -3.0388 H   0  0  0  0  0  0  0  0  0  0  0  0
   -0.1619   -5.0935    3.4772 H   0  0  0  0  0  0  0  0  0  0  0  0
    0.8670   -6.5068    3.5711 H   0  0  0  0  0  0  0  0  0  0  0  0
   -1.1670   -7.9286    2.9183 H   0  0  0  0  0  0  0  0  0  0  0  0
   -2.1502   -6.4776    3.1024 H   0  0  0  0  0  0  0  0  0  0  0  0
   -1.2714   -7.1342    4.4862 H   0  0  0  0  0  0  0  0  0  0  0  0
    1.0817   -1.6951   -6.0879 H   0  0  0  0  0  0  0  0  0  0  0  0
    1.7722   -3.3165   -5.7686 H   0  0  0  0  0  0  0  0  0  0  0  0
   -0.0602   -3.4739   -7.4533 H   0  0  0  0  0  0  0  0  0  0  0  0
   -0.5032   -4.3134   -5.9607 H   0  0  0  0  0  0  0  0  0  0  0  0
   -1.1808   -2.7172   -6.3142 H   0  0  0  0  0  0  0  0  0  0  0  0
   -1.0670    2.2713    2.4852 H   0  0  0  0  0  0  0  0  0  0  0  0
   -1.4400    3.7873    1.6778 H   0  0  0  0  0  0  0  0  0  0  0  0
    0.7193    3.9288    2.8900 H   0  0  0  0  0  0  0  0  0  0  0  0
    0.9579    4.1270    1.1502 H   0  0  0  0  0  0  0  0  0  0  0  0
    1.3641    2.5973    1.9233 H   0  0  0  0  0  0  0  0  0  0  0  0
   -0.0753   -1.3969    2.4571 H   0  0  0  0  0  0  0  0  0  0  0  0
    0.2958    0.3279    2.4622 H   0  0  0  0  0  0  0  0  0  0  0  0
   -1.4342    0.2990    4.0218 H   0  0  0  0  0  0  0  0  0  0  0  0
   -2.3171   -1.0057    3.2496 H   0  0  0  0  0  0  0  0  0  0  0  0
   -2.3607    0.6029    2.5426 H   0  0  0  0  0  0  0  0  0  0  0  0
   -1.7010   -3.7469    2.9321 H   0  0  0  0  0  0  0  0  0  0  0  0
   -2.1153   -2.3916    1.8564 H   0  0  0  0  0  0  0  0  0  0  0  0
   -2.6101   -5.3180    1.1687 H   0  0  0  0  0  0  0  0  0  0  0  0
   -3.8317   -4.1661    1.7246 H   0  0  0  0  0  0  0  0  0  0  0  0
   -3.0210   -3.9237    0.1724 H   0  0  0  0  0  0  0  0  0  0  0  0
   -2.0236    6.3356    1.7778 H   0  0  0  0  0  0  0  0  0  0  0  0
   -3.1258    7.8173    3.3906 H   0  0  0  0  0  0  0  0  0  0  0  0
   -5.2477    7.9950    4.9159 H   0  0  0  0  0  0  0  0  0  0  0  0
   -6.8017    7.7540    4.1039 H   0  0  0  0  0  0  0  0  0  0  0  0
   -5.7181    9.0494    3.5884 H   0  0  0  0  0  0  0  0  0  0  0  0
   -6.9130    6.1686    2.3292 H   0  0  0  0  0  0  0  0  0  0  0  0
   -5.8197    4.7024    0.6914 H   0  0  0  0  0  0  0  0  0  0  0  0
   -3.4137    3.2923   -2.1395 H   0  0  0  0  0  0  0  0  0  0  0  0
   -3.9225    0.9104   -2.4119 H   0  0  0  0  0  0  0  0  0  0  0  0
   -4.8369   -1.3651    0.4303 H   0  0  0  0  0  0  0  0  0  0  0  0
   -3.6166   -1.3916   -0.8518 H   0  0  0  0  0  0  0  0  0  0  0  0
   -5.3022   -1.0834   -1.2525 H   0  0  0  0  0  0  0  0  0  0  0  0
   -4.6717    0.5861    1.7718 H   0  0  0  0  0  0  0  0  0  0  0  0
   -4.0868    2.9518    2.0642 H   0  0  0  0  0  0  0  0  0  0  0  0
    1.2662    9.9087   -4.9148 H   0  0  0  0  0  0  0  0  0  0  0  0
    2.0043   12.2489   -4.7760 H   0  0  0  0  0  0  0  0  0  0  0  0
    2.2381   14.1736   -1.6075 H   0  0  0  0  0  0  0  0  0  0  0  0
    2.8092   14.0939   -3.2831 H   0  0  0  0  0  0  0  0  0  0  0  0
    1.1343   14.5225   -2.9346 H   0  0  0  0  0  0  0  0  0  0  0  0
    1.0673   12.2965   -0.6145 H   0  0  0  0  0  0  0  0  0  0  0  0
    0.3163    9.9754   -0.7482 H   0  0  0  0  0  0  0  0  0  0  0  0
   -0.7853    6.8089   -4.7320 H   0  0  0  0  0  0  0  0  0  0  0  0
    0.4672    5.1809   -6.0991 H   0  0  0  0  0  0  0  0  0  0  0  0
    2.7819    4.7622   -7.1936 H   0  0  0  0  0  0  0  0  0  0  0  0
    2.9704    3.7540   -5.7637 H   0  0  0  0  0  0  0  0  0  0  0  0
    4.2004    4.9596   -6.1532 H   0  0  0  0  0  0  0  0  0  0  0  0
    4.1238    6.5846   -4.4089 H   0  0  0  0  0  0  0  0  0  0  0  0
    2.8730    8.1816   -3.0204 H   0  0  0  0  0  0  0  0  0  0  0  0
   -2.9363   10.5609   -1.2662 H   0  0  0  0  0  0  0  0  0  0  0  0
   -0.9203   10.6616   -7.1706 H   0  0  0  0  0  0  0  0  0  0  0  0
   -1.5284   14.9173   -4.4948 H   0  0  0  0  0  0  0  0  0  0  0  0
   -1.4953   15.6067   -7.8619 H   0  0  0  0  0  0  0  0  0  0  0  0
    0.7231   16.5928   -7.3068 H   0  0  0  0  0  0  0  0  0  0  0  0
    1.9814   14.8328   -5.8467 H   0  0  0  0  0  0  0  0  0  0  0  0
    2.3034   12.6242   -7.3005 H   0  0  0  0  0  0  0  0  0  0  0  0
    1.2305   13.0287   -9.6458 H   0  0  0  0  0  0  0  0  0  0  0  0
    0.4153   15.5900   -9.7870 H   0  0  0  0  0  0  0  0  0  0  0  0
    2.1183   15.4955   -9.2729 H   0  0  0  0  0  0  0  0  0  0  0  0
   -1.1915   13.4576   -9.2562 H   0  0  0  0  0  0  0  0  0  0  0  0
  1  2  2  0  0  0  0
  2  3  1  0  0  0  0
  3  4  2  0  0  0  0
  3  5  1  0  0  0  0
  5  6  2  0  0  0  0
  6  7  1  0  0  0  0
  7  8  2  0  0  0  0
  8  9  1  0  0  0  0
  9 10  2  0  0  0  0
 10 11  1  0  0  0  0
 11 12  2  0  0  0  0
 12 13  1  0  0  0  0
 13 14  3  0  0  0  0
 12 15  1  0  0  0  0
 15 16  3  0  0  0  0
  8 17  1  0  0  0  0
 17 18  1  0  0  0  0
 18 19  1  0  0  0  0
 19 20  2  0  0  0  0
 20 21  1  0  0  0  0
 21 22  1  0  0  0  0
 21 23  1  0  0  0  0
  1 24  1  0  0  0  0
 24 25  1  0  0  0  0
 25 26  1  0  0  0  0
 26 27  2  0  0  0  0
 27 28  1  0  0  0  0
 28 29  2  0  0  0  0
 28 30  1  0  0  0  0
 30 31  2  0  0  0  0
 31 32  1  0  0  0  0
 32 33  1  0  0  0  0
 31 34  1  0  0  0  0
 34 35  1  0  0  0  0
 35 36  1  0  0  0  0
 36 37  1  0  0  0  0
 35 38  2  0  0  0  0
 38 39  1  0  0  0  0
 39 40  2  0  0  0  0
 39 41  1  0  0  0  0
 26 42  1  0  0  0  0
 42 43  2  0  0  0  0
 43 44  1  0  0  0  0
 44 45  1  0  0  0  0
 43 46  1  0  0  0  0
 46 47  2  0  0  0  0
 47 48  1  0  0  0  0
 47 49  1  0  0  0  0
 49 50  1  0  0  0  0
 50 51  2  0  0  0  0
 51 52  1  0  0  0  0
 52 53  1  0  0  0  0
 53 54  1  0  0  0  0
 52 55  1  0  0  0  0
 55 56  2  0  0  0  0
 56 57  1  0  0  0  0
 57 58  1  0  0  0  0
 58 59  1  0  0  0  0
 59 60  1  0  0  0  0
 60 61  2  0  0  0  0
 61 62  1  0  0  0  0
 62 63  1  0  0  0  0
 61 64  1  0  0  0  0
 64 65  1  0  0  0  0
 65 66  1  0  0  0  0
 66 67  1  0  0  0  0
 65 68  1  0  0  0  0
 68 69  1  0  0  0  0
 69 70  1  0  0  0  0
 70 71  1  0  0  0  0
 71 72  1  0  0  0  0
 60 73  1  0  0  0  0
 73 74  2  0  0  0  0
 74 75  1  0  0  0  0
 75 76  1  0  0  0  0
 76 77  2  0  0  0  0
 77 78  1  0  0  0  0
 78 79  2  0  0  0  0
 79 80  1  0  0  0  0
 79 81  1  0  0  0  0
 81 82  2  0  0  0  0
 75 83  1  0  0  0  0
 83 84  2  0  0  0  0
 84 85  1  0  0  0  0
 85 86  2  0  0  0  0
 86 87  1  0  0  0  0
 86 88  1  0  0  0  0
 88 89  2  0  0  0  0
 74 90  1  0  0  0  0
 90 91  1  0  0  0  0
 91 92  1  0  0  0  0
 92 93  2  0  0  0  0
 93 94  1  0  0  0  0
 94 95  1  0  0  0  0
 95 96  2  0  0  0  0
 96 97  1  0  0  0  0
 97 98  2  0  0  0  0
 98 99  1  0  0  0  0
 98100  1  0  0  0  0
100101  2  0  0  0  0
 94102  1  0  0  0  0
102103  2  0  0  0  0
103104  1  0  0  0  0
104105  2  0  0  0  0
105106  1  0  0  0  0
105107  1  0  0  0  0
107108  2  0  0  0  0
 93109  1  0  0  0  0
109110  1  0  0  0  0
 92111  1  0  0  0  0
111112  2  0  0  0  0
112113  1  0  0  0  0
113114  2  0  0  0  0
113115  1  0  0  0  0
115116  2  0  0  0  0
116117  1  0  0  0  0
117118  2  0  0  0  0
118119  1  0  0  0  0
119120  2  0  0  0  0
120121  1  0  0  0  0
121122  2  0  0  0  0
122123  1  0  0  0  0
123124  3  0  0  0  0
122125  1  0  0  0  0
125126  3  0  0  0  0
118127  1  0  0  0  0
127128  1  0  0  0  0
128129  1  0  0  0  0
129130  2  0  0  0  0
130131  1  0  0  0  0
131132  1  0  0  0  0
131133  1  0  0  0  0
 11  2  1  0  0  0  0
 23 17  1  0  0  0  0
 41 24  2  0  0  0  0
 48 42  1  0  0  0  0
 69 49  2  0  0  0  0
110 73  1  0  0  0  0
121112  1  0  0  0  0
133127  1  0  0  0  0
 10  5  1  0  0  0  0
 22 18  1  0  0  0  0
 41 27  1  0  0  0  0
 70 46  1  0  0  0  0
 82 76  1  0  0  0  0
 89 83  1  0  0  0  0
109 90  2  0  0  0  0
120115  1  0  0  0  0
132128  1  0  0  0  0
 23  7  1  0  0  0  0
 38 30  1  0  0  0  0
 56 50  1  0  0  0  0
 68 57  2  0  0  0  0
101 95  1  0  0  0  0
108102  1  0  0  0  0
133117  1  0  0  0  0
 64 58  2  0  0  0  0
  1134  1  0  0  0  0
  6135  1  0  0  0  0
  9136  1  0  0  0  0
 17137  1  0  0  0  0
 18138  1  0  0  0  0
 19139  1  0  0  0  0
 20140  1  0  0  0  0
 21141  1  0  0  0  0
 22142  1  0  0  0  0
 22143  1  0  0  0  0
 23144  1  0  0  0  0
 32145  1  0  0  0  0
 32146  1  0  0  0  0
 33147  1  0  0  0  0
 33148  1  0  0  0  0
 33149  1  0  0  0  0
 36150  1  0  0  0  0
 36151  1  0  0  0  0
 37152  1  0  0  0  0
 37153  1  0  0  0  0
 37154  1  0  0  0  0
 44155  1  0  0  0  0
 44156  1  0  0  0  0
 45157  1  0  0  0  0
 45158  1  0  0  0  0
 45159  1  0  0  0  0
 53160  1  0  0  0  0
 53161  1  0  0  0  0
 54162  1  0  0  0  0
 54163  1  0  0  0  0
 54164  1  0  0  0  0
 62165  1  0  0  0  0
 62166  1  0  0  0  0
 63167  1  0  0  0  0
 63168  1  0  0  0  0
 63169  1  0  0  0  0
 66170  1  0  0  0  0
 66171  1  0  0  0  0
 67172  1  0  0  0  0
 67173  1  0  0  0  0
 67174  1  0  0  0  0
 71175  1  0  0  0  0
 71176  1  0  0  0  0
 72177  1  0  0  0  0
 72178  1  0  0  0  0
 72179  1  0  0  0  0
 77180  1  0  0  0  0
 78181  1  0  0  0  0
 80182  1  0  0  0  0
 80183  1  0  0  0  0
 80184  1  0  0  0  0
 81185  1  0  0  0  0
 82186  1  0  0  0  0
 84187  1  0  0  0  0
 85188  1  0  0  0  0
 87189  1  0  0  0  0
 87190  1  0  0  0  0
 87191  1  0  0  0  0
 88192  1  0  0  0  0
 89193  1  0  0  0  0
 96194  1  0  0  0  0
 97195  1  0  0  0  0
 99196  1  0  0  0  0
 99197  1  0  0  0  0
 99198  1  0  0  0  0
100199  1  0  0  0  0
101200  1  0  0  0  0
103201  1  0  0  0  0
104202  1  0  0  0  0
106203  1  0  0  0  0
106204  1  0  0  0  0
106205  1  0  0  0  0
107206  1  0  0  0  0
108207  1  0  0  0  0
111208  1  0  0  0  0
116209  1  0  0  0  0
119210  1  0  0  0  0
127211  1  0  0  0  0
128212  1  0  0  0  0
129213  1  0  0  0  0
130214  1  0  0  0  0
131215  1  0  0  0  0
132216  1  0  0  0  0
132217  1  0  0  0  0
133218  1  0  0  0  0
M  END
