
  xtb     02122221283D
 energy: -302.967873624493 gnorm: 0.000631535945 xtb: 6.4.1 (unknown)
165188  0     0  0            999 V2000
   -7.2865    4.0941    2.9214 C   0  0  0  0  0  0  0  0  0  0  0  0
   -7.3011    2.8422    2.4056 C   0  0  0  0  0  0  0  0  0  0  0  0
   -6.0788    2.1500    1.9029 C   0  0  0  0  0  0  0  0  0  0  0  0
   -4.9708    2.6143    1.7362 O   0  0  0  0  0  0  0  0  0  0  0  0
   -6.4571    0.7360    1.7594 C   0  0  0  0  0  0  0  0  0  0  0  0
   -5.6091   -0.3134    1.4080 C   0  0  0  0  0  0  0  0  0  0  0  0
   -6.2200   -1.5426    1.3849 C   0  0  0  0  0  0  0  0  0  0  0  0
   -7.5787   -1.7195    1.6843 C   0  0  0  0  0  0  0  0  0  0  0  0
   -8.4226   -0.6961    2.0455 C   0  0  0  0  0  0  0  0  0  0  0  0
   -7.8191    0.5667    2.0816 C   0  0  0  0  0  0  0  0  0  0  0  0
   -8.3781    1.8654    2.4422 C   0  0  0  0  0  0  0  0  0  0  0  0
   -9.6940    2.1413    2.6919 C   0  0  0  0  0  0  0  0  0  0  0  0
  -10.1959    3.4322    2.9673 C   0  0  0  0  0  0  0  0  0  0  0  0
  -10.6739    4.4540    3.1777 N   0  0  0  0  0  0  0  0  0  0  0  0
  -10.7282    1.1816    2.6718 C   0  0  0  0  0  0  0  0  0  0  0  0
  -11.6105    0.4474    2.6702 N   0  0  0  0  0  0  0  0  0  0  0  0
   -7.5105   -3.2122    1.4705 C   0  0  0  0  0  0  0  0  0  0  0  0
   -8.0698   -3.7556    0.1377 C   0  0  0  0  0  0  0  0  0  0  0  0
   -7.4452   -5.1279    0.0213 C   0  0  0  0  0  0  0  0  0  0  0  0
   -6.1555   -4.9645   -0.2458 C   0  0  0  0  0  0  0  0  0  0  0  0
   -5.8879   -3.4787   -0.3177 C   0  0  0  0  0  0  0  0  0  0  0  0
   -7.2250   -2.9936   -0.8916 C   0  0  0  0  0  0  0  0  0  0  0  0
   -5.9941   -3.0148    1.1495 C   0  0  0  0  0  0  0  0  0  0  0  0
   -6.1611    4.9727    2.7020 C   0  0  0  0  0  0  0  0  0  0  0  0
   -5.4727    5.6065    3.7204 C   0  0  0  0  0  0  0  0  0  0  0  0
   -5.9316    5.5013    4.9780 F   0  0  0  0  0  0  0  0  0  0  0  0
   -4.2222    6.2231    3.5425 C   0  0  0  0  0  0  0  0  0  0  0  0
   -3.5894    6.6160    4.6609 F   0  0  0  0  0  0  0  0  0  0  0  0
   -3.5912    6.3036    2.3072 C   0  0  0  0  0  0  0  0  0  0  0  0
   -4.3647    5.8140    1.2151 C   0  0  0  0  0  0  0  0  0  0  0  0
   -5.6206    5.1501    1.4047 C   0  0  0  0  0  0  0  0  0  0  0  0
   -6.1613    4.7587    0.2557 N   0  0  0  0  0  0  0  0  0  0  0  0
   -5.1720    5.1650   -0.9442 S   0  0  0  0  0  0  0  0  0  0  0  0
   -4.0224    5.8686   -0.0678 N   0  0  0  0  0  0  0  0  0  0  0  0
   -2.2065    6.6100    2.0918 C   0  0  0  0  0  0  0  0  0  0  0  0
   -1.2889    7.3448    2.8341 C   0  0  0  0  0  0  0  0  0  0  0  0
   -1.6446    8.3558    3.8244 C   0  0  0  0  0  0  0  0  0  0  0  0
   -0.8647    8.5481    4.9615 C   0  0  0  0  0  0  0  0  0  0  0  0
   -1.2134    9.5207    5.8785 C   0  0  0  0  0  0  0  0  0  0  0  0
   -2.3313   10.3091    5.6717 C   0  0  0  0  0  0  0  0  0  0  0  0
   -3.1179   10.1373    4.5386 C   0  0  0  0  0  0  0  0  0  0  0  0
   -4.3047   11.0233    4.2894 C   0  0  0  0  0  0  0  0  0  0  0  0
   -3.8805   12.2870    3.5386 C   0  0  0  0  0  0  0  0  0  0  0  0
   -2.7614    9.1644    3.6200 C   0  0  0  0  0  0  0  0  0  0  0  0
    0.0323    7.0482    2.4342 C   0  0  0  0  0  0  0  0  0  0  0  0
    1.6186    7.4952    3.0356 S   0  0  0  0  0  0  0  0  0  0  0  0
    2.3527    6.3973    1.9086 C   0  0  0  0  0  0  0  0  0  0  0  0
    3.5980    5.7927    1.6383 C   0  0  0  0  0  0  0  0  0  0  0  0
    4.8521    5.8067    2.2957 C   0  0  0  0  0  0  0  0  0  0  0  0
    5.8254    4.7829    1.9916 C   0  0  0  0  0  0  0  0  0  0  0  0
    6.8928    4.8621    2.7690 N   0  0  0  0  0  0  0  0  0  0  0  0
    6.7089    6.1114    3.7808 S   0  0  0  0  0  0  0  0  0  0  0  0
    5.2511    6.5994    3.2765 N   0  0  0  0  0  0  0  0  0  0  0  0
    5.5748    3.8710    0.9390 C   0  0  0  0  0  0  0  0  0  0  0  0
    6.2451    2.7430    0.4199 C   0  0  0  0  0  0  0  0  0  0  0  0
    7.5588    1.6780    0.8105 S   0  0  0  0  0  0  0  0  0  0  0  0
    7.0464    0.5839   -0.4605 C   0  0  0  0  0  0  0  0  0  0  0  0
    7.4186   -0.7240   -0.8375 C   0  0  0  0  0  0  0  0  0  0  0  0
    8.5810   -1.4454   -0.3314 C   0  0  0  0  0  0  0  0  0  0  0  0
    8.9863   -1.3167    0.9947 C   0  0  0  0  0  0  0  0  0  0  0  0
   10.0879   -2.0157    1.4477 C   0  0  0  0  0  0  0  0  0  0  0  0
   10.7918   -2.8462    0.5929 C   0  0  0  0  0  0  0  0  0  0  0  0
   10.4106   -2.9774   -0.7367 C   0  0  0  0  0  0  0  0  0  0  0  0
   11.1312   -3.9150   -1.6624 C   0  0  0  0  0  0  0  0  0  0  0  0
   10.3688   -5.2371   -1.7728 C   0  0  0  0  0  0  0  0  0  0  0  0
    9.3111   -2.2663   -1.1885 C   0  0  0  0  0  0  0  0  0  0  0  0
    6.5681   -1.2136   -1.8221 C   0  0  0  0  0  0  0  0  0  0  0  0
    5.4102   -0.0184   -2.3872 S   0  0  0  0  0  0  0  0  0  0  0  0
    5.9598    1.0825   -1.1852 C   0  0  0  0  0  0  0  0  0  0  0  0
    5.5052    2.3015   -0.6831 C   0  0  0  0  0  0  0  0  0  0  0  0
    4.4101    3.1028   -0.8802 N   0  0  0  0  0  0  0  0  0  0  0  0
    4.4049    4.0221    0.1497 C   0  0  0  0  0  0  0  0  0  0  0  0
    3.3620    4.8540    0.6001 C   0  0  0  0  0  0  0  0  0  0  0  0
    2.0230    4.8572    0.2598 N   0  0  0  0  0  0  0  0  0  0  0  0
    1.4164    5.7776    1.0742 C   0  0  0  0  0  0  0  0  0  0  0  0
    0.1026    6.1376    1.3768 C   0  0  0  0  0  0  0  0  0  0  0  0
   -1.4520    5.6663    0.8152 S   0  0  0  0  0  0  0  0  0  0  0  0
    1.2394    3.7373   -0.2218 C   0  0  0  0  0  0  0  0  0  0  0  0
    0.9015    2.7757    0.9166 C   0  0  0  0  0  0  0  0  0  0  0  0
    3.8532    3.2953   -2.2040 C   0  0  0  0  0  0  0  0  0  0  0  0
    4.9441    3.6395   -3.2176 C   0  0  0  0  0  0  0  0  0  0  0  0
    6.3110   -2.5501   -2.2744 C   0  0  0  0  0  0  0  0  0  0  0  0
    6.4085   -3.6924   -1.4881 C   0  0  0  0  0  0  0  0  0  0  0  0
    6.9343   -3.6285   -0.2532 F   0  0  0  0  0  0  0  0  0  0  0  0
    5.8472   -4.9221   -1.8644 C   0  0  0  0  0  0  0  0  0  0  0  0
    5.9166   -5.9257   -0.9749 F   0  0  0  0  0  0  0  0  0  0  0  0
    5.1007   -5.1014   -3.0184 C   0  0  0  0  0  0  0  0  0  0  0  0
    5.1051   -4.0045   -3.9156 C   0  0  0  0  0  0  0  0  0  0  0  0
    5.6982   -2.7530   -3.5433 C   0  0  0  0  0  0  0  0  0  0  0  0
    5.5842   -1.8431   -4.5058 N   0  0  0  0  0  0  0  0  0  0  0  0
    4.8242   -2.5054   -5.7577 S   0  0  0  0  0  0  0  0  0  0  0  0
    4.6049   -3.9744   -5.1464 N   0  0  0  0  0  0  0  0  0  0  0  0
    4.3079   -6.2816   -3.2479 C   0  0  0  0  0  0  0  0  0  0  0  0
    3.0215   -6.2220   -3.6712 C   0  0  0  0  0  0  0  0  0  0  0  0
    2.1920   -4.9834   -3.6566 C   0  0  0  0  0  0  0  0  0  0  0  0
    2.5264   -3.8635   -3.3315 O   0  0  0  0  0  0  0  0  0  0  0  0
    0.8248   -5.4149   -3.9876 C   0  0  0  0  0  0  0  0  0  0  0  0
   -0.2983   -4.5965   -4.0924 C   0  0  0  0  0  0  0  0  0  0  0  0
   -1.4596   -5.2720   -4.3759 C   0  0  0  0  0  0  0  0  0  0  0  0
   -1.5065   -6.6656   -4.5250 C   0  0  0  0  0  0  0  0  0  0  0  0
   -0.4055   -7.4834   -4.4326 C   0  0  0  0  0  0  0  0  0  0  0  0
    0.7924   -6.8136   -4.1598 C   0  0  0  0  0  0  0  0  0  0  0  0
    2.1474   -7.3350   -4.0087 C   0  0  0  0  0  0  0  0  0  0  0  0
    2.5406   -8.6278   -4.2222 C   0  0  0  0  0  0  0  0  0  0  0  0
    3.8756   -9.0837   -4.1595 C   0  0  0  0  0  0  0  0  0  0  0  0
    4.9344   -9.5268   -4.1475 N   0  0  0  0  0  0  0  0  0  0  0  0
    1.6676   -9.6825   -4.5644 C   0  0  0  0  0  0  0  0  0  0  0  0
    1.0129  -10.5845   -4.8388 N   0  0  0  0  0  0  0  0  0  0  0  0
   -2.9945   -6.6668   -4.7715 C   0  0  0  0  0  0  0  0  0  0  0  0
   -3.9273   -7.0816   -3.6055 C   0  0  0  0  0  0  0  0  0  0  0  0
   -3.1965   -6.7532   -2.3278 C   0  0  0  0  0  0  0  0  0  0  0  0
   -3.1572   -5.4326   -2.2101 C   0  0  0  0  0  0  0  0  0  0  0  0
   -3.8579   -4.8441   -3.4095 C   0  0  0  0  0  0  0  0  0  0  0  0
   -4.9308   -5.9175   -3.6522 C   0  0  0  0  0  0  0  0  0  0  0  0
   -2.9387   -5.1134   -4.6261 C   0  0  0  0  0  0  0  0  0  0  0  0
   -8.0859    4.4501    3.5578 H   0  0  0  0  0  0  0  0  0  0  0  0
   -4.5679   -0.1329    1.1906 H   0  0  0  0  0  0  0  0  0  0  0  0
   -9.4584   -0.8498    2.2990 H   0  0  0  0  0  0  0  0  0  0  0  0
   -7.7875   -3.8246    2.3264 H   0  0  0  0  0  0  0  0  0  0  0  0
   -9.1504   -3.6992    0.0408 H   0  0  0  0  0  0  0  0  0  0  0  0
   -7.9764   -6.0447    0.1976 H   0  0  0  0  0  0  0  0  0  0  0  0
   -5.3897   -5.7133   -0.3329 H   0  0  0  0  0  0  0  0  0  0  0  0
   -4.9795   -3.1709   -0.8277 H   0  0  0  0  0  0  0  0  0  0  0  0
   -7.3924   -3.3514   -1.9064 H   0  0  0  0  0  0  0  0  0  0  0  0
   -7.3561   -1.9135   -0.8596 H   0  0  0  0  0  0  0  0  0  0  0  0
   -5.2601   -3.4880    1.7991 H   0  0  0  0  0  0  0  0  0  0  0  0
   -0.0055    7.9198    5.1377 H   0  0  0  0  0  0  0  0  0  0  0  0
   -0.6119    9.6602    6.7644 H   0  0  0  0  0  0  0  0  0  0  0  0
   -2.6009   11.0633    6.3969 H   0  0  0  0  0  0  0  0  0  0  0  0
   -4.7596   11.3052    5.2409 H   0  0  0  0  0  0  0  0  0  0  0  0
   -5.0514   10.4871    3.7001 H   0  0  0  0  0  0  0  0  0  0  0  0
   -3.4395   12.0270    2.5788 H   0  0  0  0  0  0  0  0  0  0  0  0
   -4.7384   12.9320    3.3640 H   0  0  0  0  0  0  0  0  0  0  0  0
   -3.1418   12.8392    4.1152 H   0  0  0  0  0  0  0  0  0  0  0  0
   -3.3551    9.0316    2.7255 H   0  0  0  0  0  0  0  0  0  0  0  0
    8.4244   -0.6924    1.6716 H   0  0  0  0  0  0  0  0  0  0  0  0
   10.3953   -1.9191    2.4783 H   0  0  0  0  0  0  0  0  0  0  0  0
   11.6461   -3.3970    0.9592 H   0  0  0  0  0  0  0  0  0  0  0  0
   12.1373   -4.1087   -1.2863 H   0  0  0  0  0  0  0  0  0  0  0  0
   11.2173   -3.4650   -2.6541 H   0  0  0  0  0  0  0  0  0  0  0  0
   10.8961   -5.9289   -2.4255 H   0  0  0  0  0  0  0  0  0  0  0  0
   10.2629   -5.6950   -0.7921 H   0  0  0  0  0  0  0  0  0  0  0  0
    9.3732   -5.0695   -2.1784 H   0  0  0  0  0  0  0  0  0  0  0  0
    9.0176   -2.3435   -2.2268 H   0  0  0  0  0  0  0  0  0  0  0  0
    0.3204    4.1442   -0.6525 H   0  0  0  0  0  0  0  0  0  0  0  0
    1.7811    3.1952   -0.9903 H   0  0  0  0  0  0  0  0  0  0  0  0
    0.3151    1.9460    0.5326 H   0  0  0  0  0  0  0  0  0  0  0  0
    1.8144    2.3844    1.3611 H   0  0  0  0  0  0  0  0  0  0  0  0
    0.3249    3.2787    1.6885 H   0  0  0  0  0  0  0  0  0  0  0  0
    3.3440    2.3773   -2.5173 H   0  0  0  0  0  0  0  0  0  0  0  0
    3.1442    4.1230   -2.1643 H   0  0  0  0  0  0  0  0  0  0  0  0
    5.6340    2.8096   -3.3416 H   0  0  0  0  0  0  0  0  0  0  0  0
    5.5013    4.5143   -2.8894 H   0  0  0  0  0  0  0  0  0  0  0  0
    4.4890    3.8558   -4.1801 H   0  0  0  0  0  0  0  0  0  0  0  0
    4.7635   -7.2310   -2.9971 H   0  0  0  0  0  0  0  0  0  0  0  0
   -0.2177   -3.5289   -3.9592 H   0  0  0  0  0  0  0  0  0  0  0  0
   -0.4572   -8.5524   -4.5550 H   0  0  0  0  0  0  0  0  0  0  0  0
   -3.3192   -7.0805   -5.7240 H   0  0  0  0  0  0  0  0  0  0  0  0
   -4.3250   -8.0897   -3.6843 H   0  0  0  0  0  0  0  0  0  0  0  0
   -2.7465   -7.4909   -1.6892 H   0  0  0  0  0  0  0  0  0  0  0  0
   -2.6650   -4.8478   -1.4548 H   0  0  0  0  0  0  0  0  0  0  0  0
   -4.1940   -3.8146   -3.3166 H   0  0  0  0  0  0  0  0  0  0  0  0
   -5.4325   -5.8178   -4.6136 H   0  0  0  0  0  0  0  0  0  0  0  0
   -5.6710   -5.9617   -2.8545 H   0  0  0  0  0  0  0  0  0  0  0  0
   -3.2100   -4.5137   -5.4928 H   0  0  0  0  0  0  0  0  0  0  0  0
  1  2  2  0  0  0  0
  2  3  1  0  0  0  0
  3  4  2  0  0  0  0
  3  5  1  0  0  0  0
  5  6  2  0  0  0  0
  6  7  1  0  0  0  0
  7  8  2  0  0  0  0
  8  9  1  0  0  0  0
  9 10  2  0  0  0  0
 10 11  1  0  0  0  0
 11 12  2  0  0  0  0
 12 13  1  0  0  0  0
 13 14  3  0  0  0  0
 12 15  1  0  0  0  0
 15 16  3  0  0  0  0
  8 17  1  0  0  0  0
 17 18  1  0  0  0  0
 18 19  1  0  0  0  0
 19 20  2  0  0  0  0
 20 21  1  0  0  0  0
 21 22  1  0  0  0  0
 21 23  1  0  0  0  0
  1 24  1  0  0  0  0
 24 25  2  0  0  0  0
 25 26  1  0  0  0  0
 25 27  1  0  0  0  0
 27 28  1  0  0  0  0
 27 29  2  0  0  0  0
 29 30  1  0  0  0  0
 30 31  1  0  0  0  0
 31 32  2  0  0  0  0
 32 33  1  0  0  0  0
 33 34  1  0  0  0  0
 29 35  1  0  0  0  0
 35 36  2  0  0  0  0
 36 37  1  0  0  0  0
 37 38  2  0  0  0  0
 38 39  1  0  0  0  0
 39 40  2  0  0  0  0
 40 41  1  0  0  0  0
 41 42  1  0  0  0  0
 42 43  1  0  0  0  0
 41 44  2  0  0  0  0
 36 45  1  0  0  0  0
 45 46  1  0  0  0  0
 46 47  1  0  0  0  0
 47 48  1  0  0  0  0
 48 49  1  0  0  0  0
 49 50  1  0  0  0  0
 50 51  2  0  0  0  0
 51 52  1  0  0  0  0
 52 53  1  0  0  0  0
 50 54  1  0  0  0  0
 54 55  1  0  0  0  0
 55 56  1  0  0  0  0
 56 57  1  0  0  0  0
 57 58  1  0  0  0  0
 58 59  1  0  0  0  0
 59 60  2  0  0  0  0
 60 61  1  0  0  0  0
 61 62  2  0  0  0  0
 62 63  1  0  0  0  0
 63 64  1  0  0  0  0
 64 65  1  0  0  0  0
 63 66  2  0  0  0  0
 58 67  2  0  0  0  0
 67 68  1  0  0  0  0
 68 69  1  0  0  0  0
 69 70  1  0  0  0  0
 70 71  1  0  0  0  0
 71 72  1  0  0  0  0
 72 73  1  0  0  0  0
 73 74  1  0  0  0  0
 74 75  1  0  0  0  0
 75 76  1  0  0  0  0
 76 77  1  0  0  0  0
 74 78  1  0  0  0  0
 78 79  1  0  0  0  0
 71 80  1  0  0  0  0
 80 81  1  0  0  0  0
 67 82  1  0  0  0  0
 82 83  2  0  0  0  0
 83 84  1  0  0  0  0
 83 85  1  0  0  0  0
 85 86  1  0  0  0  0
 85 87  2  0  0  0  0
 87 88  1  0  0  0  0
 88 89  1  0  0  0  0
 89 90  2  0  0  0  0
 90 91  1  0  0  0  0
 91 92  1  0  0  0  0
 87 93  1  0  0  0  0
 93 94  2  0  0  0  0
 94 95  1  0  0  0  0
 95 96  2  0  0  0  0
 95 97  1  0  0  0  0
 97 98  2  0  0  0  0
 98 99  1  0  0  0  0
 99100  2  0  0  0  0
100101  1  0  0  0  0
101102  2  0  0  0  0
102103  1  0  0  0  0
103104  2  0  0  0  0
104105  1  0  0  0  0
105106  3  0  0  0  0
104107  1  0  0  0  0
107108  3  0  0  0  0
100109  1  0  0  0  0
109110  1  0  0  0  0
110111  1  0  0  0  0
111112  2  0  0  0  0
112113  1  0  0  0  0
113114  1  0  0  0  0
113115  1  0  0  0  0
 11  2  1  0  0  0  0
 23 17  1  0  0  0  0
 31 24  1  0  0  0  0
 77 35  1  0  0  0  0
 89 82  1  0  0  0  0
103 94  1  0  0  0  0
115109  1  0  0  0  0
 10  5  1  0  0  0  0
 22 18  1  0  0  0  0
 34 30  2  0  0  0  0
 44 37  1  0  0  0  0
 76 45  2  0  0  0  0
 92 88  2  0  0  0  0
102 97  1  0  0  0  0
114110  1  0  0  0  0
 23  7  1  0  0  0  0
 75 47  2  0  0  0  0
115 99  1  0  0  0  0
 73 48  2  0  0  0  0
 53 49  2  0  0  0  0
 72 54  2  0  0  0  0
 70 55  2  0  0  0  0
 69 57  2  0  0  0  0
 66 59  1  0  0  0  0
  1116  1  0  0  0  0
  6117  1  0  0  0  0
  9118  1  0  0  0  0
 17119  1  0  0  0  0
 18120  1  0  0  0  0
 19121  1  0  0  0  0
 20122  1  0  0  0  0
 21123  1  0  0  0  0
 22124  1  0  0  0  0
 22125  1  0  0  0  0
 23126  1  0  0  0  0
 38127  1  0  0  0  0
 39128  1  0  0  0  0
 40129  1  0  0  0  0
 42130  1  0  0  0  0
 42131  1  0  0  0  0
 43132  1  0  0  0  0
 43133  1  0  0  0  0
 43134  1  0  0  0  0
 44135  1  0  0  0  0
 60136  1  0  0  0  0
 61137  1  0  0  0  0
 62138  1  0  0  0  0
 64139  1  0  0  0  0
 64140  1  0  0  0  0
 65141  1  0  0  0  0
 65142  1  0  0  0  0
 65143  1  0  0  0  0
 66144  1  0  0  0  0
 78145  1  0  0  0  0
 78146  1  0  0  0  0
 79147  1  0  0  0  0
 79148  1  0  0  0  0
 79149  1  0  0  0  0
 80150  1  0  0  0  0
 80151  1  0  0  0  0
 81152  1  0  0  0  0
 81153  1  0  0  0  0
 81154  1  0  0  0  0
 93155  1  0  0  0  0
 98156  1  0  0  0  0
101157  1  0  0  0  0
109158  1  0  0  0  0
110159  1  0  0  0  0
111160  1  0  0  0  0
112161  1  0  0  0  0
113162  1  0  0  0  0
114163  1  0  0  0  0
114164  1  0  0  0  0
115165  1  0  0  0  0
M  END
