
  xtb     02152214523D
 energy: -293.163064640820 gnorm: 0.000255229803 xtb: 6.4.1 (unknown)
170192  0     0  0            999 V2000
    8.8412   -1.0469   -9.4904 C   0  0  0  0  0  0  0  0  0  0  0  0
    9.2478   -2.1159   -8.7653 C   0  0  0  0  0  0  0  0  0  0  0  0
    9.1666   -2.2142   -7.2772 C   0  0  0  0  0  0  0  0  0  0  0  0
    8.6973   -1.4103   -6.5030 O   0  0  0  0  0  0  0  0  0  0  0  0
    9.8775   -3.4537   -6.9220 C   0  0  0  0  0  0  0  0  0  0  0  0
   10.0601   -3.9610   -5.6363 C   0  0  0  0  0  0  0  0  0  0  0  0
   10.7514   -5.1468   -5.5965 C   0  0  0  0  0  0  0  0  0  0  0  0
   11.2380   -5.7783   -6.7506 C   0  0  0  0  0  0  0  0  0  0  0  0
   11.0776   -5.2825   -8.0217 C   0  0  0  0  0  0  0  0  0  0  0  0
   10.3666   -4.0779   -8.0875 C   0  0  0  0  0  0  0  0  0  0  0  0
    9.9919   -3.2733   -9.2446 C   0  0  0  0  0  0  0  0  0  0  0  0
   10.2404   -3.5888  -10.5533 C   0  0  0  0  0  0  0  0  0  0  0  0
   10.9463   -4.7335  -10.9818 C   0  0  0  0  0  0  0  0  0  0  0  0
   11.5140   -5.6384  -11.4022 N   0  0  0  0  0  0  0  0  0  0  0  0
    9.8224   -2.8302  -11.6679 C   0  0  0  0  0  0  0  0  0  0  0  0
    9.5130   -2.2786  -12.6262 N   0  0  0  0  0  0  0  0  0  0  0  0
   11.8197   -6.9305   -5.9702 C   0  0  0  0  0  0  0  0  0  0  0  0
   11.0212   -8.2514   -5.9972 C   0  0  0  0  0  0  0  0  0  0  0  0
   11.5443   -9.0143   -4.8014 C   0  0  0  0  0  0  0  0  0  0  0  0
   11.0858   -8.4163   -3.7092 C   0  0  0  0  0  0  0  0  0  0  0  0
   10.2448   -7.2395   -4.1482 C   0  0  0  0  0  0  0  0  0  0  0  0
    9.6597   -7.8044   -5.4490 C   0  0  0  0  0  0  0  0  0  0  0  0
   11.2783   -6.2261   -4.6848 C   0  0  0  0  0  0  0  0  0  0  0  0
    7.9862    0.0104   -8.9989 C   0  0  0  0  0  0  0  0  0  0  0  0
    6.8878   -0.2803   -8.1731 C   0  0  0  0  0  0  0  0  0  0  0  0
    6.1188    0.7579   -7.7123 C   0  0  0  0  0  0  0  0  0  0  0  0
    4.9310    0.7113   -6.8197 C   0  0  0  0  0  0  0  0  0  0  0  0
    4.3691   -0.2618   -6.3780 O   0  0  0  0  0  0  0  0  0  0  0  0
    4.5839    2.1408   -6.6044 C   0  0  0  0  0  0  0  0  0  0  0  0
    5.4578    2.9582   -7.3484 C   0  0  0  0  0  0  0  0  0  0  0  0
    6.4090    2.0990   -8.0410 C   0  0  0  0  0  0  0  0  0  0  0  0
    7.4603    2.3841   -8.8932 C   0  0  0  0  0  0  0  0  0  0  0  0
    8.2273    1.3346   -9.3772 C   0  0  0  0  0  0  0  0  0  0  0  0
    5.3222    4.3335   -7.2887 C   0  0  0  0  0  0  0  0  0  0  0  0
    4.3321    4.8787   -6.4848 C   0  0  0  0  0  0  0  0  0  0  0  0
    3.4627    4.0726   -5.7431 C   0  0  0  0  0  0  0  0  0  0  0  0
    3.6018    2.6769   -5.8101 C   0  0  0  0  0  0  0  0  0  0  0  0
    2.4611    4.6332   -4.8624 C   0  0  0  0  0  0  0  0  0  0  0  0
    1.7567    5.8177   -4.9396 C   0  0  0  0  0  0  0  0  0  0  0  0
    1.7680    6.7446   -6.0736 C   0  0  0  0  0  0  0  0  0  0  0  0
    1.8063    8.1183   -5.8545 C   0  0  0  0  0  0  0  0  0  0  0  0
    1.7965    8.9877   -6.9293 C   0  0  0  0  0  0  0  0  0  0  0  0
    1.7428    8.4995   -8.2225 C   0  0  0  0  0  0  0  0  0  0  0  0
    1.6931    7.1306   -8.4593 C   0  0  0  0  0  0  0  0  0  0  0  0
    1.5815    6.5951   -9.8580 C   0  0  0  0  0  0  0  0  0  0  0  0
    0.1121    6.4336  -10.2516 C   0  0  0  0  0  0  0  0  0  0  0  0
    1.6997    6.2639   -7.3782 C   0  0  0  0  0  0  0  0  0  0  0  0
    0.9287    5.9963   -3.8075 C   0  0  0  0  0  0  0  0  0  0  0  0
   -0.2145    7.2366   -3.3408 S   0  0  0  0  0  0  0  0  0  0  0  0
   -0.5986    6.3256   -1.9165 C   0  0  0  0  0  0  0  0  0  0  0  0
   -1.4339    6.3973   -0.7847 C   0  0  0  0  0  0  0  0  0  0  0  0
   -2.3019    7.4005   -0.3000 C   0  0  0  0  0  0  0  0  0  0  0  0
   -2.9884    7.1899    0.9469 C   0  0  0  0  0  0  0  0  0  0  0  0
   -3.7233    8.2323    1.2999 N   0  0  0  0  0  0  0  0  0  0  0  0
   -3.5721    9.3773    0.1649 S   0  0  0  0  0  0  0  0  0  0  0  0
   -2.5619    8.5878   -0.8239 N   0  0  0  0  0  0  0  0  0  0  0  0
   -2.8822    5.9347    1.5870 C   0  0  0  0  0  0  0  0  0  0  0  0
   -3.5897    5.3634    2.6592 C   0  0  0  0  0  0  0  0  0  0  0  0
   -4.8071    5.8011    3.8112 S   0  0  0  0  0  0  0  0  0  0  0  0
   -4.8370    4.1466    4.3767 C   0  0  0  0  0  0  0  0  0  0  0  0
   -5.6254    3.4780    5.3392 C   0  0  0  0  0  0  0  0  0  0  0  0
   -6.6951    4.1518    6.0804 C   0  0  0  0  0  0  0  0  0  0  0  0
   -6.4593    5.3865    6.6767 C   0  0  0  0  0  0  0  0  0  0  0  0
   -7.4794    6.0312    7.3515 C   0  0  0  0  0  0  0  0  0  0  0  0
   -8.7357    5.4579    7.4306 C   0  0  0  0  0  0  0  0  0  0  0  0
   -8.9915    4.2300    6.8309 C   0  0  0  0  0  0  0  0  0  0  0  0
  -10.3674    3.6294    6.8681 C   0  0  0  0  0  0  0  0  0  0  0  0
  -11.1910    4.1109    5.6722 C   0  0  0  0  0  0  0  0  0  0  0  0
   -7.9662    3.5893    6.1540 C   0  0  0  0  0  0  0  0  0  0  0  0
   -5.3119    2.1348    5.4013 C   0  0  0  0  0  0  0  0  0  0  0  0
   -4.0547    1.6923    4.2562 S   0  0  0  0  0  0  0  0  0  0  0  0
   -3.9388    3.3206    3.7012 C   0  0  0  0  0  0  0  0  0  0  0  0
   -3.2157    4.0188    2.7255 C   0  0  0  0  0  0  0  0  0  0  0  0
   -2.2821    3.7429    1.7619 N   0  0  0  0  0  0  0  0  0  0  0  0
   -2.0518    4.9097    1.0584 C   0  0  0  0  0  0  0  0  0  0  0  0
   -1.2197    5.2002   -0.0500 C   0  0  0  0  0  0  0  0  0  0  0  0
   -0.2366    4.4543   -0.6786 N   0  0  0  0  0  0  0  0  0  0  0  0
    0.1215    5.1349   -1.8140 C   0  0  0  0  0  0  0  0  0  0  0  0
    0.9956    4.9487   -2.8905 C   0  0  0  0  0  0  0  0  0  0  0  0
    2.0917    3.7238   -3.4054 S   0  0  0  0  0  0  0  0  0  0  0  0
    0.7201    3.5554   -0.0694 C   0  0  0  0  0  0  0  0  0  0  0  0
    2.0107    4.2868    0.3007 C   0  0  0  0  0  0  0  0  0  0  0  0
   -1.9925    2.3735    1.3968 C   0  0  0  0  0  0  0  0  0  0  0  0
   -1.0718    1.6858    2.4052 C   0  0  0  0  0  0  0  0  0  0  0  0
   -5.8116    1.0900    6.2659 C   0  0  0  0  0  0  0  0  0  0  0  0
   -5.7488   -0.2446    5.8303 C   0  0  0  0  0  0  0  0  0  0  0  0
   -6.2054   -1.2405    6.6565 C   0  0  0  0  0  0  0  0  0  0  0  0
   -6.2292   -2.7094    6.4241 C   0  0  0  0  0  0  0  0  0  0  0  0
   -5.8227   -3.3127    5.4607 O   0  0  0  0  0  0  0  0  0  0  0  0
   -6.8471   -3.2631    7.6588 C   0  0  0  0  0  0  0  0  0  0  0  0
   -7.1362   -2.2091    8.5514 C   0  0  0  0  0  0  0  0  0  0  0  0
   -6.7379   -0.9548    7.9295 C   0  0  0  0  0  0  0  0  0  0  0  0
   -6.7852    0.3554    8.3711 C   0  0  0  0  0  0  0  0  0  0  0  0
   -6.3157    1.3629    7.5425 C   0  0  0  0  0  0  0  0  0  0  0  0
   -7.6829   -2.4896    9.7911 C   0  0  0  0  0  0  0  0  0  0  0  0
   -7.9435   -3.8107   10.1170 C   0  0  0  0  0  0  0  0  0  0  0  0
   -7.7061   -4.8571    9.2168 C   0  0  0  0  0  0  0  0  0  0  0  0
   -7.1247   -4.5706    7.9700 C   0  0  0  0  0  0  0  0  0  0  0  0
   -8.0034   -6.2087    9.6252 C   0  0  0  0  0  0  0  0  0  0  0  0
   -8.4560   -7.2190    8.8425 C   0  0  0  0  0  0  0  0  0  0  0  0
   -9.0243   -7.0655    7.4625 C   0  0  0  0  0  0  0  0  0  0  0  0
   -9.1436   -6.0462    6.8197 O   0  0  0  0  0  0  0  0  0  0  0  0
   -9.4974   -8.4025    7.1016 C   0  0  0  0  0  0  0  0  0  0  0  0
   -9.2622   -9.3134    8.1821 C   0  0  0  0  0  0  0  0  0  0  0  0
   -9.6868  -10.5764    7.9054 C   0  0  0  0  0  0  0  0  0  0  0  0
  -10.3740  -10.6618    6.3249 S   0  0  0  0  0  0  0  0  0  0  0  0
  -10.0951   -8.9654    6.0160 C   0  0  0  0  0  0  0  0  0  0  0  0
  -10.4707   -8.3259    4.7361 C   0  0  0  0  0  0  0  0  0  0  0  0
   -8.6225   -8.6059    9.2688 C   0  0  0  0  0  0  0  0  0  0  0  0
   -8.2178   -9.1845   10.4423 C   0  0  0  0  0  0  0  0  0  0  0  0
   -7.5588   -8.5360   11.5046 C   0  0  0  0  0  0  0  0  0  0  0  0
   -7.0171   -8.0737   12.4059 N   0  0  0  0  0  0  0  0  0  0  0  0
   -8.4360  -10.5559   10.6922 C   0  0  0  0  0  0  0  0  0  0  0  0
   -8.6095  -11.6688   10.9113 N   0  0  0  0  0  0  0  0  0  0  0  0
    9.1798   -0.9401  -10.5135 H   0  0  0  0  0  0  0  0  0  0  0  0
    9.6705   -3.4383   -4.7769 H   0  0  0  0  0  0  0  0  0  0  0  0
   11.4682   -5.7748   -8.8964 H   0  0  0  0  0  0  0  0  0  0  0  0
   12.8929   -7.0798   -6.0714 H   0  0  0  0  0  0  0  0  0  0  0  0
   11.0320   -8.7698   -6.9520 H   0  0  0  0  0  0  0  0  0  0  0  0
   12.2163   -9.8494   -4.8698 H   0  0  0  0  0  0  0  0  0  0  0  0
   11.2983   -8.6521   -2.6829 H   0  0  0  0  0  0  0  0  0  0  0  0
    9.5481   -6.8360   -3.4184 H   0  0  0  0  0  0  0  0  0  0  0  0
    8.9929   -8.6458   -5.2684 H   0  0  0  0  0  0  0  0  0  0  0  0
    9.1526   -7.0649   -6.0661 H   0  0  0  0  0  0  0  0  0  0  0  0
   11.9903   -5.9026   -3.9279 H   0  0  0  0  0  0  0  0  0  0  0  0
    6.6330   -1.2975   -7.9227 H   0  0  0  0  0  0  0  0  0  0  0  0
    7.6880    3.4004   -9.1774 H   0  0  0  0  0  0  0  0  0  0  0  0
    9.0595    1.5440  -10.0342 H   0  0  0  0  0  0  0  0  0  0  0  0
    5.9841    4.9831   -7.8413 H   0  0  0  0  0  0  0  0  0  0  0  0
    4.2406    5.9516   -6.4126 H   0  0  0  0  0  0  0  0  0  0  0  0
    2.9458    2.0295   -5.2465 H   0  0  0  0  0  0  0  0  0  0  0  0
    1.8582    8.5002   -4.8461 H   0  0  0  0  0  0  0  0  0  0  0  0
    1.8316   10.0531   -6.7559 H   0  0  0  0  0  0  0  0  0  0  0  0
    1.7377    9.1850   -9.0577 H   0  0  0  0  0  0  0  0  0  0  0  0
    2.0682    7.2791  -10.5561 H   0  0  0  0  0  0  0  0  0  0  0  0
    2.0810    5.6261   -9.9232 H   0  0  0  0  0  0  0  0  0  0  0  0
   -0.3875    5.7463   -9.5726 H   0  0  0  0  0  0  0  0  0  0  0  0
   -0.3997    7.3922  -10.2047 H   0  0  0  0  0  0  0  0  0  0  0  0
    0.0296    6.0441  -11.2636 H   0  0  0  0  0  0  0  0  0  0  0  0
    1.6475    5.1977   -7.5482 H   0  0  0  0  0  0  0  0  0  0  0  0
   -5.4765    5.8298    6.6226 H   0  0  0  0  0  0  0  0  0  0  0  0
   -7.2919    6.9869    7.8182 H   0  0  0  0  0  0  0  0  0  0  0  0
   -9.5278    5.9666    7.9609 H   0  0  0  0  0  0  0  0  0  0  0  0
  -10.2960    2.5399    6.8421 H   0  0  0  0  0  0  0  0  0  0  0  0
  -10.8721    3.9179    7.7924 H   0  0  0  0  0  0  0  0  0  0  0  0
  -11.2823    5.1947    5.6876 H   0  0  0  0  0  0  0  0  0  0  0  0
  -10.7089    3.8222    4.7410 H   0  0  0  0  0  0  0  0  0  0  0  0
  -12.1879    3.6771    5.6969 H   0  0  0  0  0  0  0  0  0  0  0  0
   -8.1537    2.6393    5.6733 H   0  0  0  0  0  0  0  0  0  0  0  0
    0.9395    2.7516   -0.7793 H   0  0  0  0  0  0  0  0  0  0  0  0
    0.2938    3.1353    0.8338 H   0  0  0  0  0  0  0  0  0  0  0  0
    2.5025    4.6841   -0.5827 H   0  0  0  0  0  0  0  0  0  0  0  0
    1.7946    5.1100    0.9788 H   0  0  0  0  0  0  0  0  0  0  0  0
    2.6912    3.5968    0.7921 H   0  0  0  0  0  0  0  0  0  0  0  0
   -1.5748    2.3566    0.3897 H   0  0  0  0  0  0  0  0  0  0  0  0
   -2.9428    1.8276    1.3696 H   0  0  0  0  0  0  0  0  0  0  0  0
   -0.1707    2.2658    2.5922 H   0  0  0  0  0  0  0  0  0  0  0  0
   -1.5850    1.5551    3.3536 H   0  0  0  0  0  0  0  0  0  0  0  0
   -0.7876    0.7062    2.0316 H   0  0  0  0  0  0  0  0  0  0  0  0
   -5.3519   -0.4886    4.8556 H   0  0  0  0  0  0  0  0  0  0  0  0
   -7.1704    0.6001    9.3494 H   0  0  0  0  0  0  0  0  0  0  0  0
   -6.3272    2.3827    7.8944 H   0  0  0  0  0  0  0  0  0  0  0  0
   -7.8968   -1.7016   10.4973 H   0  0  0  0  0  0  0  0  0  0  0  0
   -8.3678   -4.0447   11.0831 H   0  0  0  0  0  0  0  0  0  0  0  0
   -6.8661   -5.3565    7.2796 H   0  0  0  0  0  0  0  0  0  0  0  0
   -7.8549   -6.4092   10.6799 H   0  0  0  0  0  0  0  0  0  0  0  0
   -9.6508  -11.4604    8.5099 H   0  0  0  0  0  0  0  0  0  0  0  0
  -10.2190   -7.2685    4.7783 H   0  0  0  0  0  0  0  0  0  0  0  0
  -11.5386   -8.4351    4.5496 H   0  0  0  0  0  0  0  0  0  0  0  0
   -9.9391   -8.7886    3.9048 H   0  0  0  0  0  0  0  0  0  0  0  0
  1  2  2  0  0  0  0
  2  3  1  0  0  0  0
  3  4  2  0  0  0  0
  3  5  1  0  0  0  0
  5  6  2  0  0  0  0
  6  7  1  0  0  0  0
  7  8  2  0  0  0  0
  8  9  1  0  0  0  0
  9 10  2  0  0  0  0
 10 11  1  0  0  0  0
 11 12  2  0  0  0  0
 12 13  1  0  0  0  0
 13 14  3  0  0  0  0
 12 15  1  0  0  0  0
 15 16  3  0  0  0  0
  8 17  1  0  0  0  0
 17 18  1  0  0  0  0
 18 19  1  0  0  0  0
 19 20  2  0  0  0  0
 20 21  1  0  0  0  0
 21 22  1  0  0  0  0
 21 23  1  0  0  0  0
  1 24  1  0  0  0  0
 24 25  2  0  0  0  0
 25 26  1  0  0  0  0
 26 27  1  0  0  0  0
 27 28  2  0  0  0  0
 27 29  1  0  0  0  0
 29 30  2  0  0  0  0
 30 31  1  0  0  0  0
 31 32  1  0  0  0  0
 32 33  2  0  0  0  0
 30 34  1  0  0  0  0
 34 35  2  0  0  0  0
 35 36  1  0  0  0  0
 36 37  2  0  0  0  0
 36 38  1  0  0  0  0
 38 39  2  0  0  0  0
 39 40  1  0  0  0  0
 40 41  2  0  0  0  0
 41 42  1  0  0  0  0
 42 43  2  0  0  0  0
 43 44  1  0  0  0  0
 44 45  1  0  0  0  0
 45 46  1  0  0  0  0
 44 47  2  0  0  0  0
 39 48  1  0  0  0  0
 48 49  1  0  0  0  0
 49 50  1  0  0  0  0
 50 51  1  0  0  0  0
 51 52  1  0  0  0  0
 52 53  1  0  0  0  0
 53 54  2  0  0  0  0
 54 55  1  0  0  0  0
 55 56  1  0  0  0  0
 53 57  1  0  0  0  0
 57 58  1  0  0  0  0
 58 59  1  0  0  0  0
 59 60  1  0  0  0  0
 60 61  1  0  0  0  0
 61 62  1  0  0  0  0
 62 63  2  0  0  0  0
 63 64  1  0  0  0  0
 64 65  2  0  0  0  0
 65 66  1  0  0  0  0
 66 67  1  0  0  0  0
 67 68  1  0  0  0  0
 66 69  2  0  0  0  0
 61 70  2  0  0  0  0
 70 71  1  0  0  0  0
 71 72  1  0  0  0  0
 72 73  1  0  0  0  0
 73 74  1  0  0  0  0
 74 75  1  0  0  0  0
 75 76  1  0  0  0  0
 76 77  1  0  0  0  0
 77 78  1  0  0  0  0
 78 79  1  0  0  0  0
 79 80  1  0  0  0  0
 77 81  1  0  0  0  0
 81 82  1  0  0  0  0
 74 83  1  0  0  0  0
 83 84  1  0  0  0  0
 70 85  1  0  0  0  0
 85 86  2  0  0  0  0
 86 87  1  0  0  0  0
 87 88  1  0  0  0  0
 88 89  2  0  0  0  0
 88 90  1  0  0  0  0
 90 91  2  0  0  0  0
 91 92  1  0  0  0  0
 92 93  1  0  0  0  0
 93 94  2  0  0  0  0
 91 95  1  0  0  0  0
 95 96  2  0  0  0  0
 96 97  1  0  0  0  0
 97 98  2  0  0  0  0
 97 99  1  0  0  0  0
 99100  2  0  0  0  0
100101  1  0  0  0  0
101102  2  0  0  0  0
101103  1  0  0  0  0
103104  1  0  0  0  0
104105  2  0  0  0  0
105106  1  0  0  0  0
106107  1  0  0  0  0
107108  1  0  0  0  0
104109  1  0  0  0  0
109110  2  0  0  0  0
110111  1  0  0  0  0
111112  3  0  0  0  0
110113  1  0  0  0  0
113114  3  0  0  0  0
 11  2  1  0  0  0  0
 23 17  1  0  0  0  0
 33 24  1  0  0  0  0
 80 38  1  0  0  0  0
 94 85  1  0  0  0  0
109100  1  0  0  0  0
 10  5  1  0  0  0  0
 22 18  1  0  0  0  0
 31 26  2  0  0  0  0
 47 40  1  0  0  0  0
 79 48  2  0  0  0  0
 92 87  2  0  0  0  0
107103  2  0  0  0  0
 23  7  1  0  0  0  0
 37 29  1  0  0  0  0
 78 50  2  0  0  0  0
 98 90  1  0  0  0  0
 76 51  2  0  0  0  0
 56 52  2  0  0  0  0
 75 57  2  0  0  0  0
 73 58  2  0  0  0  0
 72 60  2  0  0  0  0
 69 62  1  0  0  0  0
  1115  1  0  0  0  0
  6116  1  0  0  0  0
  9117  1  0  0  0  0
 17118  1  0  0  0  0
 18119  1  0  0  0  0
 19120  1  0  0  0  0
 20121  1  0  0  0  0
 21122  1  0  0  0  0
 22123  1  0  0  0  0
 22124  1  0  0  0  0
 23125  1  0  0  0  0
 25126  1  0  0  0  0
 32127  1  0  0  0  0
 33128  1  0  0  0  0
 34129  1  0  0  0  0
 35130  1  0  0  0  0
 37131  1  0  0  0  0
 41132  1  0  0  0  0
 42133  1  0  0  0  0
 43134  1  0  0  0  0
 45135  1  0  0  0  0
 45136  1  0  0  0  0
 46137  1  0  0  0  0
 46138  1  0  0  0  0
 46139  1  0  0  0  0
 47140  1  0  0  0  0
 63141  1  0  0  0  0
 64142  1  0  0  0  0
 65143  1  0  0  0  0
 67144  1  0  0  0  0
 67145  1  0  0  0  0
 68146  1  0  0  0  0
 68147  1  0  0  0  0
 68148  1  0  0  0  0
 69149  1  0  0  0  0
 81150  1  0  0  0  0
 81151  1  0  0  0  0
 82152  1  0  0  0  0
 82153  1  0  0  0  0
 82154  1  0  0  0  0
 83155  1  0  0  0  0
 83156  1  0  0  0  0
 84157  1  0  0  0  0
 84158  1  0  0  0  0
 84159  1  0  0  0  0
 86160  1  0  0  0  0
 93161  1  0  0  0  0
 94162  1  0  0  0  0
 95163  1  0  0  0  0
 96164  1  0  0  0  0
 98165  1  0  0  0  0
 99166  1  0  0  0  0
105167  1  0  0  0  0
108168  1  0  0  0  0
108169  1  0  0  0  0
108170  1  0  0  0  0
M  END
