
  xtb     02132212063D
 energy: -339.628210787773 gnorm: 0.000712302260 xtb: 6.4.1 (unknown)
199224  0     0  0            999 V2000
    0.4412    1.5029   10.9656 C   0  0  0  0  0  0  0  0  0  0  0  0
    1.0579    2.7107   10.8577 C   0  0  0  0  0  0  0  0  0  0  0  0
    1.4005    3.4139    9.6068 C   0  0  0  0  0  0  0  0  0  0  0  0
    0.9511    3.2065    8.4957 O   0  0  0  0  0  0  0  0  0  0  0  0
    2.4185    4.4115    9.9740 C   0  0  0  0  0  0  0  0  0  0  0  0
    3.1317    5.2394    9.1082 C   0  0  0  0  0  0  0  0  0  0  0  0
    4.0438    6.0522    9.7365 C   0  0  0  0  0  0  0  0  0  0  0  0
    4.2386    6.0429   11.1252 C   0  0  0  0  0  0  0  0  0  0  0  0
    3.5392    5.2372   11.9918 C   0  0  0  0  0  0  0  0  0  0  0  0
    2.6015    4.4040   11.3736 C   0  0  0  0  0  0  0  0  0  0  0  0
    1.6897    3.4257   11.9560 C   0  0  0  0  0  0  0  0  0  0  0  0
    1.4025    3.2683   13.2834 C   0  0  0  0  0  0  0  0  0  0  0  0
    0.3929    2.4184   13.7906 C   0  0  0  0  0  0  0  0  0  0  0  0
   -0.4404    1.7977   14.2779 N   0  0  0  0  0  0  0  0  0  0  0  0
    2.0215    4.0009   14.3185 C   0  0  0  0  0  0  0  0  0  0  0  0
    2.4958    4.5617   15.2004 N   0  0  0  0  0  0  0  0  0  0  0  0
    5.3148    7.0975   11.0616 C   0  0  0  0  0  0  0  0  0  0  0  0
    4.9073    8.5264   11.4788 C   0  0  0  0  0  0  0  0  0  0  0  0
    5.9792    9.4005   10.8683 C   0  0  0  0  0  0  0  0  0  0  0  0
    5.7904    9.4127    9.5550 C   0  0  0  0  0  0  0  0  0  0  0  0
    4.5882    8.5464    9.2554 C   0  0  0  0  0  0  0  0  0  0  0  0
    3.7506    8.8134   10.5127 C   0  0  0  0  0  0  0  0  0  0  0  0
    5.0944    7.1113    9.5147 C   0  0  0  0  0  0  0  0  0  0  0  0
   -0.1653    0.7112    9.9646 C   0  0  0  0  0  0  0  0  0  0  0  0
   -0.6229    1.2714    8.3789 S   0  0  0  0  0  0  0  0  0  0  0  0
   -1.3484   -0.2492    8.0031 C   0  0  0  0  0  0  0  0  0  0  0  0
   -1.1927   -1.1659    9.0252 C   0  0  0  0  0  0  0  0  0  0  0  0
   -1.5985   -2.5793    8.9221 C   0  0  0  0  0  0  0  0  0  0  0  0
   -1.8396   -3.1187    7.8572 O   0  0  0  0  0  0  0  0  0  0  0  0
   -1.6728   -3.2349   10.2304 C   0  0  0  0  0  0  0  0  0  0  0  0
   -2.2656   -4.4480   10.4689 C   0  0  0  0  0  0  0  0  0  0  0  0
   -2.9708   -5.3475    9.5189 C   0  0  0  0  0  0  0  0  0  0  0  0
   -4.4785   -5.0781    9.5238 C   0  0  0  0  0  0  0  0  0  0  0  0
   -2.1875   -4.8511   12.1530 S   0  0  0  0  0  0  0  0  0  0  0  0
   -1.3044   -3.4129   12.5332 C   0  0  0  0  0  0  0  0  0  0  0  0
   -0.9226   -3.1205   13.9388 C   0  0  0  0  0  0  0  0  0  0  0  0
   -1.8801   -2.1011   14.5650 C   0  0  0  0  0  0  0  0  0  0  0  0
   -1.1149   -2.6423   11.4127 C   0  0  0  0  0  0  0  0  0  0  0  0
   -0.3611   -1.3868   11.3955 C   0  0  0  0  0  0  0  0  0  0  0  0
    0.3463   -1.0151   12.3176 O   0  0  0  0  0  0  0  0  0  0  0  0
   -0.5525   -0.6175   10.1558 C   0  0  0  0  0  0  0  0  0  0  0  0
   -2.0506   -0.4517    6.7582 C   0  0  0  0  0  0  0  0  0  0  0  0
   -3.4099   -0.4770    6.5540 C   0  0  0  0  0  0  0  0  0  0  0  0
   -4.4239   -0.2340    7.5868 C   0  0  0  0  0  0  0  0  0  0  0  0
   -5.3900    0.7423    7.3582 C   0  0  0  0  0  0  0  0  0  0  0  0
   -6.3164    1.0414    8.3395 C   0  0  0  0  0  0  0  0  0  0  0  0
   -6.2911    0.3779    9.5527 C   0  0  0  0  0  0  0  0  0  0  0  0
   -5.3516   -0.6184    9.7904 C   0  0  0  0  0  0  0  0  0  0  0  0
   -5.3416   -1.3672   11.0941 C   0  0  0  0  0  0  0  0  0  0  0  0
   -6.5701   -2.2677   11.2295 C   0  0  0  0  0  0  0  0  0  0  0  0
   -4.4327   -0.9177    8.7970 C   0  0  0  0  0  0  0  0  0  0  0  0
   -3.7081   -0.6177    5.1781 C   0  0  0  0  0  0  0  0  0  0  0  0
   -5.2149   -0.7670    4.3093 S   0  0  0  0  0  0  0  0  0  0  0  0
   -4.3218   -0.8916    2.8311 C   0  0  0  0  0  0  0  0  0  0  0  0
   -4.5546   -1.0882    1.4593 C   0  0  0  0  0  0  0  0  0  0  0  0
   -5.7322   -1.3983    0.7447 C   0  0  0  0  0  0  0  0  0  0  0  0
   -5.6344   -1.7072   -0.6546 C   0  0  0  0  0  0  0  0  0  0  0  0
   -6.8005   -2.0477   -1.1801 N   0  0  0  0  0  0  0  0  0  0  0  0
   -7.9260   -1.9801   -0.0178 S   0  0  0  0  0  0  0  0  0  0  0  0
   -6.9688   -1.5148    1.2024 N   0  0  0  0  0  0  0  0  0  0  0  0
   -4.3902   -1.5477   -1.3035 C   0  0  0  0  0  0  0  0  0  0  0  0
   -4.0414   -1.5935   -2.6637 C   0  0  0  0  0  0  0  0  0  0  0  0
   -4.7644   -1.9535   -4.1937 S   0  0  0  0  0  0  0  0  0  0  0  0
   -3.2801   -1.4749   -4.9849 C   0  0  0  0  0  0  0  0  0  0  0  0
   -2.8934   -1.4183   -6.3360 C   0  0  0  0  0  0  0  0  0  0  0  0
   -3.7217   -1.8739   -7.4495 C   0  0  0  0  0  0  0  0  0  0  0  0
   -5.0808   -1.5769   -7.4784 C   0  0  0  0  0  0  0  0  0  0  0  0
   -5.8438   -1.9476   -8.5704 C   0  0  0  0  0  0  0  0  0  0  0  0
   -5.2618   -2.5968   -9.6444 C   0  0  0  0  0  0  0  0  0  0  0  0
   -3.9098   -2.9194   -9.6236 C   0  0  0  0  0  0  0  0  0  0  0  0
   -3.2738   -3.6512  -10.7708 C   0  0  0  0  0  0  0  0  0  0  0  0
   -3.2957   -5.1611  -10.5274 C   0  0  0  0  0  0  0  0  0  0  0  0
   -3.1589   -2.5786   -8.5106 C   0  0  0  0  0  0  0  0  0  0  0  0
   -1.6043   -0.9177   -6.4658 C   0  0  0  0  0  0  0  0  0  0  0  0
   -0.8466   -0.6003   -4.9122 S   0  0  0  0  0  0  0  0  0  0  0  0
   -2.2848   -1.0752   -4.0867 C   0  0  0  0  0  0  0  0  0  0  0  0
   -2.7178   -1.1571   -2.7589 C   0  0  0  0  0  0  0  0  0  0  0  0
   -2.2125   -0.8982   -1.5102 N   0  0  0  0  0  0  0  0  0  0  0  0
   -3.2271   -1.1363   -0.5954 C   0  0  0  0  0  0  0  0  0  0  0  0
   -3.2844   -1.0517    0.8200 C   0  0  0  0  0  0  0  0  0  0  0  0
   -2.3101   -0.9060    1.7907 N   0  0  0  0  0  0  0  0  0  0  0  0
   -2.9388   -0.8080    3.0029 C   0  0  0  0  0  0  0  0  0  0  0  0
   -2.5861   -0.6741    4.3545 C   0  0  0  0  0  0  0  0  0  0  0  0
   -1.1289   -0.5606    5.2756 S   0  0  0  0  0  0  0  0  0  0  0  0
   -0.8953   -1.1942    1.7314 C   0  0  0  0  0  0  0  0  0  0  0  0
   -0.0394    0.0512    1.9580 C   0  0  0  0  0  0  0  0  0  0  0  0
   -1.0785   -0.0068   -1.3946 C   0  0  0  0  0  0  0  0  0  0  0  0
   -1.5367    1.4376   -1.2060 C   0  0  0  0  0  0  0  0  0  0  0  0
   -0.8342   -0.6738   -7.6337 C   0  0  0  0  0  0  0  0  0  0  0  0
    0.8839   -0.9140   -7.5766 S   0  0  0  0  0  0  0  0  0  0  0  0
    1.0324   -0.6055   -9.2885 C   0  0  0  0  0  0  0  0  0  0  0  0
   -0.2257   -0.3612   -9.8581 C   0  0  0  0  0  0  0  0  0  0  0  0
   -0.4764   -0.2614  -11.3072 C   0  0  0  0  0  0  0  0  0  0  0  0
    0.3633   -0.5232  -12.1561 O   0  0  0  0  0  0  0  0  0  0  0  0
   -1.8492    0.0935  -11.6400 C   0  0  0  0  0  0  0  0  0  0  0  0
   -2.3066    0.2332  -12.9295 C   0  0  0  0  0  0  0  0  0  0  0  0
   -1.5308    0.0668  -14.1835 C   0  0  0  0  0  0  0  0  0  0  0  0
   -2.3147    0.4327  -15.4348 C   0  0  0  0  0  0  0  0  0  0  0  0
   -3.9828    0.6548  -12.9402 S   0  0  0  0  0  0  0  0  0  0  0  0
   -4.0697    0.6644  -11.2090 C   0  0  0  0  0  0  0  0  0  0  0  0
   -5.3381    1.0283  -10.5287 C   0  0  0  0  0  0  0  0  0  0  0  0
   -5.3847    2.5331  -10.2474 C   0  0  0  0  0  0  0  0  0  0  0  0
   -2.8569    0.3467  -10.6566 C   0  0  0  0  0  0  0  0  0  0  0  0
   -2.5943    0.2392   -9.2227 C   0  0  0  0  0  0  0  0  0  0  0  0
   -3.3620    0.6401   -8.3639 O   0  0  0  0  0  0  0  0  0  0  0  0
   -1.2703   -0.3217   -8.9135 C   0  0  0  0  0  0  0  0  0  0  0  0
    2.2376   -0.4947  -10.0030 C   0  0  0  0  0  0  0  0  0  0  0  0
    3.5261   -0.6793   -9.5856 C   0  0  0  0  0  0  0  0  0  0  0  0
    3.9603   -1.2398   -8.2985 C   0  0  0  0  0  0  0  0  0  0  0  0
    3.2707   -1.4724   -7.3209 O   0  0  0  0  0  0  0  0  0  0  0  0
    5.4059   -1.4895   -8.4283 C   0  0  0  0  0  0  0  0  0  0  0  0
    6.2461   -2.0709   -7.4801 C   0  0  0  0  0  0  0  0  0  0  0  0
    7.5539   -2.1835   -7.8861 C   0  0  0  0  0  0  0  0  0  0  0  0
    7.9944   -1.7577   -9.1466 C   0  0  0  0  0  0  0  0  0  0  0  0
    7.1776   -1.1832  -10.0912 C   0  0  0  0  0  0  0  0  0  0  0  0
    5.8437   -1.0495   -9.6948 C   0  0  0  0  0  0  0  0  0  0  0  0
    4.7055   -0.4711  -10.4048 C   0  0  0  0  0  0  0  0  0  0  0  0
    4.7646    0.2310  -11.5791 C   0  0  0  0  0  0  0  0  0  0  0  0
    3.6913    0.9361  -12.1692 C   0  0  0  0  0  0  0  0  0  0  0  0
    2.9043    1.5879  -12.6926 N   0  0  0  0  0  0  0  0  0  0  0  0
    5.9421    0.4159  -12.3335 C   0  0  0  0  0  0  0  0  0  0  0  0
    6.8625    0.6019  -12.9943 N   0  0  0  0  0  0  0  0  0  0  0  0
    9.4187   -2.1752   -8.8792 C   0  0  0  0  0  0  0  0  0  0  0  0
   10.4133   -1.0465   -8.5343 C   0  0  0  0  0  0  0  0  0  0  0  0
   11.5618   -1.7685   -7.8675 C   0  0  0  0  0  0  0  0  0  0  0  0
   11.1466   -2.1703   -6.6731 C   0  0  0  0  0  0  0  0  0  0  0  0
    9.7104   -1.7264   -6.5122 C   0  0  0  0  0  0  0  0  0  0  0  0
    9.7503   -0.4131   -7.3043 C   0  0  0  0  0  0  0  0  0  0  0  0
    8.9287   -2.6478   -7.4728 C   0  0  0  0  0  0  0  0  0  0  0  0
    0.4496    1.0211   11.9381 H   0  0  0  0  0  0  0  0  0  0  0  0
    2.9584    5.2089    8.0439 H   0  0  0  0  0  0  0  0  0  0  0  0
    3.7051    5.2319   13.0563 H   0  0  0  0  0  0  0  0  0  0  0  0
    6.2890    6.8027   11.4466 H   0  0  0  0  0  0  0  0  0  0  0  0
    4.7176    8.6532   12.5409 H   0  0  0  0  0  0  0  0  0  0  0  0
    6.7706    9.8601   11.4305 H   0  0  0  0  0  0  0  0  0  0  0  0
    6.3927    9.8844    8.8009 H   0  0  0  0  0  0  0  0  0  0  0  0
    4.1074    8.6928    8.2919 H   0  0  0  0  0  0  0  0  0  0  0  0
    2.8986    8.1462   10.6294 H   0  0  0  0  0  0  0  0  0  0  0  0
    3.4139    9.8471   10.5703 H   0  0  0  0  0  0  0  0  0  0  0  0
    5.9225    6.8294    8.8671 H   0  0  0  0  0  0  0  0  0  0  0  0
   -2.5771   -5.1770    8.5162 H   0  0  0  0  0  0  0  0  0  0  0  0
   -2.7890   -6.3861    9.8035 H   0  0  0  0  0  0  0  0  0  0  0  0
   -4.8853   -5.1945   10.5265 H   0  0  0  0  0  0  0  0  0  0  0  0
   -4.9803   -5.7768    8.8600 H   0  0  0  0  0  0  0  0  0  0  0  0
   -4.6805   -4.0681    9.1757 H   0  0  0  0  0  0  0  0  0  0  0  0
   -0.9388   -4.0453   14.5186 H   0  0  0  0  0  0  0  0  0  0  0  0
    0.0868   -2.7055   13.9518 H   0  0  0  0  0  0  0  0  0  0  0  0
   -2.9077   -2.4555   14.5111 H   0  0  0  0  0  0  0  0  0  0  0  0
   -1.6181   -1.9451   15.6074 H   0  0  0  0  0  0  0  0  0  0  0  0
   -1.8054   -1.1480   14.0487 H   0  0  0  0  0  0  0  0  0  0  0  0
   -5.4003    1.2769    6.4204 H   0  0  0  0  0  0  0  0  0  0  0  0
   -7.0578    1.8057    8.1589 H   0  0  0  0  0  0  0  0  0  0  0  0
   -7.0059    0.6329   10.3214 H   0  0  0  0  0  0  0  0  0  0  0  0
   -5.3283   -0.6536   11.9220 H   0  0  0  0  0  0  0  0  0  0  0  0
   -4.4361   -1.9749   11.1605 H   0  0  0  0  0  0  0  0  0  0  0  0
   -7.4813   -1.6750   11.2228 H   0  0  0  0  0  0  0  0  0  0  0  0
   -6.6176   -2.9729   10.4030 H   0  0  0  0  0  0  0  0  0  0  0  0
   -6.5291   -2.8265   12.1618 H   0  0  0  0  0  0  0  0  0  0  0  0
   -3.7218   -1.7105    8.9619 H   0  0  0  0  0  0  0  0  0  0  0  0
   -5.5267   -1.0251   -6.6663 H   0  0  0  0  0  0  0  0  0  0  0  0
   -6.8978   -1.7119   -8.5907 H   0  0  0  0  0  0  0  0  0  0  0  0
   -5.8582   -2.8560  -10.5075 H   0  0  0  0  0  0  0  0  0  0  0  0
   -2.2396   -3.3192  -10.8920 H   0  0  0  0  0  0  0  0  0  0  0  0
   -3.8124   -3.4259  -11.6938 H   0  0  0  0  0  0  0  0  0  0  0  0
   -2.8302   -5.6875  -11.3574 H   0  0  0  0  0  0  0  0  0  0  0  0
   -4.3201   -5.5117  -10.4227 H   0  0  0  0  0  0  0  0  0  0  0  0
   -2.7564   -5.4045   -9.6149 H   0  0  0  0  0  0  0  0  0  0  0  0
   -2.1156   -2.8590   -8.4719 H   0  0  0  0  0  0  0  0  0  0  0  0
   -0.6762   -1.6774    0.7782 H   0  0  0  0  0  0  0  0  0  0  0  0
   -0.6715   -1.9172    2.5244 H   0  0  0  0  0  0  0  0  0  0  0  0
   -0.1737    0.4139    2.9734 H   0  0  0  0  0  0  0  0  0  0  0  0
   -0.3090    0.8515    1.2748 H   0  0  0  0  0  0  0  0  0  0  0  0
    1.0100   -0.1946    1.8197 H   0  0  0  0  0  0  0  0  0  0  0  0
   -0.4234   -0.3071   -0.5817 H   0  0  0  0  0  0  0  0  0  0  0  0
   -0.5145   -0.0955   -2.3265 H   0  0  0  0  0  0  0  0  0  0  0  0
   -2.1519    1.7486   -2.0471 H   0  0  0  0  0  0  0  0  0  0  0  0
   -0.6747    2.0966   -1.1454 H   0  0  0  0  0  0  0  0  0  0  0  0
   -2.1250    1.5371   -0.2959 H   0  0  0  0  0  0  0  0  0  0  0  0
   -1.1873   -0.9716  -14.2400 H   0  0  0  0  0  0  0  0  0  0  0  0
   -0.6225    0.6732  -14.1064 H   0  0  0  0  0  0  0  0  0  0  0  0
   -2.6359    1.4714  -15.3945 H   0  0  0  0  0  0  0  0  0  0  0  0
   -3.1977   -0.1960  -15.5332 H   0  0  0  0  0  0  0  0  0  0  0  0
   -1.6946    0.2978  -16.3168 H   0  0  0  0  0  0  0  0  0  0  0  0
   -6.1860    0.7439  -11.1553 H   0  0  0  0  0  0  0  0  0  0  0  0
   -5.3919    0.4918   -9.5799 H   0  0  0  0  0  0  0  0  0  0  0  0
   -5.2777    3.1006  -11.1698 H   0  0  0  0  0  0  0  0  0  0  0  0
   -4.5799    2.8029   -9.5690 H   0  0  0  0  0  0  0  0  0  0  0  0
   -6.3320    2.7933   -9.7836 H   0  0  0  0  0  0  0  0  0  0  0  0
    2.0896   -0.2318  -11.0443 H   0  0  0  0  0  0  0  0  0  0  0  0
    5.8636   -2.3918   -6.5238 H   0  0  0  0  0  0  0  0  0  0  0  0
    7.5296   -0.8686  -11.0594 H   0  0  0  0  0  0  0  0  0  0  0  0
    9.8334   -2.9140   -9.5623 H   0  0  0  0  0  0  0  0  0  0  0  0
   10.6620   -0.3903   -9.3638 H   0  0  0  0  0  0  0  0  0  0  0  0
   12.5084   -1.9550   -8.3399 H   0  0  0  0  0  0  0  0  0  0  0  0
   11.6771   -2.7599   -5.9484 H   0  0  0  0  0  0  0  0  0  0  0  0
    9.3207   -1.6889   -5.4984 H   0  0  0  0  0  0  0  0  0  0  0  0
    8.7700    0.0172   -7.5006 H   0  0  0  0  0  0  0  0  0  0  0  0
   10.3874    0.3330   -6.8322 H   0  0  0  0  0  0  0  0  0  0  0  0
    9.0174   -3.7021   -7.2174 H   0  0  0  0  0  0  0  0  0  0  0  0
  1  2  2  0  0  0  0
  2  3  1  0  0  0  0
  3  4  2  0  0  0  0
  3  5  1  0  0  0  0
  5  6  2  0  0  0  0
  6  7  1  0  0  0  0
  7  8  2  0  0  0  0
  8  9  1  0  0  0  0
  9 10  2  0  0  0  0
 10 11  1  0  0  0  0
 11 12  2  0  0  0  0
 12 13  1  0  0  0  0
 13 14  3  0  0  0  0
 12 15  1  0  0  0  0
 15 16  3  0  0  0  0
  8 17  1  0  0  0  0
 17 18  1  0  0  0  0
 18 19  1  0  0  0  0
 19 20  2  0  0  0  0
 20 21  1  0  0  0  0
 21 22  1  0  0  0  0
 21 23  1  0  0  0  0
  1 24  1  0  0  0  0
 24 25  1  0  0  0  0
 25 26  1  0  0  0  0
 26 27  2  0  0  0  0
 27 28  1  0  0  0  0
 28 29  2  0  0  0  0
 28 30  1  0  0  0  0
 30 31  2  0  0  0  0
 31 32  1  0  0  0  0
 32 33  1  0  0  0  0
 31 34  1  0  0  0  0
 34 35  1  0  0  0  0
 35 36  1  0  0  0  0
 36 37  1  0  0  0  0
 35 38  2  0  0  0  0
 38 39  1  0  0  0  0
 39 40  2  0  0  0  0
 39 41  1  0  0  0  0
 26 42  1  0  0  0  0
 42 43  2  0  0  0  0
 43 44  1  0  0  0  0
 44 45  2  0  0  0  0
 45 46  1  0  0  0  0
 46 47  2  0  0  0  0
 47 48  1  0  0  0  0
 48 49  1  0  0  0  0
 49 50  1  0  0  0  0
 48 51  2  0  0  0  0
 43 52  1  0  0  0  0
 52 53  1  0  0  0  0
 53 54  1  0  0  0  0
 54 55  1  0  0  0  0
 55 56  1  0  0  0  0
 56 57  1  0  0  0  0
 57 58  2  0  0  0  0
 58 59  1  0  0  0  0
 59 60  1  0  0  0  0
 57 61  1  0  0  0  0
 61 62  1  0  0  0  0
 62 63  1  0  0  0  0
 63 64  1  0  0  0  0
 64 65  1  0  0  0  0
 65 66  1  0  0  0  0
 66 67  2  0  0  0  0
 67 68  1  0  0  0  0
 68 69  2  0  0  0  0
 69 70  1  0  0  0  0
 70 71  1  0  0  0  0
 71 72  1  0  0  0  0
 70 73  2  0  0  0  0
 65 74  2  0  0  0  0
 74 75  1  0  0  0  0
 75 76  1  0  0  0  0
 76 77  1  0  0  0  0
 77 78  1  0  0  0  0
 78 79  1  0  0  0  0
 79 80  1  0  0  0  0
 80 81  1  0  0  0  0
 81 82  1  0  0  0  0
 82 83  1  0  0  0  0
 83 84  1  0  0  0  0
 81 85  1  0  0  0  0
 85 86  1  0  0  0  0
 78 87  1  0  0  0  0
 87 88  1  0  0  0  0
 74 89  1  0  0  0  0
 89 90  1  0  0  0  0
 90 91  1  0  0  0  0
 91 92  2  0  0  0  0
 92 93  1  0  0  0  0
 93 94  2  0  0  0  0
 93 95  1  0  0  0  0
 95 96  2  0  0  0  0
 96 97  1  0  0  0  0
 97 98  1  0  0  0  0
 96 99  1  0  0  0  0
 99100  1  0  0  0  0
100101  1  0  0  0  0
101102  1  0  0  0  0
100103  2  0  0  0  0
103104  1  0  0  0  0
104105  2  0  0  0  0
104106  1  0  0  0  0
 91107  1  0  0  0  0
107108  2  0  0  0  0
108109  1  0  0  0  0
109110  2  0  0  0  0
109111  1  0  0  0  0
111112  2  0  0  0  0
112113  1  0  0  0  0
113114  2  0  0  0  0
114115  1  0  0  0  0
115116  2  0  0  0  0
116117  1  0  0  0  0
117118  2  0  0  0  0
118119  1  0  0  0  0
119120  3  0  0  0  0
118121  1  0  0  0  0
121122  3  0  0  0  0
114123  1  0  0  0  0
123124  1  0  0  0  0
124125  1  0  0  0  0
125126  2  0  0  0  0
126127  1  0  0  0  0
127128  1  0  0  0  0
127129  1  0  0  0  0
 11  2  1  0  0  0  0
 23 17  1  0  0  0  0
 41 24  2  0  0  0  0
 84 42  1  0  0  0  0
106 89  2  0  0  0  0
117108  1  0  0  0  0
129123  1  0  0  0  0
 10  5  1  0  0  0  0
 22 18  1  0  0  0  0
 41 27  1  0  0  0  0
 51 44  1  0  0  0  0
 83 52  2  0  0  0  0
106 92  1  0  0  0  0
116111  1  0  0  0  0
128124  1  0  0  0  0
 23  7  1  0  0  0  0
 38 30  1  0  0  0  0
 82 54  2  0  0  0  0
103 95  1  0  0  0  0
129113  1  0  0  0  0
 80 55  2  0  0  0  0
 60 56  2  0  0  0  0
 79 61  2  0  0  0  0
 77 62  2  0  0  0  0
 76 64  2  0  0  0  0
 73 66  1  0  0  0  0
  1130  1  0  0  0  0
  6131  1  0  0  0  0
  9132  1  0  0  0  0
 17133  1  0  0  0  0
 18134  1  0  0  0  0
 19135  1  0  0  0  0
 20136  1  0  0  0  0
 21137  1  0  0  0  0
 22138  1  0  0  0  0
 22139  1  0  0  0  0
 23140  1  0  0  0  0
 32141  1  0  0  0  0
 32142  1  0  0  0  0
 33143  1  0  0  0  0
 33144  1  0  0  0  0
 33145  1  0  0  0  0
 36146  1  0  0  0  0
 36147  1  0  0  0  0
 37148  1  0  0  0  0
 37149  1  0  0  0  0
 37150  1  0  0  0  0
 45151  1  0  0  0  0
 46152  1  0  0  0  0
 47153  1  0  0  0  0
 49154  1  0  0  0  0
 49155  1  0  0  0  0
 50156  1  0  0  0  0
 50157  1  0  0  0  0
 50158  1  0  0  0  0
 51159  1  0  0  0  0
 67160  1  0  0  0  0
 68161  1  0  0  0  0
 69162  1  0  0  0  0
 71163  1  0  0  0  0
 71164  1  0  0  0  0
 72165  1  0  0  0  0
 72166  1  0  0  0  0
 72167  1  0  0  0  0
 73168  1  0  0  0  0
 85169  1  0  0  0  0
 85170  1  0  0  0  0
 86171  1  0  0  0  0
 86172  1  0  0  0  0
 86173  1  0  0  0  0
 87174  1  0  0  0  0
 87175  1  0  0  0  0
 88176  1  0  0  0  0
 88177  1  0  0  0  0
 88178  1  0  0  0  0
 97179  1  0  0  0  0
 97180  1  0  0  0  0
 98181  1  0  0  0  0
 98182  1  0  0  0  0
 98183  1  0  0  0  0
101184  1  0  0  0  0
101185  1  0  0  0  0
102186  1  0  0  0  0
102187  1  0  0  0  0
102188  1  0  0  0  0
107189  1  0  0  0  0
112190  1  0  0  0  0
115191  1  0  0  0  0
123192  1  0  0  0  0
124193  1  0  0  0  0
125194  1  0  0  0  0
126195  1  0  0  0  0
127196  1  0  0  0  0
128197  1  0  0  0  0
128198  1  0  0  0  0
129199  1  0  0  0  0
M  END
