183

C         -6.87360        9.79760       -5.97110
C         -5.76370       10.19430       -6.63790
C         -4.39010       10.28730       -6.06050
O         -4.05390       10.09080       -4.91420
C         -3.53080       10.77610       -7.15210
C         -2.15150       10.96690       -7.09770
C         -1.60260       11.41870       -8.27260
C         -2.37050       11.66790       -9.41960
C         -3.73070       11.48890       -9.48530
C         -4.31200       11.02900       -8.29800
C         -5.70560       10.72100       -7.99670
C         -6.75830       10.87680       -8.85800
C         -8.10650       10.56340       -8.58070
N         -9.22490       10.33810       -8.44820
C         -6.65310       11.39480      -10.16730
N         -6.65040       11.81160      -11.23680
C         -1.17170       12.10410      -10.22350
C         -0.96840       13.62320      -10.44710
C         -1.63220       14.32070       -9.28570
C         -0.90550       14.08370       -8.20180
C          0.26310       13.22120       -8.61070
C          0.50630       13.75110      -10.03290
C         -0.31690       11.82500       -8.94720
C         -6.91670        9.13070       -4.69020
C         -5.95430        8.17470       -4.32460
C         -6.07090        7.55680       -3.10500
C         -5.19270        6.52180       -2.49670
O         -4.21980        5.99430       -2.97930
C         -5.80090        6.26660       -1.16370
C         -6.96040        7.05330       -1.01530
C         -7.12460        7.85920       -2.21690
C         -8.08900        8.78030       -2.58390
C         -7.98400        9.39210       -3.82320
C         -7.71510        6.94600        0.13890
C         -7.29620        6.08160        1.13890
C         -6.12080        5.33200        1.01770
C         -5.37760        5.41840       -0.17110
C         -5.66530        4.45180        2.07030
C         -5.85700        4.52170        3.43540
C         -6.49200        5.63040        4.15290
C         -7.40370        5.37680        5.17300
C         -7.99030        6.43090        5.84830
C         -7.67580        7.73680        5.51520
C         -6.75310        8.00700        4.51190
C         -6.43330        9.41730        4.10710
C         -7.20800        9.79460        2.84260
C         -6.16190        6.94630        3.84410
C         -5.26970        3.41980        4.09570
S         -5.13790        2.97630        5.78250
C         -4.18680        1.60220        5.32450
C         -3.52380        0.51340        5.91610
C         -3.47810        0.06600        7.25420
C         -2.78230       -1.15260        7.55620
N         -2.86430       -1.47840        8.83660
S         -3.73710       -0.34650        9.59850
N         -4.04570        0.60260        8.32300
C         -2.07440       -1.80810        6.52570
C         -1.20750       -2.91330        6.55760
S         -0.60130       -4.08120        7.68400
C          0.39350       -4.75800        6.41430
C          1.33870       -5.80840        6.39270
C          1.71490       -6.54190        7.60360
C          3.05390       -6.75020        7.92700
C          3.38400       -7.39320        9.10380
C          2.39200       -7.82360        9.96940
C          1.05300       -7.61840        9.66530
C         -0.03230       -8.01780       10.62220
C         -0.45470       -6.81450       11.46770
C          0.72710       -6.97680        8.47930
C          1.89620       -5.95640        5.13960
S          1.27580       -4.78180        3.98920
C          0.24780       -4.09930        5.19480
C         -0.67260       -3.04530        5.27590
N         -1.19270       -2.09040        4.44520
C         -2.06720       -1.31570        5.19070
C         -2.89260       -0.20740        4.86380
N         -3.21060        0.40670        3.66260
C         -3.98860        1.49570        3.94770
C         -4.61460        2.53220        3.24320
S         -4.73780        3.03580        1.59860
C         -3.18750       -0.11810        2.31520
C         -3.92530       -1.45080        2.21870
C         -0.53180       -1.80280        3.19180
C          0.21390       -0.47180        3.24220
C          2.83360       -6.93930        4.64420
C          3.67060       -6.60910        3.56590
C          4.53880       -7.55590        3.08110
C          5.50380       -7.44960        1.95700
O          5.73190       -6.49210        1.25620
C          6.12620       -8.79830        1.88300
C          5.59090       -9.62090        2.89510
C          4.60250       -8.84960        3.63660
C          3.77240       -9.18260        4.69090
C          2.89290       -8.22950        5.18130
C          6.03690      -10.92250        3.02960
C          6.98690      -11.39660        2.13800
C          7.47540      -10.60610        1.09440
C          7.05230       -9.27080        0.98820
C          8.42490      -11.15360        0.15340
C          8.55030      -10.84490       -1.15430
C          9.79410      -11.20450       -1.90000
O         10.63820      -11.99600       -1.54980
C          9.78720      -10.34830       -3.09940
C         10.80510      -10.20700       -4.04150
C         10.52270       -9.30860       -5.04170
C          9.32330       -8.58350       -5.09620
C          8.30940       -8.71260       -4.17830
C          8.56800       -9.63900       -3.16440
C          7.71760      -10.06760       -2.05960
C          6.35420       -9.97030       -2.02300
C          5.58590       -9.31070       -3.00580
N          4.91660       -8.79010       -3.77900
C          5.54140      -10.60500       -1.05940
N          4.82330      -11.14540       -0.34560
C          9.72300       -7.86350       -6.35890
C          9.08220       -8.33720       -7.68670
C          8.72140       -9.78940       -7.49300
C          9.85050      -10.48380       -7.44660
C         10.99510       -9.51390       -7.60770
C         10.34710       -8.48440       -8.54730
C         11.05390       -8.67810       -6.30440
H         -7.84230        9.98460       -6.41780
H         -1.60070       10.75750       -6.19410
H         -4.30390       11.68350      -10.37600
H         -0.96000       11.52130      -11.11770
H         -1.24320       13.97380      -11.43820
H         -2.56400       14.85030       -9.35900
H         -1.10870       14.37550       -7.18810
H          1.11020       13.20590       -7.93010
H          0.85860       14.78130      -10.04360
H          1.17790       13.12630      -10.62000
H          0.45330       11.05850       -9.00670
H         -5.15520        7.90140       -4.99420
H         -8.91220        9.01760       -1.92710
H         -8.73120       10.11290       -4.12380
H         -8.62290        7.51640        0.26610
H         -7.89370        5.97900        2.03130
H         -4.47780        4.83510       -0.30240
H         -7.65930        4.35850        5.42390
H         -8.70020        6.23190        6.63740
H         -8.14500        8.55460        6.04290
H         -6.69670       10.10500        4.91260
H         -5.36300        9.51190        3.91230
H         -8.27850        9.70840        3.01690
H         -6.98510       10.81820        2.55080
H         -6.93940        9.13300        2.02140
H         -5.43090        7.14200        3.07230
H          3.82730       -6.39820        7.26040
H          4.42280       -7.55240        9.35340
H          2.66060       -8.31960       10.89100
H          0.32210       -8.81600       11.27720
H         -0.89740       -8.38760       10.06770
H         -1.24570       -7.09420       12.15950
H         -0.81700       -6.01190       10.82930
H          0.39130       -6.43990       12.03970
H         -0.31200       -6.82120        8.22790
H         -2.16370       -0.19760        1.94750
H         -3.69450        0.61880        1.68740
H         -4.96740       -1.31900        2.50060
H         -3.88680       -1.82200        1.19810
H         -3.48740       -2.19390        2.88070
H         -1.24150       -1.83550        2.36480
H          0.18610       -2.61010        3.02770
H          0.97720       -0.50400        4.01630
H          0.69690       -0.28180        2.28750
H         -0.46080        0.35090        3.46630
H          3.63810       -5.62360        3.12440
H          3.78950      -10.17190        5.12210
H          2.22450       -8.49170        5.98680
H          5.65250      -11.56510        3.80680
H          7.33200      -12.41690        2.22000
H          7.46240       -8.61700        0.23230
H          9.15620      -11.85340        0.54520
H         11.71950      -10.77330       -3.95840
H          7.39550       -8.14300       -4.22090
H          9.78540       -6.77940       -6.29020
H          8.29210       -7.69250       -8.06170
H          7.71630      -10.14280       -7.35610
H          9.97760      -11.53470       -7.26370
H         11.94700       -9.94070       -7.91260
H         10.91840       -7.56180       -8.64090
H         10.13850       -8.89000       -9.53600
H         11.98730       -8.12690       -6.20740
