
  xtb     02182212273D
 energy: -357.380974033760 gnorm: 0.000980698135 xtb: 6.4.1 (unknown)
217243  0     0  0            999 V2000
    6.8975    7.1911    5.1921 C   0  0  0  0  0  0  0  0  0  0  0  0
    6.7925    7.3177    6.5476 C   0  0  0  0  0  0  0  0  0  0  0  0
    6.0675    6.4203    7.4622 C   0  0  0  0  0  0  0  0  0  0  0  0
    5.6546    5.2978    7.2338 O   0  0  0  0  0  0  0  0  0  0  0  0
    5.9049    7.1687    8.7198 C   0  0  0  0  0  0  0  0  0  0  0  0
    5.1961    6.7637    9.8497 C   0  0  0  0  0  0  0  0  0  0  0  0
    5.1924    7.6870   10.8669 C   0  0  0  0  0  0  0  0  0  0  0  0
    5.8424    8.9252   10.7700 C   0  0  0  0  0  0  0  0  0  0  0  0
    6.5479    9.3360    9.6638 C   0  0  0  0  0  0  0  0  0  0  0  0
    6.5682    8.4093    8.6169 C   0  0  0  0  0  0  0  0  0  0  0  0
    7.2045    8.4862    7.3049 C   0  0  0  0  0  0  0  0  0  0  0  0
    8.0980    9.4385    6.8939 C   0  0  0  0  0  0  0  0  0  0  0  0
    8.8243    9.3986    5.6824 C   0  0  0  0  0  0  0  0  0  0  0  0
    9.4985    9.4227    4.7535 N   0  0  0  0  0  0  0  0  0  0  0  0
    8.4726   10.5582    7.6654 C   0  0  0  0  0  0  0  0  0  0  0  0
    8.8190   11.4864    8.2456 N   0  0  0  0  0  0  0  0  0  0  0  0
    5.4167    9.3466   12.1546 C   0  0  0  0  0  0  0  0  0  0  0  0
    6.4874    9.2598   13.2626 C   0  0  0  0  0  0  0  0  0  0  0  0
    5.6834    9.2605   14.5428 C   0  0  0  0  0  0  0  0  0  0  0  0
    5.0699    8.0876   14.6349 C   0  0  0  0  0  0  0  0  0  0  0  0
    5.4486    7.2744   13.4181 C   0  0  0  0  0  0  0  0  0  0  0  0
    6.8809    7.7783   13.1991 C   0  0  0  0  0  0  0  0  0  0  0  0
    4.6938    7.9655   12.2628 C   0  0  0  0  0  0  0  0  0  0  0  0
    6.5156    6.1189    4.3624 C   0  0  0  0  0  0  0  0  0  0  0  0
    6.1096    4.5233    4.9283 S   0  0  0  0  0  0  0  0  0  0  0  0
    5.9447    3.9206    3.3045 C   0  0  0  0  0  0  0  0  0  0  0  0
    6.1643    4.9367    2.3631 C   0  0  0  0  0  0  0  0  0  0  0  0
    6.1184    4.7547    0.9180 C   0  0  0  0  0  0  0  0  0  0  0  0
    5.6768    3.7471    0.3720 O   0  0  0  0  0  0  0  0  0  0  0  0
    6.6622    5.8729    0.1580 C   0  0  0  0  0  0  0  0  0  0  0  0
    6.8976    5.8563   -1.1951 C   0  0  0  0  0  0  0  0  0  0  0  0
    6.6517    4.7395   -2.1434 C   0  0  0  0  0  0  0  0  0  0  0  0
    7.2804    4.9598   -3.5118 C   0  0  0  0  0  0  0  0  0  0  0  0
    7.5522    7.3691   -1.7239 S   0  0  0  0  0  0  0  0  0  0  0  0
    7.4823    8.0428   -0.1306 C   0  0  0  0  0  0  0  0  0  0  0  0
    7.9148    9.4347    0.1486 C   0  0  0  0  0  0  0  0  0  0  0  0
    8.6844   10.0698   -1.0005 C   0  0  0  0  0  0  0  0  0  0  0  0
    6.9940    7.1231    0.7646 C   0  0  0  0  0  0  0  0  0  0  0  0
    6.8020    7.3827    2.1862 C   0  0  0  0  0  0  0  0  0  0  0  0
    6.8804    8.5026    2.6692 O   0  0  0  0  0  0  0  0  0  0  0  0
    6.5036    6.1693    2.9648 C   0  0  0  0  0  0  0  0  0  0  0  0
    5.5406    2.5731    3.1378 C   0  0  0  0  0  0  0  0  0  0  0  0
    5.6106    1.5919    4.1291 C   0  0  0  0  0  0  0  0  0  0  0  0
    6.3921    1.6903    5.3655 C   0  0  0  0  0  0  0  0  0  0  0  0
    7.7630    1.9298    5.3133 C   0  0  0  0  0  0  0  0  0  0  0  0
    8.4925    1.9929    6.4840 C   0  0  0  0  0  0  0  0  0  0  0  0
    7.8648    1.8265    7.7064 C   0  0  0  0  0  0  0  0  0  0  0  0
    6.5002    1.5788    7.7741 C   0  0  0  0  0  0  0  0  0  0  0  0
    5.8062    1.4614    9.0995 C   0  0  0  0  0  0  0  0  0  0  0  0
    5.4435    2.8549    9.6169 C   0  0  0  0  0  0  0  0  0  0  0  0
    5.7745    1.5021    6.5953 C   0  0  0  0  0  0  0  0  0  0  0  0
    4.8784    0.4553    3.7828 C   0  0  0  0  0  0  0  0  0  0  0  0
    4.6052   -1.0639    4.6077 S   0  0  0  0  0  0  0  0  0  0  0  0
    3.5987   -1.5567    3.2887 C   0  0  0  0  0  0  0  0  0  0  0  0
    2.8318   -2.6632    2.8983 C   0  0  0  0  0  0  0  0  0  0  0  0
    2.6940   -3.9452    3.4744 C   0  0  0  0  0  0  0  0  0  0  0  0
    1.9068   -4.9317    2.7920 C   0  0  0  0  0  0  0  0  0  0  0  0
    1.9079   -6.0994    3.4145 N   0  0  0  0  0  0  0  0  0  0  0  0
    2.8187   -5.9687    4.7477 S   0  0  0  0  0  0  0  0  0  0  0  0
    3.2461   -4.4148    4.5815 N   0  0  0  0  0  0  0  0  0  0  0  0
    1.1942   -4.5526    1.6331 C   0  0  0  0  0  0  0  0  0  0  0  0
    0.2105   -5.2320    0.8988 C   0  0  0  0  0  0  0  0  0  0  0  0
   -0.6039   -6.7621    0.8807 S   0  0  0  0  0  0  0  0  0  0  0  0
   -1.6682   -6.1517   -0.3723 C   0  0  0  0  0  0  0  0  0  0  0  0
   -2.7969   -6.6920   -1.0123 C   0  0  0  0  0  0  0  0  0  0  0  0
   -3.3424   -8.0043   -0.6600 C   0  0  0  0  0  0  0  0  0  0  0  0
   -2.5061   -9.1124   -0.5622 C   0  0  0  0  0  0  0  0  0  0  0  0
   -3.0305  -10.3400   -0.2028 C   0  0  0  0  0  0  0  0  0  0  0  0
   -4.3822  -10.4733    0.0628 C   0  0  0  0  0  0  0  0  0  0  0  0
   -5.2282   -9.3731   -0.0106 C   0  0  0  0  0  0  0  0  0  0  0  0
   -6.7050   -9.5085    0.2249 C   0  0  0  0  0  0  0  0  0  0  0  0
   -7.4454   -9.6061   -1.1109 C   0  0  0  0  0  0  0  0  0  0  0  0
   -4.6954   -8.1436   -0.3637 C   0  0  0  0  0  0  0  0  0  0  0  0
   -3.3606   -5.7809   -1.8996 C   0  0  0  0  0  0  0  0  0  0  0  0
   -2.5304   -4.2367   -1.8937 S   0  0  0  0  0  0  0  0  0  0  0  0
   -1.3758   -4.8415   -0.7567 C   0  0  0  0  0  0  0  0  0  0  0  0
   -0.2957   -4.3236   -0.0340 C   0  0  0  0  0  0  0  0  0  0  0  0
    0.3573   -3.1268    0.0727 N   0  0  0  0  0  0  0  0  0  0  0  0
    1.2883   -3.2372    1.0881 C   0  0  0  0  0  0  0  0  0  0  0  0
    2.2118   -2.3218    1.6610 C   0  0  0  0  0  0  0  0  0  0  0  0
    2.6516   -1.0639    1.2912 N   0  0  0  0  0  0  0  0  0  0  0  0
    3.4843   -0.5995    2.2750 C   0  0  0  0  0  0  0  0  0  0  0  0
    4.2332    0.5528    2.5426 C   0  0  0  0  0  0  0  0  0  0  0  0
    4.6318    2.0273    1.7350 S   0  0  0  0  0  0  0  0  0  0  0  0
    2.6066   -0.3887    0.0145 C   0  0  0  0  0  0  0  0  0  0  0  0
    1.7826    0.8982    0.0599 C   0  0  0  0  0  0  0  0  0  0  0  0
   -0.1784   -1.9788   -0.6206 C   0  0  0  0  0  0  0  0  0  0  0  0
    0.1574   -1.9915   -2.1104 C   0  0  0  0  0  0  0  0  0  0  0  0
   -4.4434   -5.9477   -2.8202 C   0  0  0  0  0  0  0  0  0  0  0  0
   -4.9135   -7.1795   -3.2698 C   0  0  0  0  0  0  0  0  0  0  0  0
   -5.9187   -7.2730   -4.2194 C   0  0  0  0  0  0  0  0  0  0  0  0
   -6.5160   -6.1550   -4.7921 C   0  0  0  0  0  0  0  0  0  0  0  0
   -6.1224   -4.8777   -4.2990 C   0  0  0  0  0  0  0  0  0  0  0  0
   -6.8104   -3.7711   -4.5987 N   0  0  0  0  0  0  0  0  0  0  0  0
   -6.3771   -2.5959   -4.2129 C   0  0  0  0  0  0  0  0  0  0  0  0
   -7.2687   -1.4527   -4.4103 C   0  0  0  0  0  0  0  0  0  0  0  0
   -7.2925   -0.3799   -3.5199 C   0  0  0  0  0  0  0  0  0  0  0  0
   -8.1575    0.6760   -3.7251 C   0  0  0  0  0  0  0  0  0  0  0  0
   -9.0231    0.6938   -4.8127 C   0  0  0  0  0  0  0  0  0  0  0  0
   -9.9877    1.8265   -5.0077 C   0  0  0  0  0  0  0  0  0  0  0  0
  -11.2973    1.5434   -4.2684 C   0  0  0  0  0  0  0  0  0  0  0  0
   -9.0163   -0.3907   -5.6821 C   0  0  0  0  0  0  0  0  0  0  0  0
   -8.1552   -1.4503   -5.4858 C   0  0  0  0  0  0  0  0  0  0  0  0
   -5.1018   -2.4912   -3.5648 C   0  0  0  0  0  0  0  0  0  0  0  0
   -4.5449   -3.5800   -3.0962 N   0  0  0  0  0  0  0  0  0  0  0  0
   -5.0457   -4.7848   -3.3822 C   0  0  0  0  0  0  0  0  0  0  0  0
   -4.3713   -1.2351   -3.3975 C   0  0  0  0  0  0  0  0  0  0  0  0
   -3.6690   -0.9865   -2.2208 C   0  0  0  0  0  0  0  0  0  0  0  0
   -2.9530    0.1837   -2.0703 C   0  0  0  0  0  0  0  0  0  0  0  0
   -2.9069    1.1275   -3.0898 C   0  0  0  0  0  0  0  0  0  0  0  0
   -2.0861    2.3753   -2.9365 C   0  0  0  0  0  0  0  0  0  0  0  0
   -0.6343    2.1158   -3.3448 C   0  0  0  0  0  0  0  0  0  0  0  0
   -3.5972    0.8677   -4.2682 C   0  0  0  0  0  0  0  0  0  0  0  0
   -4.3268   -0.2939   -4.4240 C   0  0  0  0  0  0  0  0  0  0  0  0
   -7.5248   -6.2664   -5.7994 C   0  0  0  0  0  0  0  0  0  0  0  0
   -7.7032   -5.3609   -6.7995 C   0  0  0  0  0  0  0  0  0  0  0  0
   -6.6827   -4.3699   -7.2328 C   0  0  0  0  0  0  0  0  0  0  0  0
   -5.5180   -4.2988   -6.8997 O   0  0  0  0  0  0  0  0  0  0  0  0
   -7.3295   -3.5685   -8.2906 C   0  0  0  0  0  0  0  0  0  0  0  0
   -6.7842   -2.4724   -8.9566 C   0  0  0  0  0  0  0  0  0  0  0  0
   -7.6126   -1.9248   -9.9054 C   0  0  0  0  0  0  0  0  0  0  0  0
   -8.8871   -2.4383  -10.1825 C   0  0  0  0  0  0  0  0  0  0  0  0
   -9.4315   -3.5259   -9.5434 C   0  0  0  0  0  0  0  0  0  0  0  0
   -8.6072   -4.0950   -8.5658 C   0  0  0  0  0  0  0  0  0  0  0  0
   -8.8440   -5.2385   -7.6873 C   0  0  0  0  0  0  0  0  0  0  0  0
   -9.9699   -6.0209   -7.6862 C   0  0  0  0  0  0  0  0  0  0  0  0
  -10.2023   -7.1167   -6.8290 C   0  0  0  0  0  0  0  0  0  0  0  0
  -10.4730   -8.0229   -6.1770 N   0  0  0  0  0  0  0  0  0  0  0  0
  -11.0639   -5.8528   -8.5600 C   0  0  0  0  0  0  0  0  0  0  0  0
  -11.9903   -5.7759   -9.2346 N   0  0  0  0  0  0  0  0  0  0  0  0
   -9.1614   -1.4016  -11.2442 C   0  0  0  0  0  0  0  0  0  0  0  0
  -10.0930   -0.2369  -10.8475 C   0  0  0  0  0  0  0  0  0  0  0  0
   -9.7954    0.8311  -11.8751 C   0  0  0  0  0  0  0  0  0  0  0  0
   -8.5890    1.3177  -11.6137 C   0  0  0  0  0  0  0  0  0  0  0  0
   -8.0508    0.5870  -10.4048 C   0  0  0  0  0  0  0  0  0  0  0  0
   -9.3565    0.3494   -9.6364 C   0  0  0  0  0  0  0  0  0  0  0  0
   -7.7408   -0.8291  -10.9350 C   0  0  0  0  0  0  0  0  0  0  0  0
    7.2774    8.0454    4.6423 H   0  0  0  0  0  0  0  0  0  0  0  0
    4.7042    5.8045    9.8823 H   0  0  0  0  0  0  0  0  0  0  0  0
    7.0341   10.2950    9.5983 H   0  0  0  0  0  0  0  0  0  0  0  0
    4.8184   10.2539   12.2107 H   0  0  0  0  0  0  0  0  0  0  0  0
    7.2840    9.9944   13.1838 H   0  0  0  0  0  0  0  0  0  0  0  0
    5.6021   10.1066   15.1997 H   0  0  0  0  0  0  0  0  0  0  0  0
    4.3736    7.7582   15.3837 H   0  0  0  0  0  0  0  0  0  0  0  0
    5.2990    6.1998   13.4814 H   0  0  0  0  0  0  0  0  0  0  0  0
    7.3177    7.4756   12.2493 H   0  0  0  0  0  0  0  0  0  0  0  0
    7.5459    7.4942   14.0129 H   0  0  0  0  0  0  0  0  0  0  0  0
    3.6131    7.9518   12.3922 H   0  0  0  0  0  0  0  0  0  0  0  0
    7.0250    3.8159   -1.6910 H   0  0  0  0  0  0  0  0  0  0  0  0
    5.5691    4.6066   -2.2437 H   0  0  0  0  0  0  0  0  0  0  0  0
    7.0823    4.1077   -4.1567 H   0  0  0  0  0  0  0  0  0  0  0  0
    8.3576    5.0824   -3.4225 H   0  0  0  0  0  0  0  0  0  0  0  0
    6.8717    5.8516   -3.9829 H   0  0  0  0  0  0  0  0  0  0  0  0
    8.5158    9.4321    1.0632 H   0  0  0  0  0  0  0  0  0  0  0  0
    7.0251   10.0303    0.3799 H   0  0  0  0  0  0  0  0  0  0  0  0
    9.5781    9.4925   -1.2277 H   0  0  0  0  0  0  0  0  0  0  0  0
    8.0684   10.1171   -1.8967 H   0  0  0  0  0  0  0  0  0  0  0  0
    8.9850   11.0796   -0.7352 H   0  0  0  0  0  0  0  0  0  0  0  0
    8.2466    2.0614    4.3559 H   0  0  0  0  0  0  0  0  0  0  0  0
    9.5568    2.1743    6.4439 H   0  0  0  0  0  0  0  0  0  0  0  0
    8.4415    1.8863    8.6184 H   0  0  0  0  0  0  0  0  0  0  0  0
    4.8970    0.8678    8.9886 H   0  0  0  0  0  0  0  0  0  0  0  0
    6.4560    0.9621    9.8214 H   0  0  0  0  0  0  0  0  0  0  0  0
    6.3455    3.4323    9.8091 H   0  0  0  0  0  0  0  0  0  0  0  0
    4.8699    2.7833   10.5391 H   0  0  0  0  0  0  0  0  0  0  0  0
    4.8584    3.3855    8.8696 H   0  0  0  0  0  0  0  0  0  0  0  0
    4.7113    1.3142    6.6295 H   0  0  0  0  0  0  0  0  0  0  0  0
   -1.4542   -9.0111   -0.7822 H   0  0  0  0  0  0  0  0  0  0  0  0
   -2.3805  -11.1995   -0.1325 H   0  0  0  0  0  0  0  0  0  0  0  0
   -4.7849  -11.4380    0.3357 H   0  0  0  0  0  0  0  0  0  0  0  0
   -7.0726   -8.6403    0.7761 H   0  0  0  0  0  0  0  0  0  0  0  0
   -6.9079  -10.4017    0.8183 H   0  0  0  0  0  0  0  0  0  0  0  0
   -7.2687   -8.7145   -1.7093 H   0  0  0  0  0  0  0  0  0  0  0  0
   -7.0975  -10.4701   -1.6729 H   0  0  0  0  0  0  0  0  0  0  0  0
   -8.5155   -9.7074   -0.9472 H   0  0  0  0  0  0  0  0  0  0  0  0
   -5.3386   -7.2760   -0.4109 H   0  0  0  0  0  0  0  0  0  0  0  0
    2.2319   -1.0814   -0.7354 H   0  0  0  0  0  0  0  0  0  0  0  0
    3.6349   -0.1246   -0.2571 H   0  0  0  0  0  0  0  0  0  0  0  0
    2.2947    1.6495    0.6535 H   0  0  0  0  0  0  0  0  0  0  0  0
    1.6584    1.2860   -0.9473 H   0  0  0  0  0  0  0  0  0  0  0  0
    0.8012    0.7350    0.5001 H   0  0  0  0  0  0  0  0  0  0  0  0
   -1.2686   -2.0182   -0.5212 H   0  0  0  0  0  0  0  0  0  0  0  0
    0.1711   -1.0720   -0.1361 H   0  0  0  0  0  0  0  0  0  0  0  0
   -0.2780   -1.1187   -2.5888 H   0  0  0  0  0  0  0  0  0  0  0  0
   -0.2647   -2.8765   -2.5775 H   0  0  0  0  0  0  0  0  0  0  0  0
    1.2310   -1.9941   -2.2855 H   0  0  0  0  0  0  0  0  0  0  0  0
   -4.4574   -8.0855   -2.9043 H   0  0  0  0  0  0  0  0  0  0  0  0
   -6.2147   -8.2520   -4.5683 H   0  0  0  0  0  0  0  0  0  0  0  0
   -6.6476   -0.3811   -2.6538 H   0  0  0  0  0  0  0  0  0  0  0  0
   -8.1642    1.5008   -3.0269 H   0  0  0  0  0  0  0  0  0  0  0  0
  -10.1963    1.9562   -6.0716 H   0  0  0  0  0  0  0  0  0  0  0  0
   -9.5531    2.7532   -4.6275 H   0  0  0  0  0  0  0  0  0  0  0  0
  -11.7512    0.6279   -4.6405 H   0  0  0  0  0  0  0  0  0  0  0  0
  -11.1122    1.4244   -3.2033 H   0  0  0  0  0  0  0  0  0  0  0  0
  -11.9986    2.3622   -4.4103 H   0  0  0  0  0  0  0  0  0  0  0  0
   -9.6999   -0.4029   -6.5190 H   0  0  0  0  0  0  0  0  0  0  0  0
   -8.1506   -2.2885   -6.1648 H   0  0  0  0  0  0  0  0  0  0  0  0
   -3.7094   -1.7153   -1.4264 H   0  0  0  0  0  0  0  0  0  0  0  0
   -2.4250    0.3750   -1.1466 H   0  0  0  0  0  0  0  0  0  0  0  0
   -2.4983    3.1693   -3.5616 H   0  0  0  0  0  0  0  0  0  0  0  0
   -2.1110    2.7101   -1.8974 H   0  0  0  0  0  0  0  0  0  0  0  0
   -0.1973    1.3433   -2.7156 H   0  0  0  0  0  0  0  0  0  0  0  0
   -0.0425    3.0222   -3.2425 H   0  0  0  0  0  0  0  0  0  0  0  0
   -0.5857    1.7828   -4.3791 H   0  0  0  0  0  0  0  0  0  0  0  0
   -3.5641    1.5881   -5.0730 H   0  0  0  0  0  0  0  0  0  0  0  0
   -4.8515   -0.4858   -5.3483 H   0  0  0  0  0  0  0  0  0  0  0  0
   -8.1860   -7.1193   -5.7218 H   0  0  0  0  0  0  0  0  0  0  0  0
   -5.7949   -2.1160   -8.7152 H   0  0  0  0  0  0  0  0  0  0  0  0
  -10.4087   -3.9139   -9.7770 H   0  0  0  0  0  0  0  0  0  0  0  0
   -9.3624   -1.7862  -12.2422 H   0  0  0  0  0  0  0  0  0  0  0  0
  -11.1358   -0.5126  -10.7160 H   0  0  0  0  0  0  0  0  0  0  0  0
  -10.4475    1.0746  -12.6932 H   0  0  0  0  0  0  0  0  0  0  0  0
   -8.0322    2.0488  -12.1701 H   0  0  0  0  0  0  0  0  0  0  0  0
   -7.2339    1.0623   -9.8681 H   0  0  0  0  0  0  0  0  0  0  0  0
   -9.8058    1.2787   -9.2893 H   0  0  0  0  0  0  0  0  0  0  0  0
   -9.2534   -0.3430   -8.8036 H   0  0  0  0  0  0  0  0  0  0  0  0
   -6.9945   -0.8330  -11.7274 H   0  0  0  0  0  0  0  0  0  0  0  0
  1  2  2  0  0  0  0
  2  3  1  0  0  0  0
  3  4  2  0  0  0  0
  3  5  1  0  0  0  0
  5  6  2  0  0  0  0
  6  7  1  0  0  0  0
  7  8  2  0  0  0  0
  8  9  1  0  0  0  0
  9 10  2  0  0  0  0
 10 11  1  0  0  0  0
 11 12  2  0  0  0  0
 12 13  1  0  0  0  0
 13 14  3  0  0  0  0
 12 15  1  0  0  0  0
 15 16  3  0  0  0  0
  8 17  1  0  0  0  0
 17 18  1  0  0  0  0
 18 19  1  0  0  0  0
 19 20  2  0  0  0  0
 20 21  1  0  0  0  0
 21 22  1  0  0  0  0
 21 23  1  0  0  0  0
  1 24  1  0  0  0  0
 24 25  1  0  0  0  0
 25 26  1  0  0  0  0
 26 27  2  0  0  0  0
 27 28  1  0  0  0  0
 28 29  2  0  0  0  0
 28 30  1  0  0  0  0
 30 31  2  0  0  0  0
 31 32  1  0  0  0  0
 32 33  1  0  0  0  0
 31 34  1  0  0  0  0
 34 35  1  0  0  0  0
 35 36  1  0  0  0  0
 36 37  1  0  0  0  0
 35 38  2  0  0  0  0
 38 39  1  0  0  0  0
 39 40  2  0  0  0  0
 39 41  1  0  0  0  0
 26 42  1  0  0  0  0
 42 43  2  0  0  0  0
 43 44  1  0  0  0  0
 44 45  2  0  0  0  0
 45 46  1  0  0  0  0
 46 47  2  0  0  0  0
 47 48  1  0  0  0  0
 48 49  1  0  0  0  0
 49 50  1  0  0  0  0
 48 51  2  0  0  0  0
 43 52  1  0  0  0  0
 52 53  1  0  0  0  0
 53 54  1  0  0  0  0
 54 55  1  0  0  0  0
 55 56  1  0  0  0  0
 56 57  1  0  0  0  0
 57 58  2  0  0  0  0
 58 59  1  0  0  0  0
 59 60  1  0  0  0  0
 57 61  1  0  0  0  0
 61 62  1  0  0  0  0
 62 63  1  0  0  0  0
 63 64  1  0  0  0  0
 64 65  1  0  0  0  0
 65 66  1  0  0  0  0
 66 67  2  0  0  0  0
 67 68  1  0  0  0  0
 68 69  2  0  0  0  0
 69 70  1  0  0  0  0
 70 71  1  0  0  0  0
 71 72  1  0  0  0  0
 70 73  2  0  0  0  0
 65 74  2  0  0  0  0
 74 75  1  0  0  0  0
 75 76  1  0  0  0  0
 76 77  1  0  0  0  0
 77 78  1  0  0  0  0
 78 79  1  0  0  0  0
 79 80  1  0  0  0  0
 80 81  1  0  0  0  0
 81 82  1  0  0  0  0
 82 83  1  0  0  0  0
 83 84  1  0  0  0  0
 81 85  1  0  0  0  0
 85 86  1  0  0  0  0
 78 87  1  0  0  0  0
 87 88  1  0  0  0  0
 74 89  1  0  0  0  0
 89 90  2  0  0  0  0
 90 91  1  0  0  0  0
 91 92  2  0  0  0  0
 92 93  1  0  0  0  0
 93 94  2  0  0  0  0
 94 95  1  0  0  0  0
 95 96  1  0  0  0  0
 96 97  2  0  0  0  0
 97 98  1  0  0  0  0
 98 99  2  0  0  0  0
 99100  1  0  0  0  0
100101  1  0  0  0  0
 99102  1  0  0  0  0
102103  2  0  0  0  0
 95104  2  0  0  0  0
104105  1  0  0  0  0
105106  2  0  0  0  0
104107  1  0  0  0  0
107108  2  0  0  0  0
108109  1  0  0  0  0
109110  2  0  0  0  0
110111  1  0  0  0  0
111112  1  0  0  0  0
110113  1  0  0  0  0
113114  2  0  0  0  0
 92115  1  0  0  0  0
115116  2  0  0  0  0
116117  1  0  0  0  0
117118  2  0  0  0  0
117119  1  0  0  0  0
119120  2  0  0  0  0
120121  1  0  0  0  0
121122  2  0  0  0  0
122123  1  0  0  0  0
123124  2  0  0  0  0
124125  1  0  0  0  0
125126  2  0  0  0  0
126127  1  0  0  0  0
127128  3  0  0  0  0
126129  1  0  0  0  0
129130  3  0  0  0  0
122131  1  0  0  0  0
131132  1  0  0  0  0
132133  1  0  0  0  0
133134  2  0  0  0  0
134135  1  0  0  0  0
135136  1  0  0  0  0
135137  1  0  0  0  0
 11  2  1  0  0  0  0
 23 17  1  0  0  0  0
 41 24  2  0  0  0  0
 84 42  1  0  0  0  0
106 89  1  0  0  0  0
114107  1  0  0  0  0
125116  1  0  0  0  0
137131  1  0  0  0  0
 10  5  1  0  0  0  0
 22 18  1  0  0  0  0
 41 27  1  0  0  0  0
 51 44  1  0  0  0  0
 83 52  2  0  0  0  0
106 93  1  0  0  0  0
124119  1  0  0  0  0
136132  1  0  0  0  0
 23  7  1  0  0  0  0
 38 30  1  0  0  0  0
 82 54  2  0  0  0  0
103 96  1  0  0  0  0
137121  1  0  0  0  0
 80 55  2  0  0  0  0
 60 56  2  0  0  0  0
 79 61  2  0  0  0  0
 77 62  2  0  0  0  0
 76 64  2  0  0  0  0
 73 66  1  0  0  0  0
  1138  1  0  0  0  0
  6139  1  0  0  0  0
  9140  1  0  0  0  0
 17141  1  0  0  0  0
 18142  1  0  0  0  0
 19143  1  0  0  0  0
 20144  1  0  0  0  0
 21145  1  0  0  0  0
 22146  1  0  0  0  0
 22147  1  0  0  0  0
 23148  1  0  0  0  0
 32149  1  0  0  0  0
 32150  1  0  0  0  0
 33151  1  0  0  0  0
 33152  1  0  0  0  0
 33153  1  0  0  0  0
 36154  1  0  0  0  0
 36155  1  0  0  0  0
 37156  1  0  0  0  0
 37157  1  0  0  0  0
 37158  1  0  0  0  0
 45159  1  0  0  0  0
 46160  1  0  0  0  0
 47161  1  0  0  0  0
 49162  1  0  0  0  0
 49163  1  0  0  0  0
 50164  1  0  0  0  0
 50165  1  0  0  0  0
 50166  1  0  0  0  0
 51167  1  0  0  0  0
 67168  1  0  0  0  0
 68169  1  0  0  0  0
 69170  1  0  0  0  0
 71171  1  0  0  0  0
 71172  1  0  0  0  0
 72173  1  0  0  0  0
 72174  1  0  0  0  0
 72175  1  0  0  0  0
 73176  1  0  0  0  0
 85177  1  0  0  0  0
 85178  1  0  0  0  0
 86179  1  0  0  0  0
 86180  1  0  0  0  0
 86181  1  0  0  0  0
 87182  1  0  0  0  0
 87183  1  0  0  0  0
 88184  1  0  0  0  0
 88185  1  0  0  0  0
 88186  1  0  0  0  0
 90187  1  0  0  0  0
 91188  1  0  0  0  0
 97189  1  0  0  0  0
 98190  1  0  0  0  0
100191  1  0  0  0  0
100192  1  0  0  0  0
101193  1  0  0  0  0
101194  1  0  0  0  0
101195  1  0  0  0  0
102196  1  0  0  0  0
103197  1  0  0  0  0
108198  1  0  0  0  0
109199  1  0  0  0  0
111200  1  0  0  0  0
111201  1  0  0  0  0
112202  1  0  0  0  0
112203  1  0  0  0  0
112204  1  0  0  0  0
113205  1  0  0  0  0
114206  1  0  0  0  0
115207  1  0  0  0  0
120208  1  0  0  0  0
123209  1  0  0  0  0
131210  1  0  0  0  0
132211  1  0  0  0  0
133212  1  0  0  0  0
134213  1  0  0  0  0
135214  1  0  0  0  0
136215  1  0  0  0  0
136216  1  0  0  0  0
137217  1  0  0  0  0
M  END
