174

C          7.99700       -3.14890       -9.91120
C          8.80990       -3.52810       -8.89630
C          8.55650       -3.27300       -7.44700
O          7.58300       -2.76190       -6.94040
C          9.79010       -3.67630       -6.75070
C         10.01950       -3.62020       -5.37720
C         11.26510       -4.05800       -4.99950
C         12.21920       -4.51170       -5.92200
C         12.00630       -4.57270       -7.27770
C         10.74040       -4.13630       -7.68490
C         10.15840       -4.06790       -9.02000
C         10.75810       -4.49190      -10.17530
C         12.06660       -5.01590      -10.25370
N         13.12240       -5.44250      -10.39860
C         10.16590       -4.48200      -11.45670
N          9.75920       -4.52080      -12.52990
C         13.24410       -4.78080       -4.84920
C         14.39380       -3.75740       -4.67590
C         13.86610       -2.43080       -5.16330
C         12.96310       -2.00770       -4.28870
C         12.86310       -3.04130       -3.19410
C         14.31730       -3.53760       -3.15650
C         12.17980       -4.28150       -3.82170
C          6.63270       -2.69060       -9.78460
C          5.73920       -3.27090       -8.86870
C          4.46900       -2.75890       -8.77590
C          3.35940       -3.17020       -7.87400
O          3.33370       -4.09610       -7.09990
C          2.27970       -2.18520       -8.15310
C          2.69130       -1.31360       -9.18080
C          4.04830       -1.67100       -9.56940
C          4.90710       -1.13420      -10.51140
C          6.18420       -1.66170      -10.62060
C          1.84560       -0.30340       -9.60130
C          0.61470       -0.15580       -8.98100
C          0.20420       -1.00840       -7.95070
C          1.05980       -2.04360       -7.53940
C         -1.03920       -0.79180       -7.24420
C         -2.21080       -0.19320       -7.66200
C         -2.53880        0.16980       -9.04260
C         -2.26840       -0.70930      -10.08920
C         -2.61550       -0.36760      -11.38160
C         -3.23340        0.84370      -11.64270
C         -3.52070        1.72680      -10.61000
C         -4.15510        3.05870      -10.88990
C         -3.08080        4.12030      -11.13500
C         -3.16980        1.37870       -9.31390
C         -3.12040       -0.04230       -6.59080
S         -4.72650        0.64200       -6.47090
C         -4.74280        0.26520       -4.77950
C         -5.58190        0.39830       -3.65650
C         -6.90750        0.86270       -3.51020
C         -7.52580        0.81600       -2.21240
N         -8.78160        1.23330       -2.23680
S         -9.15490        1.65350       -3.75540
N         -7.72730        1.32030       -4.44310
C         -6.74960        0.43300       -1.09580
C         -6.99730        0.50290        0.28620
S         -8.27720        0.93400        1.37120
C         -7.18310        0.71100        2.71690
C         -7.32790        0.89550        4.11000
C         -8.56270        1.40230        4.71530
C         -9.79260        0.86520        4.34870
C        -10.95520        1.36270        4.90780
C        -10.90220        2.39630        5.82560
C         -9.68250        2.95200        6.19480
C         -9.62420        4.10780        7.15190
C         -9.73020        5.43340        6.39580
C         -8.52090        2.45190        5.62880
C         -6.15030        0.62690        4.77770
S         -4.85460        0.16740        3.68420
C         -5.90390        0.31840        2.32370
C         -5.79960        0.18770        0.93240
N         -4.83160       -0.10440        0.00870
C         -5.39610        0.02500       -1.24560
C         -4.86140       -0.12500       -2.54930
N         -3.64500       -0.61710       -2.99580
C         -3.57660       -0.36320       -4.34250
C         -2.65160       -0.54390       -5.37750
S         -1.07060       -1.21140       -5.53780
C         -2.88230       -1.72730       -2.46570
C         -3.31920       -3.04870       -3.09870
C         -3.43980       -0.14370        0.39810
C         -3.07560       -1.44840        1.10740
C         -5.85710        0.61880        6.19370
C         -4.54010        0.85240        6.62310
C         -4.26050        0.82520        7.96710
C         -2.95980        1.03160        8.65510
O         -1.88390        1.27030        8.16060
C         -3.28240        0.87760       10.09960
C         -4.65680        0.60490       10.24700
C         -5.26400        0.56940        8.92240
C         -6.55820        0.32220        8.50460
C         -6.84210        0.34060        7.14720
C         -5.18210        0.40390       11.50990
C         -4.33110        0.47620       12.60290
C         -2.97240        0.77750       12.46900
C         -2.44260        0.96900       11.18410
C         -2.14490        0.79990       13.66130
C         -1.07350        1.55120       13.97710
C         -0.38190        1.12280       15.21720
O         -0.87830        0.36850       16.02560
N          0.94340        1.51900       15.35680
C          1.77450        0.78040       16.30470
C          1.73870        1.42400       17.68420
C          1.51250        2.59110       14.71310
O          2.69480        2.81490       14.73990
C          0.48120        3.50070       14.05450
C          1.14100        4.51030       13.25610
N          1.63930        5.30310       12.60310
C         -0.53070        2.71870       13.19440
C         -1.64070        3.68320       12.76320
H          8.39200       -3.14480      -10.92000
H          9.25530       -3.26350       -4.70450
H         12.75120       -4.92400       -7.97190
H         13.58950       -5.80940       -4.76800
H         15.34690       -4.07590       -5.08920
H         14.15400       -1.97750       -6.09370
H         12.34520       -1.13050       -4.34240
H         12.42280       -2.70860       -2.25790
H         15.01260       -2.77640       -2.80580
H         14.44950       -4.45110       -2.57840
H         11.82650       -4.98570       -3.07110
H          6.02960       -4.11440       -8.26390
H          4.59830       -0.31870      -11.14780
H          6.87060       -1.24400      -11.34350
H          2.13960        0.38030      -10.38320
H         -0.03370        0.65320       -9.28040
H          0.76830       -2.71650       -6.74600
H         -1.79690       -1.65870       -9.88240
H         -2.40770       -1.05240      -12.19070
H         -3.50240        1.10280      -12.65660
H         -4.79630        2.98540      -11.77020
H         -4.77160        3.35880      -10.04060
H         -3.53880        5.08630      -11.33350
H         -2.46480        3.84600      -11.98880
H         -2.43590        4.21460      -10.26400
H         -3.38130        2.06140       -8.50370
H         -9.83350        0.05190        3.64010
H        -11.90810        0.94000        4.62580
H        -11.81460        2.77840        6.26030
H        -10.44500        4.03590        7.86860
H         -8.68300        4.08210        7.70520
H         -8.91330        5.52860        5.68410
H         -9.68790        6.27110        7.08800
H        -10.66820        5.48220        5.84730
H         -7.56630        2.88210        5.89780
H         -3.02710       -1.79340       -1.39420
H         -1.82440       -1.54520       -2.67930
H         -3.14910       -3.04130       -4.17190
H         -4.37800       -3.22100       -2.91590
H         -2.75040       -3.86660       -2.66510
H         -2.82080        0.02720       -0.48320
H         -3.26380        0.68740        1.09100
H         -2.00170       -1.49350        1.26470
H         -3.56600       -1.49800        2.07550
H         -3.38510       -2.31930        0.53350
H         -3.75540        1.05600        5.90910
H         -7.34160        0.10530        9.21490
H         -7.84530        0.12230        6.81580
H         -6.22940        0.18260       11.64900
H         -4.72780        0.31110       13.59420
H         -1.38960        1.14580       11.03230
H         -2.43240        0.07510       14.41700
H          1.38920       -0.23930       16.35260
H          2.79150        0.77990       15.90800
H          2.11350        2.44410       17.63540
H          0.72100        1.43250       18.06700
H          2.36410        0.85620       18.36710
H         -0.05630        4.00930       14.86810
H         -0.00170        2.35710       12.30360
H         -2.22530        3.99380       13.62740
H         -1.20300        4.56580       12.30140
H         -2.31050        3.22120       12.04560
