214

C          7.13430        0.52480       10.20110
C          8.13630       -0.30590       10.61700
C          8.06020       -1.77270       10.73770
O          7.07980       -2.48100       10.60770
C          9.42580       -2.23000       11.04540
C          9.85140       -3.54790       11.19360
C         11.19500       -3.67600       11.45030
C         12.05160       -2.57220       11.56000
C         11.64260       -1.26700       11.42520
C         10.27920       -1.11370       11.15570
C          9.49540        0.09880       10.93000
C          9.97780        1.37980       11.01450
C         11.31320        1.71290       11.32430
N         12.37910        2.06540       11.56610
C          9.23140        2.56110       10.82010
N          8.70750        3.57440       10.68170
C         13.26320       -3.43610       11.80510
C         14.24770       -3.64560       10.62790
C         13.44470       -3.47890        9.36170
C         12.63370       -4.52310        9.25620
C         12.87390       -5.41500       10.44910
C         14.37670       -5.17680       10.66660
C         12.30900       -4.66570       11.68170
C          5.81570        0.23760        9.79340
C          5.00240        1.21000        9.23890
C          3.75480        0.74140        8.80530
C          2.71610        1.47280        8.17060
C          2.87040        2.85900        7.80380
C          3.99250        3.48740        7.33030
C          3.87160        4.86240        7.06730
C          2.63820        5.39350        7.32980
S          2.22850        7.07250        7.09400
C          0.48320        7.06210        7.64700
C         -0.11690        8.44670        7.51980
Se         1.43900        4.07960        7.94810
C          1.55920        0.75930        7.89240
C          1.38410       -0.61050        8.20620
C          2.39790       -1.32450        8.88020
C          2.18110       -2.67530        9.34990
C          3.08420       -3.69750        9.45870
C          2.60690       -4.87900       10.05910
C          1.30560       -4.83240       10.46570
S          0.36090       -6.09270       11.23570
C          0.84100       -7.55470       10.24310
C          0.41870       -7.41580        8.79490
Se         0.51540       -3.18270       10.08130
C          3.58470       -0.63460        9.12000
S          5.01000       -1.31470        9.85000
C          0.17470       -1.12330        7.68190
C         -0.57700       -0.19910        7.01320
S          0.18120        1.38350        7.02350
C         -1.75130       -0.41390        6.23700
C         -2.57540       -1.52540        6.17950
C         -2.57110       -2.65410        7.11520
C         -2.55050       -3.95750        6.62940
C         -2.56870       -5.02260        7.51140
C         -2.62030       -4.79930        8.87490
C         -2.65300       -3.50270        9.37840
C         -2.75460       -3.26830       10.85790
C         -4.20680       -3.37060       11.32400
C         -2.62900       -2.43830        8.48950
C         -3.46090       -1.44310        5.08570
S         -4.63940       -2.55890        4.43240
C         -4.90850       -1.46680        3.11450
C         -5.55750       -1.44300        1.86930
C         -6.27450       -2.44830        1.18420
C         -6.56640       -2.26140       -0.20870
N         -7.16000       -3.31510       -0.74680
S         -7.34580       -4.44140        0.40200
N         -6.66710       -3.63130        1.62930
C         -6.23130       -1.03330       -0.81870
C         -6.36710       -0.58660       -2.14410
S         -6.77520       -1.21110       -3.70720
C         -6.33160        0.32490       -4.41390
C         -6.23480        0.77870       -5.74750
C         -6.57620       -0.00940       -6.93120
C         -6.21760       -1.35120       -7.01430
C         -6.52660       -2.07660       -8.14940
C         -7.19280       -1.47730       -9.20310
C         -7.56950       -0.14120       -9.13260
C         -8.33620        0.49940      -10.25390
C         -9.83680        0.25530      -10.08400
C         -7.26270        0.57920       -7.99030
C         -5.78430        2.08210       -5.80020
S         -5.51710        2.77440       -4.20570
C         -5.95100        1.27390       -3.46490
C         -5.94970        0.74440       -2.16810
N         -5.54220        1.13660       -0.92090
C         -5.66460        0.04110       -0.07750
C         -5.21630       -0.20910        1.24660
N         -4.38240        0.49120        2.10210
C         -4.17040       -0.28530        3.20840
C         -3.33800       -0.27280        4.33450
S         -2.12060        0.76380        4.98540
C         -3.52300        1.62440        1.85210
C         -2.47580        1.31270        0.78570
C         -5.47320        2.54730       -0.60650
C         -6.53240        2.94730        0.41680
C         -5.34400        2.83240       -6.93540
S         -4.41790        2.04510       -8.18860
C         -4.14190        3.56800       -8.95120
C         -3.32600        3.86100      -10.06780
C         -3.24660        5.20390      -10.46310
Ge        -4.39210        6.28800       -9.28010
C         -6.02760        6.98710      -10.21140
C         -5.71840        8.11210      -11.18680
C         -3.35450        7.65410       -8.23250
C         -2.33370        8.39270       -9.08550
C         -4.76240        4.62000       -8.28920
C         -5.42430        4.19310       -7.13770
C         -2.35100        5.36640      -11.49680
C         -1.70660        4.18330      -11.88600
S         -2.28830        2.82120      -10.94870
C         -0.69750        4.16590      -12.85650
C          0.14770        3.15380      -13.24040
C          0.18750        1.80490      -12.66660
O         -0.60580        1.30040      -11.89040
C          1.39670        1.16070      -13.20880
C          1.89580       -0.09630      -12.87640
C          3.07020       -0.41630      -13.51430
C          3.69980        0.44920      -14.41790
C          3.21530        1.69090      -14.75620
C          2.02110        2.03790      -14.11720
C          1.23090        3.26720      -14.19450
C          1.47790        4.31410      -15.04700
C          0.70690        5.49010      -15.14740
N          0.13500        6.47580      -15.29720
C          2.53780        4.35410      -15.97580
N          3.37390        4.45830      -16.75640
C          4.83760       -0.51000      -14.66730
C          4.79570       -1.30730      -15.98780
C          5.73030       -2.46890      -15.73760
C          5.13500       -3.28860      -14.88060
C          3.78790       -2.69480      -14.53710
C          3.44500       -2.02600      -15.87440
C          4.13560       -1.47470      -13.65850
H          7.37610        1.57760       10.11550
H          9.15590       -4.36750       11.10200
H         12.31640       -0.43140       11.51220
H         13.77600       -3.28110       12.75220
H         15.16260       -3.06340       10.69590
H         13.50620       -2.61740        8.72280
H         11.88190       -4.70810        8.51140
H         12.53890       -6.44460       10.35390
H         14.74330       -5.55750       11.61890
H         14.98700       -5.56860        9.85420
H         12.19980       -5.31550       12.54790
H          5.31650        2.23590        9.17000
H          4.90100        2.95040        7.11570
H          4.68310        5.45810        6.68680
H         -0.04710        6.33730        7.02180
H          0.47690        6.71800        8.68520
H         -1.15280        8.43120        7.85090
H          0.43490        9.15760        8.13010
H         -0.08460        8.78160        6.48570
H          4.09230       -3.62490        9.08830
H          3.23230       -5.74580       10.19010
H          0.33030       -8.38510       10.72940
H          1.91680       -7.69100       10.34310
H          0.90080       -6.55420        8.33580
H         -0.65820       -7.28320        8.72480
H          0.70020       -8.30860        8.24000
H         -0.09800       -2.16350        7.71360
H         -2.50210       -4.13320        5.56540
H         -2.54390       -6.03190        7.12680
H         -2.63400       -5.63170        9.56360
H         -2.15070       -4.01270       11.38610
H         -2.36260       -2.27730       11.10120
H         -4.81970       -2.62950       10.81510
H         -4.60800       -4.35670       11.10160
H         -4.27450       -3.20180       12.39590
H         -2.65890       -1.42500        8.86500
H         -5.68140       -1.81580       -6.20110
H         -6.23970       -3.11570       -8.21420
H         -7.42280       -2.04890      -10.09080
H         -8.14380        1.57430      -10.26630
H         -8.00910        0.08310      -11.20880
H        -10.04900       -0.81150      -10.08500
H        -10.39300        0.72110      -10.89420
H        -10.18290        0.67090       -9.14020
H         -7.56380        1.61530       -7.91580
H         -4.11590        2.50090        1.59150
H         -3.01830        1.84640        2.79580
H         -1.83960        0.49710        1.12130
H         -1.85350        2.18590        0.60950
H         -2.94280        1.01620       -0.15040
H         -4.47130        2.82570       -0.27550
H         -5.65740        3.08030       -1.54280
H         -6.41710        2.38920        1.34300
H         -6.45480        4.00940        0.63390
H         -7.52560        2.74520        0.02230
H         -6.48850        6.15100      -10.73750
H         -6.73540        7.32800       -9.45570
H         -6.62400        8.43230      -11.69920
H         -5.00010        7.78340      -11.93480
H         -5.30230        8.97130      -10.66490
H         -2.85170        7.13950       -7.41400
H         -4.05930        8.35870       -7.79170
H         -1.61330        7.69430       -9.50560
H         -1.79380        9.12300       -8.48530
H         -2.81770        8.91660       -9.90650
H         -5.95210        4.84640       -6.46390
H         -2.12660        6.30970      -11.96600
H         -0.54300        5.13180      -13.32290
H          1.38130       -0.72700      -12.16830
H          3.71940        2.34850      -15.44440
H          5.83180       -0.13810      -14.42640
H          4.97630       -0.71700      -16.88190
H          6.71860       -2.54390      -16.15190
H          5.52670       -4.18470      -14.43590
H          3.05050       -3.36900      -14.10970
H          3.29690       -2.75230      -16.67190
H          2.58870       -1.35580      -15.82820
H          4.66190       -1.74440      -12.74450
