169

C         -7.21140        5.30550        2.81910
C         -7.93980        4.96920        3.92230
C         -7.55200        4.03730        4.99480
O         -6.65730        3.21230        4.97570
C         -8.47630        4.29760        6.11000
C         -8.43690        3.72450        7.37920
C         -9.41810        4.17790        8.22700
C        -10.37340        5.12840        7.84000
C        -10.43150        5.69230        6.58760
C         -9.43920        5.24770        5.70980
C         -9.18460        5.60620        4.31750
C        -10.01440        6.32930        3.50390
C         -9.82940        6.51760        2.11530
N         -9.79210        6.67280        0.97830
C        -11.22230        6.92040        3.93050
N        -12.21070        7.42870        4.21820
C        -11.03160        5.13570        9.19640
C        -10.72660        6.32860       10.13640
C         -9.36760        6.85050        9.74050
C         -8.46540        5.95000       10.10680
C         -9.19820        4.80240       10.75700
C        -10.35970        5.56220       11.41720
C         -9.96930        4.07570        9.62700
C         -5.98870        4.78260        2.35310
S         -5.19530        3.37490        2.99790
C         -3.93590        3.45410        1.79940
C         -4.15690        4.51510        0.90530
C         -3.37720        4.77980       -0.29420
O         -2.45820        4.05620       -0.66950
C         -3.80860        5.94140       -1.06590
C         -3.21770        6.36650       -2.23080
C         -2.07950        5.77000       -2.97680
C         -2.55600        4.61450       -3.86210
S         -4.01970        7.76900       -2.85050
C         -5.13880        7.80880       -1.53150
C         -6.20280        8.84360       -1.48130
C         -7.56080        8.26230       -1.88860
C         -4.90420        6.77040       -0.66470
C         -5.64220        6.54530        0.57440
O         -6.44960        7.34570        1.02110
C         -5.28430        5.29210        1.25840
C         -2.91090        2.47700        1.86410
C         -2.66170        1.65060        2.96490
C         -3.20730        1.82060        4.31710
C         -3.86530        0.76990        4.94390
C         -4.35730        0.93470        6.22530
C         -4.19110        2.13630        6.88700
C         -3.51510        3.19030        6.28370
C         -3.37160        4.51070        6.98530
C         -4.58820        5.39460        6.70280
C         -3.02090        3.01900        5.00210
C         -1.74170        0.64510        2.65920
S         -1.06750       -0.66860        3.60210
C         -0.16030       -1.15710        2.20960
C          0.70480       -2.18690        1.80870
C          1.12870       -3.35660        2.47710
C          1.89890       -4.32890        1.75520
N          2.16940       -5.40160        2.48200
S          1.51730       -5.20300        3.95090
N          0.86170       -3.74160        3.71500
C          2.31480       -4.02890        0.43970
C          3.16700       -4.71420       -0.43980
S          4.04800       -6.20180       -0.51780
C          4.69030       -5.71060       -2.06660
C          5.58440       -6.32490       -2.96240
C          6.28720       -7.57650       -2.68050
C          7.66720       -7.65810       -2.85060
C          8.32380       -8.84400       -2.58730
C          7.61460       -9.95280       -2.15850
C          6.24090       -9.88180       -1.96640
C          5.45770      -11.09730       -1.56330
C          4.97100      -11.84040       -2.80940
C          5.58860       -8.68470       -2.21860
C          5.79220       -5.53960       -4.08320
S          4.93000       -4.01030       -3.99880
C          4.23790       -4.45340       -2.48010
C          3.35750       -3.88730       -1.55130
N          2.64220       -2.72900       -1.39960
C          1.96940       -2.80080       -0.19350
C          1.05240       -1.93030        0.45070
N          0.38540       -0.78840        0.03470
C         -0.35420       -0.33460        1.09640
C         -1.26840        0.69570        1.34320
S         -1.91950        2.03830        0.47620
C         -0.03580       -0.40060       -1.29470
C         -1.05250       -1.39420       -1.85320
C          2.94780       -1.58520       -2.22820
C          2.27750       -1.66740       -3.59880
C          6.54760       -5.83900       -5.26300
C          7.16660       -4.85100       -6.02040
C          7.94370       -5.12270       -7.14040
C          8.15420       -6.41680       -7.61120
C          7.48400       -7.45300       -6.89490
N          7.47290       -8.74770       -7.20040
S          6.52770       -9.52380       -6.15640
N          6.07970       -8.26230       -5.27210
C          6.67490       -7.16900       -5.74470
C          8.98100       -6.82980       -8.69560
C          9.63240       -6.16200       -9.69280
C          9.55590       -4.72520      -10.08420
O          9.03960       -3.79900       -9.49080
C         10.23760       -4.64520      -11.37780
C         10.76560       -5.92750      -11.73180
C         11.41950       -5.91540      -12.92390
S         11.39190       -4.33700      -13.62440
C         10.48650       -3.66640      -12.28950
C         10.09130       -2.24090      -12.24530
C         10.44820       -6.86770      -10.67880
C         10.90910       -8.15770      -10.63830
C         10.73760       -9.09000       -9.59530
N         10.68240       -9.90630       -8.78880
C         11.68700       -8.68020      -11.69270
N         12.31450       -9.12380      -12.54530
H         -7.58520        6.12280        2.21300
H         -7.68500        2.99290        7.63230
H        -11.17140        6.42260        6.30480
H        -12.08030        4.84690        9.21960
H        -11.52280        7.06490       10.20320
H         -9.21190        7.76580        9.20010
H         -7.40520        5.96320        9.93330
H         -8.60330        4.14940       11.39020
H        -11.15560        4.91140       11.77650
H        -10.03050        6.21900       12.22100
H        -10.32410        3.09290        9.93110
H         -1.35150        5.38320       -2.26110
H         -1.60790        6.53640       -3.59470
H         -2.96560        3.82120       -3.24280
H         -1.71980        4.21540       -4.42960
H         -3.32100        4.95460       -4.55670
H         -6.28020        9.21840       -0.45860
H         -5.93820        9.66700       -2.14770
H         -7.88290        7.51680       -1.16710
H         -8.30390        9.05400       -1.91380
H         -7.50310        7.80450       -2.87400
H         -4.00400       -0.16360        4.41960
H         -4.87670        0.11960        6.70700
H         -4.58340        2.26100        7.88640
H         -2.46890        5.01940        6.64080
H         -3.28470        4.35220        8.06240
H         -5.49750        4.90820        7.04880
H         -4.49130        6.35360        7.20740
H         -4.68640        5.57200        5.63370
H         -2.48850        3.82710        4.51830
H          8.21850       -6.79130       -3.18670
H          9.39380       -8.90650       -2.72240
H          8.13340      -10.88120       -1.96780
H          4.59760      -10.80060       -0.96020
H          6.08270      -11.76340       -0.96570
H          4.35100      -11.18710       -3.41900
H          5.81740      -12.16560       -3.41050
H          4.38780      -12.71430       -2.52870
H          4.51890       -8.61950       -2.08460
H         -0.49880        0.58470       -1.19960
H          0.81060       -0.30650       -1.96780
H         -0.61930       -2.39050       -1.91960
H         -1.92390       -1.44240       -1.20450
H         -1.37450       -1.08020       -2.84240
H          4.03400       -1.56480       -2.37440
H          2.67570       -0.67780       -1.68760
H          2.45930       -0.75050       -4.15280
H          2.69330       -2.49620       -4.16510
H          1.20610       -1.82180       -3.51050
H          7.06400       -3.82310       -5.70190
H          8.40950       -4.29820       -7.65410
H          9.07470       -7.91060       -8.72250
H         11.91120       -6.71070      -13.44700
H          9.43910       -1.99720      -13.08340
H          9.56500       -2.04670      -11.31360
H         10.96700       -1.59590      -12.30650
