
  xtb     02142201223D
 energy: -306.499052102394 gnorm: 0.000841598778 xtb: 6.4.1 (unknown)
178200  0     0  0            999 V2000
    7.1836   -4.6507    0.5865 C   0  0  0  0  0  0  0  0  0  0  0  0
    7.7877   -3.4471    0.4387 C   0  0  0  0  0  0  0  0  0  0  0  0
    7.4159   -2.1577    1.0927 C   0  0  0  0  0  0  0  0  0  0  0  0
    6.6583   -1.9914    2.0237 O   0  0  0  0  0  0  0  0  0  0  0  0
    8.2189   -1.1226    0.4228 C   0  0  0  0  0  0  0  0  0  0  0  0
    8.1219    0.2560    0.6111 C   0  0  0  0  0  0  0  0  0  0  0  0
    8.9555    0.9848   -0.2020 C   0  0  0  0  0  0  0  0  0  0  0  0
    9.8320    0.3930   -1.1240 C   0  0  0  0  0  0  0  0  0  0  0  0
    9.9563   -0.9644   -1.2980 C   0  0  0  0  0  0  0  0  0  0  0  0
    9.1114   -1.7300   -0.4851 C   0  0  0  0  0  0  0  0  0  0  0  0
    8.9513   -3.1773   -0.4031 C   0  0  0  0  0  0  0  0  0  0  0  0
    9.7707   -4.1000   -0.9941 C   0  0  0  0  0  0  0  0  0  0  0  0
    9.6541   -5.5023   -0.8810 C   0  0  0  0  0  0  0  0  0  0  0  0
    9.6424   -6.6499   -0.8386 N   0  0  0  0  0  0  0  0  0  0  0  0
   10.8993   -3.7760   -1.7787 C   0  0  0  0  0  0  0  0  0  0  0  0
   11.8325   -3.5922   -2.4210 N   0  0  0  0  0  0  0  0  0  0  0  0
   10.3438    1.7258   -1.6138 C   0  0  0  0  0  0  0  0  0  0  0  0
    9.8000    2.2250   -2.9692 C   0  0  0  0  0  0  0  0  0  0  0  0
   10.0749    3.7126   -2.9469 C   0  0  0  0  0  0  0  0  0  0  0  0
    9.2396    4.2674   -2.0774 C   0  0  0  0  0  0  0  0  0  0  0  0
    8.3893    3.1618   -1.4942 C   0  0  0  0  0  0  0  0  0  0  0  0
    8.2877    2.2343   -2.7115 C   0  0  0  0  0  0  0  0  0  0  0  0
    9.3663    2.3832   -0.5874 C   0  0  0  0  0  0  0  0  0  0  0  0
    5.9297   -4.9530    1.2349 C   0  0  0  0  0  0  0  0  0  0  0  0
    4.8774   -4.0259    1.3076 C   0  0  0  0  0  0  0  0  0  0  0  0
    3.7007   -4.4050    1.9014 C   0  0  0  0  0  0  0  0  0  0  0  0
    2.4714   -3.5980    2.1046 C   0  0  0  0  0  0  0  0  0  0  0  0
    2.2830   -2.4424    1.8004 O   0  0  0  0  0  0  0  0  0  0  0  0
    1.5240   -4.5415    2.7490 C   0  0  0  0  0  0  0  0  0  0  0  0
    2.1380   -5.8002    2.9115 C   0  0  0  0  0  0  0  0  0  0  0  0
    3.5028   -5.7070    2.4095 C   0  0  0  0  0  0  0  0  0  0  0  0
    4.5290   -6.6313    2.3224 C   0  0  0  0  0  0  0  0  0  0  0  0
    5.7235   -6.2473    1.7323 C   0  0  0  0  0  0  0  0  0  0  0  0
    1.3963   -6.8470    3.4279 C   0  0  0  0  0  0  0  0  0  0  0  0
    0.0612   -6.6425    3.7529 C   0  0  0  0  0  0  0  0  0  0  0  0
   -0.5559   -5.3979    3.5907 C   0  0  0  0  0  0  0  0  0  0  0  0
    0.2161   -4.3296    3.0965 C   0  0  0  0  0  0  0  0  0  0  0  0
   -1.9675   -5.1557    3.8010 C   0  0  0  0  0  0  0  0  0  0  0  0
   -3.0621   -5.9709    3.5915 C   0  0  0  0  0  0  0  0  0  0  0  0
   -3.0531   -7.4300    3.4066 C   0  0  0  0  0  0  0  0  0  0  0  0
   -2.7580   -8.2696    4.4760 C   0  0  0  0  0  0  0  0  0  0  0  0
   -2.8043   -9.6411    4.3061 C   0  0  0  0  0  0  0  0  0  0  0  0
   -3.1458  -10.1790    3.0780 C   0  0  0  0  0  0  0  0  0  0  0  0
   -3.4580   -9.3535    2.0051 C   0  0  0  0  0  0  0  0  0  0  0  0
   -3.7954   -9.9362    0.6634 C   0  0  0  0  0  0  0  0  0  0  0  0
   -2.5232  -10.1470   -0.1604 C   0  0  0  0  0  0  0  0  0  0  0  0
   -3.4106   -7.9783    2.1823 C   0  0  0  0  0  0  0  0  0  0  0  0
   -4.2601   -5.2258    3.5153 C   0  0  0  0  0  0  0  0  0  0  0  0
   -5.8837   -5.6273    2.9857 S   0  0  0  0  0  0  0  0  0  0  0  0
   -6.2834   -3.9344    2.9798 C   0  0  0  0  0  0  0  0  0  0  0  0
   -7.2511   -3.0614    2.4455 C   0  0  0  0  0  0  0  0  0  0  0  0
   -8.3601   -3.2999    1.6010 C   0  0  0  0  0  0  0  0  0  0  0  0
   -8.8810   -2.2139    0.8109 C   0  0  0  0  0  0  0  0  0  0  0  0
   -9.8285   -2.6089   -0.0234 N   0  0  0  0  0  0  0  0  0  0  0  0
  -10.0619   -4.1995    0.1745 S   0  0  0  0  0  0  0  0  0  0  0  0
   -8.9483   -4.4514    1.3236 N   0  0  0  0  0  0  0  0  0  0  0  0
   -8.3527   -0.9153    0.9874 C   0  0  0  0  0  0  0  0  0  0  0  0
   -8.4958    0.2838    0.2583 C   0  0  0  0  0  0  0  0  0  0  0  0
   -9.0927    0.8441   -1.2750 S   0  0  0  0  0  0  0  0  0  0  0  0
   -8.1596    2.3218   -1.0971 C   0  0  0  0  0  0  0  0  0  0  0  0
   -7.7530    3.3422   -1.9943 C   0  0  0  0  0  0  0  0  0  0  0  0
   -8.2800    3.5307   -3.3447 C   0  0  0  0  0  0  0  0  0  0  0  0
   -8.4505    4.8190   -3.8520 C   0  0  0  0  0  0  0  0  0  0  0  0
   -8.9662    4.9999   -5.1199 C   0  0  0  0  0  0  0  0  0  0  0  0
   -9.3190    3.9070   -5.8936 C   0  0  0  0  0  0  0  0  0  0  0  0
   -9.1623    2.6168   -5.4036 C   0  0  0  0  0  0  0  0  0  0  0  0
   -9.5011    1.4250   -6.2521 C   0  0  0  0  0  0  0  0  0  0  0  0
   -8.2788    0.9785   -7.0569 C   0  0  0  0  0  0  0  0  0  0  0  0
   -8.6416    2.4409   -4.1305 C   0  0  0  0  0  0  0  0  0  0  0  0
   -6.7939    4.1573   -1.4218 C   0  0  0  0  0  0  0  0  0  0  0  0
   -6.4872    3.7584    0.2645 S   0  0  0  0  0  0  0  0  0  0  0  0
   -7.5340    2.3973    0.1452 C   0  0  0  0  0  0  0  0  0  0  0  0
   -7.7154    1.2391    0.9070 C   0  0  0  0  0  0  0  0  0  0  0  0
   -7.1079    0.7039    2.0104 N   0  0  0  0  0  0  0  0  0  0  0  0
   -7.4201   -0.6472    2.0276 C   0  0  0  0  0  0  0  0  0  0  0  0
   -6.7754   -1.7379    2.6632 C   0  0  0  0  0  0  0  0  0  0  0  0
   -5.5689   -1.8096    3.3322 N   0  0  0  0  0  0  0  0  0  0  0  0
   -5.2491   -3.1304    3.4634 C   0  0  0  0  0  0  0  0  0  0  0  0
   -4.0910   -3.8625    3.7451 C   0  0  0  0  0  0  0  0  0  0  0  0
   -2.4421   -3.4771    4.0523 S   0  0  0  0  0  0  0  0  0  0  0  0
   -4.5599   -0.8059    3.5728 C   0  0  0  0  0  0  0  0  0  0  0  0
   -3.9007   -0.3411    2.2765 C   0  0  0  0  0  0  0  0  0  0  0  0
   -6.7082    1.5795    3.0946 C   0  0  0  0  0  0  0  0  0  0  0  0
   -7.4091    1.2169    4.3995 C   0  0  0  0  0  0  0  0  0  0  0  0
   -5.7549    4.9709   -2.0219 C   0  0  0  0  0  0  0  0  0  0  0  0
   -5.0611    5.8983   -1.2251 C   0  0  0  0  0  0  0  0  0  0  0  0
   -3.8249    6.3329   -1.6349 C   0  0  0  0  0  0  0  0  0  0  0  0
   -2.8309    7.1525   -0.8898 C   0  0  0  0  0  0  0  0  0  0  0  0
   -2.9961    7.7696    0.1353 O   0  0  0  0  0  0  0  0  0  0  0  0
   -1.5751    6.9934   -1.6706 C   0  0  0  0  0  0  0  0  0  0  0  0
   -1.8374    6.2424   -2.8341 C   0  0  0  0  0  0  0  0  0  0  0  0
   -3.2476    5.8724   -2.8351 C   0  0  0  0  0  0  0  0  0  0  0  0
   -3.9936    5.0858   -3.6928 C   0  0  0  0  0  0  0  0  0  0  0  0
   -5.2412    4.6418   -3.2808 C   0  0  0  0  0  0  0  0  0  0  0  0
   -0.7960    5.8605   -3.6583 C   0  0  0  0  0  0  0  0  0  0  0  0
    0.5021    6.1638   -3.2732 C   0  0  0  0  0  0  0  0  0  0  0  0
    0.7671    6.8908   -2.1138 C   0  0  0  0  0  0  0  0  0  0  0  0
   -0.2939    7.3572   -1.3264 C   0  0  0  0  0  0  0  0  0  0  0  0
    2.1333    7.1278   -1.6663 C   0  0  0  0  0  0  0  0  0  0  0  0
    3.0138    6.1454   -1.3927 C   0  0  0  0  0  0  0  0  0  0  0  0
    2.6692    4.6899   -1.2961 C   0  0  0  0  0  0  0  0  0  0  0  0
    1.7051    4.1254   -1.7600 O   0  0  0  0  0  0  0  0  0  0  0  0
    3.7356    4.1048   -0.4656 C   0  0  0  0  0  0  0  0  0  0  0  0
    3.8274    2.8214    0.0513 C   0  0  0  0  0  0  0  0  0  0  0  0
    4.9084    2.5012    0.8620 C   0  0  0  0  0  0  0  0  0  0  0  0
    5.1405    1.3041    1.4243 O   0  0  0  0  0  0  0  0  0  0  0  0
    4.2369    0.2392    1.2116 C   0  0  0  0  0  0  0  0  0  0  0  0
    5.8873    3.4960    1.1653 C   0  0  0  0  0  0  0  0  0  0  0  0
    6.8761    3.0846    1.9863 O   0  0  0  0  0  0  0  0  0  0  0  0
    7.8373    4.0228    2.4139 C   0  0  0  0  0  0  0  0  0  0  0  0
    5.7894    4.7703    0.6304 C   0  0  0  0  0  0  0  0  0  0  0  0
    4.7165    5.0720   -0.2010 C   0  0  0  0  0  0  0  0  0  0  0  0
    4.3690    6.3053   -0.8763 C   0  0  0  0  0  0  0  0  0  0  0  0
    5.1939    7.3757   -1.0910 C   0  0  0  0  0  0  0  0  0  0  0  0
    4.8148    8.5303   -1.8073 C   0  0  0  0  0  0  0  0  0  0  0  0
    4.5609    9.4877   -2.3870 N   0  0  0  0  0  0  0  0  0  0  0  0
    6.5432    7.3979   -0.6837 C   0  0  0  0  0  0  0  0  0  0  0  0
    7.6515    7.4339   -0.3855 N   0  0  0  0  0  0  0  0  0  0  0  0
    7.6687   -5.5130    0.1455 H   0  0  0  0  0  0  0  0  0  0  0  0
    7.4326    0.6772    1.3260 H   0  0  0  0  0  0  0  0  0  0  0  0
   10.6380   -1.4058   -2.0057 H   0  0  0  0  0  0  0  0  0  0  0  0
   11.4125    1.8940   -1.4968 H   0  0  0  0  0  0  0  0  0  0  0  0
   10.1585    1.6747   -3.8348 H   0  0  0  0  0  0  0  0  0  0  0  0
   10.8589    4.1844   -3.5092 H   0  0  0  0  0  0  0  0  0  0  0  0
    9.1809    5.2942   -1.7663 H   0  0  0  0  0  0  0  0  0  0  0  0
    7.4581    3.4595   -1.0191 H   0  0  0  0  0  0  0  0  0  0  0  0
    7.7329    2.6904   -3.5300 H   0  0  0  0  0  0  0  0  0  0  0  0
    7.8680    1.2546   -2.4893 H   0  0  0  0  0  0  0  0  0  0  0  0
    9.7904    2.9910    0.2090 H   0  0  0  0  0  0  0  0  0  0  0  0
    4.9630   -3.0421    0.8790 H   0  0  0  0  0  0  0  0  0  0  0  0
    4.4067   -7.6367    2.6959 H   0  0  0  0  0  0  0  0  0  0  0  0
    6.5298   -6.9632    1.6594 H   0  0  0  0  0  0  0  0  0  0  0  0
    1.8355   -7.8233    3.5678 H   0  0  0  0  0  0  0  0  0  0  0  0
   -0.5148   -7.4705    4.1330 H   0  0  0  0  0  0  0  0  0  0  0  0
   -0.2196   -3.3536    2.9433 H   0  0  0  0  0  0  0  0  0  0  0  0
   -2.5139   -7.8445    5.4395 H   0  0  0  0  0  0  0  0  0  0  0  0
   -2.5776  -10.2926    5.1373 H   0  0  0  0  0  0  0  0  0  0  0  0
   -3.1815  -11.2516    2.9527 H   0  0  0  0  0  0  0  0  0  0  0  0
   -4.4662   -9.2631    0.1265 H   0  0  0  0  0  0  0  0  0  0  0  0
   -4.3030  -10.8939    0.7932 H   0  0  0  0  0  0  0  0  0  0  0  0
   -1.8466  -10.8256    0.3545 H   0  0  0  0  0  0  0  0  0  0  0  0
   -2.0084   -9.2005   -0.3109 H   0  0  0  0  0  0  0  0  0  0  0  0
   -2.7654  -10.5696   -1.1326 H   0  0  0  0  0  0  0  0  0  0  0  0
   -3.6526   -7.3219    1.3588 H   0  0  0  0  0  0  0  0  0  0  0  0
   -8.1873    5.6715   -3.2435 H   0  0  0  0  0  0  0  0  0  0  0  0
   -9.0996    5.9995   -5.5065 H   0  0  0  0  0  0  0  0  0  0  0  0
   -9.7254    4.0565   -6.8835 H   0  0  0  0  0  0  0  0  0  0  0  0
   -9.8338    0.6025   -5.6163 H   0  0  0  0  0  0  0  0  0  0  0  0
  -10.3113    1.6779   -6.9386 H   0  0  0  0  0  0  0  0  0  0  0  0
   -7.4640    0.7084   -6.3887 H   0  0  0  0  0  0  0  0  0  0  0  0
   -7.9375    1.7826   -7.7055 H   0  0  0  0  0  0  0  0  0  0  0  0
   -8.5230    0.1159   -7.6724 H   0  0  0  0  0  0  0  0  0  0  0  0
   -8.5045    1.4396   -3.7502 H   0  0  0  0  0  0  0  0  0  0  0  0
   -4.9841    0.0266    4.1314 H   0  0  0  0  0  0  0  0  0  0  0  0
   -3.8045   -1.2706    4.2117 H   0  0  0  0  0  0  0  0  0  0  0  0
   -4.6331    0.0731    1.5882 H   0  0  0  0  0  0  0  0  0  0  0  0
   -3.4117   -1.1816    1.7898 H   0  0  0  0  0  0  0  0  0  0  0  0
   -3.1514    0.4158    2.4915 H   0  0  0  0  0  0  0  0  0  0  0  0
   -5.6222    1.5933    3.2117 H   0  0  0  0  0  0  0  0  0  0  0  0
   -7.0035    2.5895    2.7973 H   0  0  0  0  0  0  0  0  0  0  0  0
   -7.0960    1.8980    5.1865 H   0  0  0  0  0  0  0  0  0  0  0  0
   -8.4871    1.2976    4.2789 H   0  0  0  0  0  0  0  0  0  0  0  0
   -7.1796    0.1988    4.7049 H   0  0  0  0  0  0  0  0  0  0  0  0
   -5.4584    6.2074   -0.2689 H   0  0  0  0  0  0  0  0  0  0  0  0
   -3.5936    4.7595   -4.6408 H   0  0  0  0  0  0  0  0  0  0  0  0
   -5.7918    3.9567   -3.9075 H   0  0  0  0  0  0  0  0  0  0  0  0
   -0.9762    5.2924   -4.5579 H   0  0  0  0  0  0  0  0  0  0  0  0
    1.3301    5.8310   -3.8801 H   0  0  0  0  0  0  0  0  0  0  0  0
   -0.1075    7.9219   -0.4248 H   0  0  0  0  0  0  0  0  0  0  0  0
    2.4027    8.1584   -1.4657 H   0  0  0  0  0  0  0  0  0  0  0  0
    3.0586    2.1013   -0.1773 H   0  0  0  0  0  0  0  0  0  0  0  0
    3.2458    0.4606    1.6135 H   0  0  0  0  0  0  0  0  0  0  0  0
    4.6604   -0.6076    1.7492 H   0  0  0  0  0  0  0  0  0  0  0  0
    4.1512   -0.0040    0.1488 H   0  0  0  0  0  0  0  0  0  0  0  0
    7.3769    4.8276    2.9948 H   0  0  0  0  0  0  0  0  0  0  0  0
    8.5242    3.4662    3.0487 H   0  0  0  0  0  0  0  0  0  0  0  0
    8.3852    4.4544    1.5714 H   0  0  0  0  0  0  0  0  0  0  0  0
    6.5233    5.5216    0.8656 H   0  0  0  0  0  0  0  0  0  0  0  0
  1  2  2  0  0  0  0
  2  3  1  0  0  0  0
  3  4  2  0  0  0  0
  3  5  1  0  0  0  0
  5  6  2  0  0  0  0
  6  7  1  0  0  0  0
  7  8  2  0  0  0  0
  8  9  1  0  0  0  0
  9 10  2  0  0  0  0
 10 11  1  0  0  0  0
 11 12  2  0  0  0  0
 12 13  1  0  0  0  0
 13 14  3  0  0  0  0
 12 15  1  0  0  0  0
 15 16  3  0  0  0  0
  8 17  1  0  0  0  0
 17 18  1  0  0  0  0
 18 19  1  0  0  0  0
 19 20  2  0  0  0  0
 20 21  1  0  0  0  0
 21 22  1  0  0  0  0
 21 23  1  0  0  0  0
  1 24  1  0  0  0  0
 24 25  2  0  0  0  0
 25 26  1  0  0  0  0
 26 27  1  0  0  0  0
 27 28  2  0  0  0  0
 27 29  1  0  0  0  0
 29 30  2  0  0  0  0
 30 31  1  0  0  0  0
 31 32  1  0  0  0  0
 32 33  2  0  0  0  0
 30 34  1  0  0  0  0
 34 35  2  0  0  0  0
 35 36  1  0  0  0  0
 36 37  2  0  0  0  0
 36 38  1  0  0  0  0
 38 39  2  0  0  0  0
 39 40  1  0  0  0  0
 40 41  2  0  0  0  0
 41 42  1  0  0  0  0
 42 43  2  0  0  0  0
 43 44  1  0  0  0  0
 44 45  1  0  0  0  0
 45 46  1  0  0  0  0
 44 47  2  0  0  0  0
 39 48  1  0  0  0  0
 48 49  1  0  0  0  0
 49 50  1  0  0  0  0
 50 51  1  0  0  0  0
 51 52  1  0  0  0  0
 52 53  1  0  0  0  0
 53 54  2  0  0  0  0
 54 55  1  0  0  0  0
 55 56  1  0  0  0  0
 53 57  1  0  0  0  0
 57 58  1  0  0  0  0
 58 59  1  0  0  0  0
 59 60  1  0  0  0  0
 60 61  1  0  0  0  0
 61 62  1  0  0  0  0
 62 63  2  0  0  0  0
 63 64  1  0  0  0  0
 64 65  2  0  0  0  0
 65 66  1  0  0  0  0
 66 67  1  0  0  0  0
 67 68  1  0  0  0  0
 66 69  2  0  0  0  0
 61 70  2  0  0  0  0
 70 71  1  0  0  0  0
 71 72  1  0  0  0  0
 72 73  1  0  0  0  0
 73 74  1  0  0  0  0
 74 75  1  0  0  0  0
 75 76  1  0  0  0  0
 76 77  1  0  0  0  0
 77 78  1  0  0  0  0
 78 79  1  0  0  0  0
 79 80  1  0  0  0  0
 77 81  1  0  0  0  0
 81 82  1  0  0  0  0
 74 83  1  0  0  0  0
 83 84  1  0  0  0  0
 70 85  1  0  0  0  0
 85 86  2  0  0  0  0
 86 87  1  0  0  0  0
 87 88  1  0  0  0  0
 88 89  2  0  0  0  0
 88 90  1  0  0  0  0
 90 91  2  0  0  0  0
 91 92  1  0  0  0  0
 92 93  1  0  0  0  0
 93 94  2  0  0  0  0
 91 95  1  0  0  0  0
 95 96  2  0  0  0  0
 96 97  1  0  0  0  0
 97 98  2  0  0  0  0
 97 99  1  0  0  0  0
 99100  2  0  0  0  0
100101  1  0  0  0  0
101102  2  0  0  0  0
101103  1  0  0  0  0
103104  2  0  0  0  0
104105  1  0  0  0  0
105106  1  0  0  0  0
106107  1  0  0  0  0
105108  2  0  0  0  0
108109  1  0  0  0  0
109110  1  0  0  0  0
108111  1  0  0  0  0
111112  2  0  0  0  0
112113  1  0  0  0  0
113114  2  0  0  0  0
114115  1  0  0  0  0
115116  3  0  0  0  0
114117  1  0  0  0  0
117118  3  0  0  0  0
 11  2  1  0  0  0  0
 23 17  1  0  0  0  0
 33 24  1  0  0  0  0
 80 38  1  0  0  0  0
 94 85  1  0  0  0  0
113100  1  0  0  0  0
 10  5  1  0  0  0  0
 22 18  1  0  0  0  0
 31 26  2  0  0  0  0
 47 40  1  0  0  0  0
 79 48  2  0  0  0  0
 92 87  2  0  0  0  0
112103  1  0  0  0  0
 23  7  1  0  0  0  0
 37 29  1  0  0  0  0
 78 50  2  0  0  0  0
 98 90  1  0  0  0  0
 76 51  2  0  0  0  0
 56 52  2  0  0  0  0
 75 57  2  0  0  0  0
 73 58  2  0  0  0  0
 72 60  2  0  0  0  0
 69 62  1  0  0  0  0
  1119  1  0  0  0  0
  6120  1  0  0  0  0
  9121  1  0  0  0  0
 17122  1  0  0  0  0
 18123  1  0  0  0  0
 19124  1  0  0  0  0
 20125  1  0  0  0  0
 21126  1  0  0  0  0
 22127  1  0  0  0  0
 22128  1  0  0  0  0
 23129  1  0  0  0  0
 25130  1  0  0  0  0
 32131  1  0  0  0  0
 33132  1  0  0  0  0
 34133  1  0  0  0  0
 35134  1  0  0  0  0
 37135  1  0  0  0  0
 41136  1  0  0  0  0
 42137  1  0  0  0  0
 43138  1  0  0  0  0
 45139  1  0  0  0  0
 45140  1  0  0  0  0
 46141  1  0  0  0  0
 46142  1  0  0  0  0
 46143  1  0  0  0  0
 47144  1  0  0  0  0
 63145  1  0  0  0  0
 64146  1  0  0  0  0
 65147  1  0  0  0  0
 67148  1  0  0  0  0
 67149  1  0  0  0  0
 68150  1  0  0  0  0
 68151  1  0  0  0  0
 68152  1  0  0  0  0
 69153  1  0  0  0  0
 81154  1  0  0  0  0
 81155  1  0  0  0  0
 82156  1  0  0  0  0
 82157  1  0  0  0  0
 82158  1  0  0  0  0
 83159  1  0  0  0  0
 83160  1  0  0  0  0
 84161  1  0  0  0  0
 84162  1  0  0  0  0
 84163  1  0  0  0  0
 86164  1  0  0  0  0
 93165  1  0  0  0  0
 94166  1  0  0  0  0
 95167  1  0  0  0  0
 96168  1  0  0  0  0
 98169  1  0  0  0  0
 99170  1  0  0  0  0
104171  1  0  0  0  0
107172  1  0  0  0  0
107173  1  0  0  0  0
107174  1  0  0  0  0
110175  1  0  0  0  0
110176  1  0  0  0  0
110177  1  0  0  0  0
111178  1  0  0  0  0
M  END
