
  xtb     02192203203D
 energy: -331.817332738559 gnorm: 0.000331400277 xtb: 6.4.1 (unknown)
202224  0     0  0            999 V2000
    8.8900   -4.4540   -4.9862 C   0  0  0  0  0  0  0  0  0  0  0  0
    9.6497   -4.9795   -3.9771 C   0  0  0  0  0  0  0  0  0  0  0  0
    9.7631   -4.4567   -2.6047 C   0  0  0  0  0  0  0  0  0  0  0  0
    9.3302   -3.4080   -2.1645 O   0  0  0  0  0  0  0  0  0  0  0  0
   10.5291   -5.4592   -1.8456 C   0  0  0  0  0  0  0  0  0  0  0  0
   10.8113   -5.4347   -0.4821 C   0  0  0  0  0  0  0  0  0  0  0  0
   11.5149   -6.5276   -0.0377 C   0  0  0  0  0  0  0  0  0  0  0  0
   11.9121   -7.5670   -0.8896 C   0  0  0  0  0  0  0  0  0  0  0  0
   11.6422   -7.6011   -2.2371 C   0  0  0  0  0  0  0  0  0  0  0  0
   10.9247   -6.4985   -2.7109 C   0  0  0  0  0  0  0  0  0  0  0  0
   10.4261   -6.2033   -4.0533 C   0  0  0  0  0  0  0  0  0  0  0  0
   10.6604   -6.9672   -5.1690 C   0  0  0  0  0  0  0  0  0  0  0  0
   10.1607   -6.7200   -6.4643 C   0  0  0  0  0  0  0  0  0  0  0  0
    9.7909   -6.6107   -7.5473 N   0  0  0  0  0  0  0  0  0  0  0  0
   11.4562   -8.1316   -5.1851 C   0  0  0  0  0  0  0  0  0  0  0  0
   12.0935   -9.0822   -5.2811 N   0  0  0  0  0  0  0  0  0  0  0  0
   12.5720   -8.3363    0.2274 C   0  0  0  0  0  0  0  0  0  0  0  0
   14.1165   -8.2852    0.3267 C   0  0  0  0  0  0  0  0  0  0  0  0
   14.5444   -6.9816   -0.3004 C   0  0  0  0  0  0  0  0  0  0  0  0
   14.1666   -6.0000    0.5076 C   0  0  0  0  0  0  0  0  0  0  0  0
   13.4755   -6.6224    1.6956 C   0  0  0  0  0  0  0  0  0  0  0  0
   14.2692   -7.9331    1.8151 C   0  0  0  0  0  0  0  0  0  0  0  0
   12.1269   -7.1794    1.1768 C   0  0  0  0  0  0  0  0  0  0  0  0
    8.0004   -3.3628   -4.9793 C   0  0  0  0  0  0  0  0  0  0  0  0
    7.1638   -3.0953   -6.0497 C   0  0  0  0  0  0  0  0  0  0  0  0
    6.2334   -2.0729   -5.8204 C   0  0  0  0  0  0  0  0  0  0  0  0
    5.1949   -1.6047   -6.6729 C   0  0  0  0  0  0  0  0  0  0  0  0
    4.9587   -2.1116   -8.0008 C   0  0  0  0  0  0  0  0  0  0  0  0
    4.4050   -1.4454   -9.0669 C   0  0  0  0  0  0  0  0  0  0  0  0
    4.2586   -2.2275  -10.2197 C   0  0  0  0  0  0  0  0  0  0  0  0
    4.6911   -3.5154  -10.0501 C   0  0  0  0  0  0  0  0  0  0  0  0
    4.6959   -4.7384  -11.2916 S   0  0  0  0  0  0  0  0  0  0  0  0
    5.4024   -6.1880  -10.4307 C   0  0  0  0  0  0  0  0  0  0  0  0
    4.3860   -6.8985   -9.5590 C   0  0  0  0  0  0  0  0  0  0  0  0
    5.2960   -3.7670   -8.4460 S   0  0  0  0  0  0  0  0  0  0  0  0
    4.3563   -0.6381   -6.1250 C   0  0  0  0  0  0  0  0  0  0  0  0
    4.5448   -0.0754   -4.8391 C   0  0  0  0  0  0  0  0  0  0  0  0
    5.6478   -0.4517   -4.0440 C   0  0  0  0  0  0  0  0  0  0  0  0
    5.9256    0.2137   -2.7953 C   0  0  0  0  0  0  0  0  0  0  0  0
    5.7542    1.5405   -2.4909 C   0  0  0  0  0  0  0  0  0  0  0  0
    6.1673    1.8842   -1.1957 C   0  0  0  0  0  0  0  0  0  0  0  0
    6.6587    0.8146   -0.4976 C   0  0  0  0  0  0  0  0  0  0  0  0
    7.3027    0.8873    1.1220 S   0  0  0  0  0  0  0  0  0  0  0  0
    7.8277   -0.8388    1.4137 C   0  0  0  0  0  0  0  0  0  0  0  0
    6.6695   -1.7311    1.8152 C   0  0  0  0  0  0  0  0  0  0  0  0
    6.6149   -0.6393   -1.4417 S   0  0  0  0  0  0  0  0  0  0  0  0
    6.4260   -1.4962   -4.5346 C   0  0  0  0  0  0  0  0  0  0  0  0
    7.7121   -2.2633   -3.6527 S   0  0  0  0  0  0  0  0  0  0  0  0
    3.4583    0.7381   -4.4546 C   0  0  0  0  0  0  0  0  0  0  0  0
    2.4619    0.8214   -5.3877 C   0  0  0  0  0  0  0  0  0  0  0  0
    2.8671   -0.0627   -6.8445 S   0  0  0  0  0  0  0  0  0  0  0  0
    1.1807    1.3989   -5.1620 C   0  0  0  0  0  0  0  0  0  0  0  0
    0.1059    1.5874   -6.0127 C   0  0  0  0  0  0  0  0  0  0  0  0
    0.1633    1.4186   -7.4651 C   0  0  0  0  0  0  0  0  0  0  0  0
   -0.8090    0.6721   -8.1226 C   0  0  0  0  0  0  0  0  0  0  0  0
   -0.7311    0.4964   -9.4912 C   0  0  0  0  0  0  0  0  0  0  0  0
    0.3066    1.0619  -10.2105 C   0  0  0  0  0  0  0  0  0  0  0  0
    1.2754    1.8269   -9.5724 C   0  0  0  0  0  0  0  0  0  0  0  0
    2.3727    2.4842  -10.3595 C   0  0  0  0  0  0  0  0  0  0  0  0
    1.9087    3.8392  -10.8969 C   0  0  0  0  0  0  0  0  0  0  0  0
    1.1883    2.0064   -8.2011 C   0  0  0  0  0  0  0  0  0  0  0  0
   -1.0548    1.9520   -5.2980 C   0  0  0  0  0  0  0  0  0  0  0  0
   -2.7134    2.2536   -5.7718 S   0  0  0  0  0  0  0  0  0  0  0  0
   -3.1389    2.4574   -4.1018 C   0  0  0  0  0  0  0  0  0  0  0  0
   -4.2709    2.6664   -3.2934 C   0  0  0  0  0  0  0  0  0  0  0  0
   -5.6185    2.9557   -3.6038 C   0  0  0  0  0  0  0  0  0  0  0  0
   -6.5539    3.1763   -2.5336 C   0  0  0  0  0  0  0  0  0  0  0  0
   -7.7628    3.4838   -2.9755 N   0  0  0  0  0  0  0  0  0  0  0  0
   -7.7324    3.4913   -4.5950 S   0  0  0  0  0  0  0  0  0  0  0  0
   -6.1732    3.1018   -4.7964 N   0  0  0  0  0  0  0  0  0  0  0  0
   -6.1300    2.9833   -1.1999 C   0  0  0  0  0  0  0  0  0  0  0  0
   -6.8355    2.9512    0.0169 C   0  0  0  0  0  0  0  0  0  0  0  0
   -8.4418    3.1869    0.6269 S   0  0  0  0  0  0  0  0  0  0  0  0
   -7.8866    2.7270    2.2207 C   0  0  0  0  0  0  0  0  0  0  0  0
   -8.5303    2.6366    3.4755 C   0  0  0  0  0  0  0  0  0  0  0  0
   -9.9369    2.9760    3.6984 C   0  0  0  0  0  0  0  0  0  0  0  0
  -10.9193    2.5094    2.8302 C   0  0  0  0  0  0  0  0  0  0  0  0
  -12.2444    2.8322    3.0545 C   0  0  0  0  0  0  0  0  0  0  0  0
  -12.6000    3.6182    4.1369 C   0  0  0  0  0  0  0  0  0  0  0  0
  -11.6294    4.1091    5.0012 C   0  0  0  0  0  0  0  0  0  0  0  0
  -11.9973    4.9338    6.2016 C   0  0  0  0  0  0  0  0  0  0  0  0
  -11.9519    4.0784    7.4692 C   0  0  0  0  0  0  0  0  0  0  0  0
  -10.3019    3.7860    4.7682 C   0  0  0  0  0  0  0  0  0  0  0  0
   -7.6505    2.2407    4.4609 C   0  0  0  0  0  0  0  0  0  0  0  0
   -6.0190    1.9979    3.8540 S   0  0  0  0  0  0  0  0  0  0  0  0
   -6.5277    2.4212    2.2574 C   0  0  0  0  0  0  0  0  0  0  0  0
   -5.9277    2.5493    0.9985 C   0  0  0  0  0  0  0  0  0  0  0  0
   -4.6891    2.3611    0.4525 N   0  0  0  0  0  0  0  0  0  0  0  0
   -4.7849    2.6329   -0.9003 C   0  0  0  0  0  0  0  0  0  0  0  0
   -3.8258    2.6006   -1.9432 C   0  0  0  0  0  0  0  0  0  0  0  0
   -2.4533    2.4289   -1.9368 N   0  0  0  0  0  0  0  0  0  0  0  0
   -2.0486    2.3294   -3.2384 C   0  0  0  0  0  0  0  0  0  0  0  0
   -0.8601    2.0547   -3.9205 C   0  0  0  0  0  0  0  0  0  0  0  0
    0.7739    1.7296   -3.4798 S   0  0  0  0  0  0  0  0  0  0  0  0
   -1.4827    2.7050   -0.8990 C   0  0  0  0  0  0  0  0  0  0  0  0
   -1.6990    4.0795   -0.2733 C   0  0  0  0  0  0  0  0  0  0  0  0
   -3.7102    1.5708    1.1629 C   0  0  0  0  0  0  0  0  0  0  0  0
   -3.4963    0.2086    0.5105 C   0  0  0  0  0  0  0  0  0  0  0  0
   -7.8965    1.9413    5.8387 C   0  0  0  0  0  0  0  0  0  0  0  0
   -9.0247    1.4637    6.4468 C   0  0  0  0  0  0  0  0  0  0  0  0
   -8.8665    1.2200    7.8313 C   0  0  0  0  0  0  0  0  0  0  0  0
   -9.9756    0.6456    8.6589 C   0  0  0  0  0  0  0  0  0  0  0  0
  -10.1836   -0.8368    8.3450 C   0  0  0  0  0  0  0  0  0  0  0  0
   -7.6075    1.5168    8.2766 C   0  0  0  0  0  0  0  0  0  0  0  0
   -6.6047    2.1178    6.9918 S   0  0  0  0  0  0  0  0  0  0  0  0
   -7.0369    1.3500    9.6558 C   0  0  0  0  0  0  0  0  0  0  0  0
   -5.8480    2.2295    9.8814 C   0  0  0  0  0  0  0  0  0  0  0  0
   -4.6500    1.8815    9.3991 C   0  0  0  0  0  0  0  0  0  0  0  0
   -4.4945    0.6923    8.5923 C   0  0  0  0  0  0  0  0  0  0  0  0
   -3.6065    0.6278    7.5391 C   0  0  0  0  0  0  0  0  0  0  0  0
   -2.8260    1.8003    7.1324 C   0  0  0  0  0  0  0  0  0  0  0  0
   -2.6892    2.8132    7.7877 O   0  0  0  0  0  0  0  0  0  0  0  0
   -2.2246    1.7321    5.8761 N   0  0  0  0  0  0  0  0  0  0  0  0
   -1.5927    2.9584    5.4003 C   0  0  0  0  0  0  0  0  0  0  0  0
   -2.5859    3.8109    4.6214 C   0  0  0  0  0  0  0  0  0  0  0  0
   -2.2492    0.6427    5.0624 C   0  0  0  0  0  0  0  0  0  0  0  0
   -1.5721    0.6941    3.5548 S   0  0  0  0  0  0  0  0  0  0  0  0
   -2.8173   -0.4995    5.5353 N   0  0  0  0  0  0  0  0  0  0  0  0
   -3.5007   -0.5947    6.7443 C   0  0  0  0  0  0  0  0  0  0  0  0
   -3.9711   -1.6688    7.0685 O   0  0  0  0  0  0  0  0  0  0  0  0
   -2.8080   -1.7031    4.7112 C   0  0  0  0  0  0  0  0  0  0  0  0
   -4.0576   -1.7754    3.8437 C   0  0  0  0  0  0  0  0  0  0  0  0
   -5.4258   -0.4393    8.9009 C   0  0  0  0  0  0  0  0  0  0  0  0
   -6.5301   -0.0839    9.8922 C   0  0  0  0  0  0  0  0  0  0  0  0
    8.9029   -4.9789   -5.9338 H   0  0  0  0  0  0  0  0  0  0  0  0
   10.4803   -4.6153    0.1369 H   0  0  0  0  0  0  0  0  0  0  0  0
   11.9487   -8.4138   -2.8740 H   0  0  0  0  0  0  0  0  0  0  0  0
   12.1773   -9.3325    0.4174 H   0  0  0  0  0  0  0  0  0  0  0  0
   14.6210   -9.1784   -0.0316 H   0  0  0  0  0  0  0  0  0  0  0  0
   15.0115   -6.9065   -1.2647 H   0  0  0  0  0  0  0  0  0  0  0  0
   14.2550   -4.9405    0.3535 H   0  0  0  0  0  0  0  0  0  0  0  0
   13.3960   -6.0023    2.5849 H   0  0  0  0  0  0  0  0  0  0  0  0
   15.3062   -7.7725    2.1060 H   0  0  0  0  0  0  0  0  0  0  0  0
   13.8081   -8.6602    2.4825 H   0  0  0  0  0  0  0  0  0  0  0  0
   11.4386   -7.4207    1.9848 H   0  0  0  0  0  0  0  0  0  0  0  0
    7.2352   -3.6625   -6.9596 H   0  0  0  0  0  0  0  0  0  0  0  0
    4.1460   -0.4028   -9.0397 H   0  0  0  0  0  0  0  0  0  0  0  0
    3.8546   -1.8669  -11.1472 H   0  0  0  0  0  0  0  0  0  0  0  0
    6.2614   -5.8421   -9.8560 H   0  0  0  0  0  0  0  0  0  0  0  0
    5.7477   -6.8351  -11.2365 H   0  0  0  0  0  0  0  0  0  0  0  0
    3.5408   -7.2332  -10.1560 H   0  0  0  0  0  0  0  0  0  0  0  0
    4.0194   -6.2409   -8.7742 H   0  0  0  0  0  0  0  0  0  0  0  0
    4.8508   -7.7644   -9.0926 H   0  0  0  0  0  0  0  0  0  0  0  0
    5.3901    2.2614   -3.2008 H   0  0  0  0  0  0  0  0  0  0  0  0
    6.1220    2.8773   -0.7882 H   0  0  0  0  0  0  0  0  0  0  0  0
    8.3155   -1.1914    0.5048 H   0  0  0  0  0  0  0  0  0  0  0  0
    8.5628   -0.7656    2.2151 H   0  0  0  0  0  0  0  0  0  0  0  0
    5.9249   -1.7750    1.0241 H   0  0  0  0  0  0  0  0  0  0  0  0
    6.1959   -1.3556    2.7196 H   0  0  0  0  0  0  0  0  0  0  0  0
    7.0326   -2.7396    2.0012 H   0  0  0  0  0  0  0  0  0  0  0  0
    3.3757    1.1920   -3.4834 H   0  0  0  0  0  0  0  0  0  0  0  0
   -1.6091    0.2177   -7.5581 H   0  0  0  0  0  0  0  0  0  0  0  0
   -1.4819   -0.0907   -9.9991 H   0  0  0  0  0  0  0  0  0  0  0  0
    0.3664    0.9108  -11.2788 H   0  0  0  0  0  0  0  0  0  0  0  0
    2.6599    1.8443  -11.1966 H   0  0  0  0  0  0  0  0  0  0  0  0
    3.2485    2.6293   -9.7236 H   0  0  0  0  0  0  0  0  0  0  0  0
    2.7038    4.3166  -11.4649 H   0  0  0  0  0  0  0  0  0  0  0  0
    1.6259    4.4942  -10.0758 H   0  0  0  0  0  0  0  0  0  0  0  0
    1.0449    3.7132  -11.5456 H   0  0  0  0  0  0  0  0  0  0  0  0
    1.9227    2.6159   -7.6931 H   0  0  0  0  0  0  0  0  0  0  0  0
  -10.6434    1.8871    1.9925 H   0  0  0  0  0  0  0  0  0  0  0  0
  -13.0058    2.4653    2.3821 H   0  0  0  0  0  0  0  0  0  0  0  0
  -13.6393    3.8596    4.3085 H   0  0  0  0  0  0  0  0  0  0  0  0
  -11.2960    5.7646    6.3059 H   0  0  0  0  0  0  0  0  0  0  0  0
  -13.0000    5.3464    6.0774 H   0  0  0  0  0  0  0  0  0  0  0  0
  -10.9529    3.6725    7.6148 H   0  0  0  0  0  0  0  0  0  0  0  0
  -12.2163    4.6727    8.3409 H   0  0  0  0  0  0  0  0  0  0  0  0
  -12.6527    3.2497    7.3892 H   0  0  0  0  0  0  0  0  0  0  0  0
   -9.5350    4.1736    5.4235 H   0  0  0  0  0  0  0  0  0  0  0  0
   -1.4832    1.9178   -0.1435 H   0  0  0  0  0  0  0  0  0  0  0  0
   -0.5022    2.6812   -1.3810 H   0  0  0  0  0  0  0  0  0  0  0  0
   -0.9556    4.2488    0.5010 H   0  0  0  0  0  0  0  0  0  0  0  0
   -1.5977    4.8547   -1.0298 H   0  0  0  0  0  0  0  0  0  0  0  0
   -2.6892    4.1635    0.1672 H   0  0  0  0  0  0  0  0  0  0  0  0
   -2.7693    2.1101    1.2683 H   0  0  0  0  0  0  0  0  0  0  0  0
   -4.1050    1.4267    2.1716 H   0  0  0  0  0  0  0  0  0  0  0  0
   -4.4205   -0.3652    0.5281 H   0  0  0  0  0  0  0  0  0  0  0  0
   -2.7318   -0.3348    1.0586 H   0  0  0  0  0  0  0  0  0  0  0  0
   -3.1803    0.3111   -0.5241 H   0  0  0  0  0  0  0  0  0  0  0  0
   -9.9403    1.2749    5.9157 H   0  0  0  0  0  0  0  0  0  0  0  0
  -10.8983    1.1870    8.4378 H   0  0  0  0  0  0  0  0  0  0  0  0
   -9.7583    0.7660    9.7212 H   0  0  0  0  0  0  0  0  0  0  0  0
   -9.2784   -1.4049    8.5482 H   0  0  0  0  0  0  0  0  0  0  0  0
  -10.4392   -0.9701    7.2967 H   0  0  0  0  0  0  0  0  0  0  0  0
  -10.9895   -1.2416    8.9525 H   0  0  0  0  0  0  0  0  0  0  0  0
   -7.8200    1.5836   10.3848 H   0  0  0  0  0  0  0  0  0  0  0  0
   -5.9782    3.1479   10.4326 H   0  0  0  0  0  0  0  0  0  0  0  0
   -3.7954    2.5224    9.5346 H   0  0  0  0  0  0  0  0  0  0  0  0
   -1.2439    3.4980    6.2818 H   0  0  0  0  0  0  0  0  0  0  0  0
   -0.7421    2.6853    4.7744 H   0  0  0  0  0  0  0  0  0  0  0  0
   -3.4312    4.0705    5.2539 H   0  0  0  0  0  0  0  0  0  0  0  0
   -2.9512    3.2704    3.7514 H   0  0  0  0  0  0  0  0  0  0  0  0
   -2.1008    4.7242    4.2895 H   0  0  0  0  0  0  0  0  0  0  0  0
   -1.9087   -1.6869    4.0947 H   0  0  0  0  0  0  0  0  0  0  0  0
   -2.7738   -2.5552    5.3922 H   0  0  0  0  0  0  0  0  0  0  0  0
   -4.9444   -1.8335    4.4699 H   0  0  0  0  0  0  0  0  0  0  0  0
   -4.0142   -2.6588    3.2135 H   0  0  0  0  0  0  0  0  0  0  0  0
   -4.1292   -0.8948    3.2106 H   0  0  0  0  0  0  0  0  0  0  0  0
   -4.8379   -1.2790    9.2796 H   0  0  0  0  0  0  0  0  0  0  0  0
   -5.8651   -0.7951    7.9651 H   0  0  0  0  0  0  0  0  0  0  0  0
   -6.1517   -0.1414   10.9153 H   0  0  0  0  0  0  0  0  0  0  0  0
   -7.3475   -0.7976    9.7923 H   0  0  0  0  0  0  0  0  0  0  0  0
  1  2  2  0  0  0  0
  2  3  1  0  0  0  0
  3  4  2  0  0  0  0
  3  5  1  0  0  0  0
  5  6  2  0  0  0  0
  6  7  1  0  0  0  0
  7  8  2  0  0  0  0
  8  9  1  0  0  0  0
  9 10  2  0  0  0  0
 10 11  1  0  0  0  0
 11 12  2  0  0  0  0
 12 13  1  0  0  0  0
 13 14  3  0  0  0  0
 12 15  1  0  0  0  0
 15 16  3  0  0  0  0
  8 17  1  0  0  0  0
 17 18  1  0  0  0  0
 18 19  1  0  0  0  0
 19 20  2  0  0  0  0
 20 21  1  0  0  0  0
 21 22  1  0  0  0  0
 21 23  1  0  0  0  0
  1 24  1  0  0  0  0
 24 25  2  0  0  0  0
 25 26  1  0  0  0  0
 26 27  2  0  0  0  0
 27 28  1  0  0  0  0
 28 29  2  0  0  0  0
 29 30  1  0  0  0  0
 30 31  2  0  0  0  0
 31 32  1  0  0  0  0
 32 33  1  0  0  0  0
 33 34  1  0  0  0  0
 31 35  1  0  0  0  0
 27 36  1  0  0  0  0
 36 37  2  0  0  0  0
 37 38  1  0  0  0  0
 38 39  1  0  0  0  0
 39 40  2  0  0  0  0
 40 41  1  0  0  0  0
 41 42  2  0  0  0  0
 42 43  1  0  0  0  0
 43 44  1  0  0  0  0
 44 45  1  0  0  0  0
 42 46  1  0  0  0  0
 38 47  2  0  0  0  0
 47 48  1  0  0  0  0
 37 49  1  0  0  0  0
 49 50  2  0  0  0  0
 50 51  1  0  0  0  0
 50 52  1  0  0  0  0
 52 53  2  0  0  0  0
 53 54  1  0  0  0  0
 54 55  2  0  0  0  0
 55 56  1  0  0  0  0
 56 57  2  0  0  0  0
 57 58  1  0  0  0  0
 58 59  1  0  0  0  0
 59 60  1  0  0  0  0
 58 61  2  0  0  0  0
 53 62  1  0  0  0  0
 62 63  1  0  0  0  0
 63 64  1  0  0  0  0
 64 65  1  0  0  0  0
 65 66  1  0  0  0  0
 66 67  1  0  0  0  0
 67 68  2  0  0  0  0
 68 69  1  0  0  0  0
 69 70  1  0  0  0  0
 67 71  1  0  0  0  0
 71 72  1  0  0  0  0
 72 73  1  0  0  0  0
 73 74  1  0  0  0  0
 74 75  1  0  0  0  0
 75 76  1  0  0  0  0
 76 77  2  0  0  0  0
 77 78  1  0  0  0  0
 78 79  2  0  0  0  0
 79 80  1  0  0  0  0
 80 81  1  0  0  0  0
 81 82  1  0  0  0  0
 80 83  2  0  0  0  0
 75 84  2  0  0  0  0
 84 85  1  0  0  0  0
 85 86  1  0  0  0  0
 86 87  1  0  0  0  0
 87 88  1  0  0  0  0
 88 89  1  0  0  0  0
 89 90  1  0  0  0  0
 90 91  1  0  0  0  0
 91 92  1  0  0  0  0
 92 93  1  0  0  0  0
 93 94  1  0  0  0  0
 91 95  1  0  0  0  0
 95 96  1  0  0  0  0
 88 97  1  0  0  0  0
 97 98  1  0  0  0  0
 84 99  1  0  0  0  0
 99100  2  0  0  0  0
100101  1  0  0  0  0
101102  1  0  0  0  0
102103  1  0  0  0  0
101104  2  0  0  0  0
104105  1  0  0  0  0
104106  1  0  0  0  0
106107  1  0  0  0  0
107108  2  0  0  0  0
108109  1  0  0  0  0
109110  2  0  0  0  0
110111  1  0  0  0  0
111112  2  0  0  0  0
111113  1  0  0  0  0
113114  1  0  0  0  0
114115  1  0  0  0  0
113116  1  0  0  0  0
116117  2  0  0  0  0
116118  1  0  0  0  0
118119  1  0  0  0  0
119120  2  0  0  0  0
118121  1  0  0  0  0
121122  1  0  0  0  0
109123  1  0  0  0  0
123124  1  0  0  0  0
 11  2  1  0  0  0  0
 23 17  1  0  0  0  0
 48 24  1  0  0  0  0
 94 52  1  0  0  0  0
105 99  1  0  0  0  0
124106  1  0  0  0  0
 10  5  1  0  0  0  0
 22 18  1  0  0  0  0
 47 26  1  0  0  0  0
 61 54  1  0  0  0  0
 93 62  2  0  0  0  0
119110  1  0  0  0  0
 23  7  1  0  0  0  0
 35 28  1  0  0  0  0
 51 36  1  0  0  0  0
 92 64  2  0  0  0  0
 46 39  1  0  0  0  0
 90 65  2  0  0  0  0
 70 66  2  0  0  0  0
 89 71  2  0  0  0  0
 87 72  2  0  0  0  0
 86 74  2  0  0  0  0
 83 76  1  0  0  0  0
  1125  1  0  0  0  0
  6126  1  0  0  0  0
  9127  1  0  0  0  0
 17128  1  0  0  0  0
 18129  1  0  0  0  0
 19130  1  0  0  0  0
 20131  1  0  0  0  0
 21132  1  0  0  0  0
 22133  1  0  0  0  0
 22134  1  0  0  0  0
 23135  1  0  0  0  0
 25136  1  0  0  0  0
 29137  1  0  0  0  0
 30138  1  0  0  0  0
 33139  1  0  0  0  0
 33140  1  0  0  0  0
 34141  1  0  0  0  0
 34142  1  0  0  0  0
 34143  1  0  0  0  0
 40144  1  0  0  0  0
 41145  1  0  0  0  0
 44146  1  0  0  0  0
 44147  1  0  0  0  0
 45148  1  0  0  0  0
 45149  1  0  0  0  0
 45150  1  0  0  0  0
 49151  1  0  0  0  0
 55152  1  0  0  0  0
 56153  1  0  0  0  0
 57154  1  0  0  0  0
 59155  1  0  0  0  0
 59156  1  0  0  0  0
 60157  1  0  0  0  0
 60158  1  0  0  0  0
 60159  1  0  0  0  0
 61160  1  0  0  0  0
 77161  1  0  0  0  0
 78162  1  0  0  0  0
 79163  1  0  0  0  0
 81164  1  0  0  0  0
 81165  1  0  0  0  0
 82166  1  0  0  0  0
 82167  1  0  0  0  0
 82168  1  0  0  0  0
 83169  1  0  0  0  0
 95170  1  0  0  0  0
 95171  1  0  0  0  0
 96172  1  0  0  0  0
 96173  1  0  0  0  0
 96174  1  0  0  0  0
 97175  1  0  0  0  0
 97176  1  0  0  0  0
 98177  1  0  0  0  0
 98178  1  0  0  0  0
 98179  1  0  0  0  0
100180  1  0  0  0  0
102181  1  0  0  0  0
102182  1  0  0  0  0
103183  1  0  0  0  0
103184  1  0  0  0  0
103185  1  0  0  0  0
106186  1  0  0  0  0
107187  1  0  0  0  0
108188  1  0  0  0  0
114189  1  0  0  0  0
114190  1  0  0  0  0
115191  1  0  0  0  0
115192  1  0  0  0  0
115193  1  0  0  0  0
121194  1  0  0  0  0
121195  1  0  0  0  0
122196  1  0  0  0  0
122197  1  0  0  0  0
122198  1  0  0  0  0
123199  1  0  0  0  0
123200  1  0  0  0  0
124201  1  0  0  0  0
124202  1  0  0  0  0
M  END
