
  xtb     02232215483D
 energy: -363.222778345783 gnorm: 0.000280638523 xtb: 6.4.1 (unknown)
214240  0     0  0            999 V2000
  -11.9864   -4.2848    3.1409 C   0  0  0  0  0  0  0  0  0  0  0  0
  -12.6275   -4.5641    4.3033 C   0  0  0  0  0  0  0  0  0  0  0  0
  -14.0003   -5.1414    4.2970 C   0  0  0  0  0  0  0  0  0  0  0  0
  -14.5679   -5.6502    3.3573 O   0  0  0  0  0  0  0  0  0  0  0  0
  -14.5256   -4.9002    5.6551 C   0  0  0  0  0  0  0  0  0  0  0  0
  -15.8175   -5.1464    6.1161 C   0  0  0  0  0  0  0  0  0  0  0  0
  -16.0204   -4.7983    7.4298 C   0  0  0  0  0  0  0  0  0  0  0  0
  -15.0150   -4.2418    8.2329 C   0  0  0  0  0  0  0  0  0  0  0  0
  -13.7343   -4.0006    7.7968 C   0  0  0  0  0  0  0  0  0  0  0  0
  -13.5069   -4.3521    6.4643 C   0  0  0  0  0  0  0  0  0  0  0  0
  -12.2764   -4.2925    5.6827 C   0  0  0  0  0  0  0  0  0  0  0  0
  -11.0054   -4.2706    6.1931 C   0  0  0  0  0  0  0  0  0  0  0  0
  -10.7018   -4.0737    7.5544 C   0  0  0  0  0  0  0  0  0  0  0  0
  -10.3992   -3.8960    8.6476 N   0  0  0  0  0  0  0  0  0  0  0  0
   -9.8588   -4.5469    5.4175 C   0  0  0  0  0  0  0  0  0  0  0  0
   -8.9122   -4.8345    4.8351 N   0  0  0  0  0  0  0  0  0  0  0  0
  -15.9240   -4.1255    9.4300 C   0  0  0  0  0  0  0  0  0  0  0  0
  -16.4925   -2.7259    9.7713 C   0  0  0  0  0  0  0  0  0  0  0  0
  -16.5308   -1.9518    8.4772 C   0  0  0  0  0  0  0  0  0  0  0  0
  -17.4822   -2.4785    7.7180 C   0  0  0  0  0  0  0  0  0  0  0  0
  -18.1048   -3.6186    8.4852 C   0  0  0  0  0  0  0  0  0  0  0  0
  -17.9809   -3.0797    9.9194 C   0  0  0  0  0  0  0  0  0  0  0  0
  -17.0440   -4.7461    8.5368 C   0  0  0  0  0  0  0  0  0  0  0  0
  -10.8893   -3.4037    2.9426 C   0  0  0  0  0  0  0  0  0  0  0  0
   -9.9814   -3.4489    1.9183 C   0  0  0  0  0  0  0  0  0  0  0  0
   -8.9824   -2.4532    1.9838 C   0  0  0  0  0  0  0  0  0  0  0  0
   -7.8781   -2.2556    1.1213 C   0  0  0  0  0  0  0  0  0  0  0  0
   -7.6798   -3.0203   -0.0869 C   0  0  0  0  0  0  0  0  0  0  0  0
   -6.4857   -3.3982   -0.6399 C   0  0  0  0  0  0  0  0  0  0  0  0
   -6.5545   -4.0440   -1.8869 C   0  0  0  0  0  0  0  0  0  0  0  0
   -7.8139   -4.1929   -2.3967 C   0  0  0  0  0  0  0  0  0  0  0  0
   -8.1566   -5.0396   -3.8856 S   0  0  0  0  0  0  0  0  0  0  0  0
   -9.8698   -4.5082   -4.2322 C   0  0  0  0  0  0  0  0  0  0  0  0
   -9.9406   -3.0732   -4.7128 C   0  0  0  0  0  0  0  0  0  0  0  0
   -9.1105   -3.5054   -1.2186 Se  0  0  0  0  0  2  0  0  0  0  0  0
   -6.9966   -1.2380    1.4812 C   0  0  0  0  0  0  0  0  0  0  0  0
   -7.1746   -0.4232    2.6240 C   0  0  0  0  0  0  0  0  0  0  0  0
   -8.2960   -0.5931    3.4608 C   0  0  0  0  0  0  0  0  0  0  0  0
   -8.5251    0.2925    4.5826 C   0  0  0  0  0  0  0  0  0  0  0  0
   -7.6205    0.7341    5.5046 C   0  0  0  0  0  0  0  0  0  0  0  0
   -8.1002    1.6718    6.4406 C   0  0  0  0  0  0  0  0  0  0  0  0
   -9.4091    2.0230    6.2859 C   0  0  0  0  0  0  0  0  0  0  0  0
  -10.1993    3.2685    7.2267 S   0  0  0  0  0  0  0  0  0  0  0  0
  -11.9539    2.7984    7.0362 C   0  0  0  0  0  0  0  0  0  0  0  0
  -12.2894    1.5248    7.7847 C   0  0  0  0  0  0  0  0  0  0  0  0
  -10.2009    1.1142    4.8333 Se  0  0  0  0  0  2  0  0  0  0  0  0
   -9.1696   -1.6078    3.1061 C   0  0  0  0  0  0  0  0  0  0  0  0
  -10.5870   -2.0441    4.0126 S   0  0  0  0  0  0  0  0  0  0  0  0
   -6.1883    0.5789    2.7322 C   0  0  0  0  0  0  0  0  0  0  0  0
   -5.2913    0.5849    1.7043 C   0  0  0  0  0  0  0  0  0  0  0  0
   -5.6021   -0.7161    0.5697 S   0  0  0  0  0  0  0  0  0  0  0  0
   -4.1971    1.4782    1.5111 C   0  0  0  0  0  0  0  0  0  0  0  0
   -3.9631    2.7037    2.1135 C   0  0  0  0  0  0  0  0  0  0  0  0
   -4.8729    3.3798    3.0463 C   0  0  0  0  0  0  0  0  0  0  0  0
   -4.3960    3.8050    4.2819 C   0  0  0  0  0  0  0  0  0  0  0  0
   -5.2650    4.3663    5.2005 C   0  0  0  0  0  0  0  0  0  0  0  0
   -6.6080    4.5017    4.9005 C   0  0  0  0  0  0  0  0  0  0  0  0
   -7.0967    4.1075    3.6599 C   0  0  0  0  0  0  0  0  0  0  0  0
   -8.5498    4.2786    3.3243 C   0  0  0  0  0  0  0  0  0  0  0  0
   -8.8078    5.6590    2.7200 C   0  0  0  0  0  0  0  0  0  0  0  0
   -6.2169    3.5686    2.7344 C   0  0  0  0  0  0  0  0  0  0  0  0
   -2.7035    3.2143    1.7440 C   0  0  0  0  0  0  0  0  0  0  0  0
   -1.8457    4.6714    2.1865 S   0  0  0  0  0  0  0  0  0  0  0  0
   -0.5107    4.1528    1.2129 C   0  0  0  0  0  0  0  0  0  0  0  0
    0.8164    4.5281    0.9459 C   0  0  0  0  0  0  0  0  0  0  0  0
    1.6265    5.5531    1.4836 C   0  0  0  0  0  0  0  0  0  0  0  0
    3.0414    5.5290    1.2295 C   0  0  0  0  0  0  0  0  0  0  0  0
    3.6848    6.4953    1.8653 N   0  0  0  0  0  0  0  0  0  0  0  0
    2.6067    7.3661    2.7031 S   0  0  0  0  0  0  0  0  0  0  0  0
    1.2760    6.5400    2.2927 N   0  0  0  0  0  0  0  0  0  0  0  0
    3.5628    4.5554    0.3497 C   0  0  0  0  0  0  0  0  0  0  0  0
    4.8692    4.2863   -0.0967 C   0  0  0  0  0  0  0  0  0  0  0  0
    6.4923    4.8132    0.1917 S   0  0  0  0  0  0  0  0  0  0  0  0
    7.0660    3.6189   -0.9514 C   0  0  0  0  0  0  0  0  0  0  0  0
    8.3635    3.2042   -1.3304 C   0  0  0  0  0  0  0  0  0  0  0  0
    9.5558    3.7958   -0.7173 C   0  0  0  0  0  0  0  0  0  0  0  0
   10.6130    3.0118   -0.2609 C   0  0  0  0  0  0  0  0  0  0  0  0
   11.6715    3.6013    0.4062 C   0  0  0  0  0  0  0  0  0  0  0  0
   11.6754    4.9641    0.6547 C   0  0  0  0  0  0  0  0  0  0  0  0
   10.6181    5.7582    0.2299 C   0  0  0  0  0  0  0  0  0  0  0  0
   10.5785    7.2302    0.5284 C   0  0  0  0  0  0  0  0  0  0  0  0
   11.1688    8.0519   -0.6175 C   0  0  0  0  0  0  0  0  0  0  0  0
    9.5796    5.1662   -0.4727 C   0  0  0  0  0  0  0  0  0  0  0  0
    8.2994    2.1460   -2.2213 C   0  0  0  0  0  0  0  0  0  0  0  0
    6.6478    1.6641   -2.5849 S   0  0  0  0  0  0  0  0  0  0  0  0
    6.0333    2.8775   -1.5254 C   0  0  0  0  0  0  0  0  0  0  0  0
    4.7778    3.2586   -1.0370 C   0  0  0  0  0  0  0  0  0  0  0  0
    3.4701    2.8717   -1.1906 N   0  0  0  0  0  0  0  0  0  0  0  0
    2.7123    3.6301   -0.3131 C   0  0  0  0  0  0  0  0  0  0  0  0
    1.3576    3.5301    0.0900 C   0  0  0  0  0  0  0  0  0  0  0  0
    0.3936    2.5638   -0.1276 N   0  0  0  0  0  0  0  0  0  0  0  0
   -0.7321    2.9382    0.5575 C   0  0  0  0  0  0  0  0  0  0  0  0
   -1.9891    2.4004    0.8616 C   0  0  0  0  0  0  0  0  0  0  0  0
   -2.8816    0.9765    0.4651 S   0  0  0  0  0  0  0  0  0  0  0  0
    0.5339    1.2054   -0.6037 C   0  0  0  0  0  0  0  0  0  0  0  0
   -0.2507    0.9612   -1.8924 C   0  0  0  0  0  0  0  0  0  0  0  0
    3.0466    2.2805   -2.4420 C   0  0  0  0  0  0  0  0  0  0  0  0
    3.3776    3.1896   -3.6257 C   0  0  0  0  0  0  0  0  0  0  0  0
    9.3330    1.3834   -2.8437 C   0  0  0  0  0  0  0  0  0  0  0  0
   10.6329    1.7052   -3.1065 C   0  0  0  0  0  0  0  0  0  0  0  0
   11.3851    0.6426   -3.6661 C   0  0  0  0  0  0  0  0  0  0  0  0
   12.7555    0.6279   -4.0096 C   0  0  0  0  0  0  0  0  0  0  0  0
   13.6381    1.7589   -3.8135 C   0  0  0  0  0  0  0  0  0  0  0  0
   14.7047    2.1001   -4.6006 C   0  0  0  0  0  0  0  0  0  0  0  0
   15.4673    3.2025   -4.1697 C   0  0  0  0  0  0  0  0  0  0  0  0
   15.0443    3.7772   -3.0104 C   0  0  0  0  0  0  0  0  0  0  0  0
   15.8110    5.1361   -2.2179 S   0  0  0  0  0  0  0  0  0  0  0  0
   14.3294    6.1700   -1.9198 C   0  0  0  0  0  0  0  0  0  0  0  0
   13.7032    6.6202   -3.2237 C   0  0  0  0  0  0  0  0  0  0  0  0
   13.5455    2.8842   -2.3020 Se  0  0  0  0  0  2  0  0  0  0  0  0
   13.2497   -0.5776   -4.5078 C   0  0  0  0  0  0  0  0  0  0  0  0
   12.4499   -1.7355   -4.7010 C   0  0  0  0  0  0  0  0  0  0  0  0
   11.0604   -1.6965   -4.4256 C   0  0  0  0  0  0  0  0  0  0  0  0
   10.2121   -2.8312   -4.6947 C   0  0  0  0  0  0  0  0  0  0  0  0
   10.3291   -3.7169   -5.7343 C   0  0  0  0  0  0  0  0  0  0  0  0
    9.3969   -4.7698   -5.7685 C   0  0  0  0  0  0  0  0  0  0  0  0
    8.4998   -4.7689   -4.7389 C   0  0  0  0  0  0  0  0  0  0  0  0
    7.2020   -5.8868   -4.4057 S   0  0  0  0  0  0  0  0  0  0  0  0
    7.5708   -7.2524   -5.5732 C   0  0  0  0  0  0  0  0  0  0  0  0
    6.6484   -8.4198   -5.2821 C   0  0  0  0  0  0  0  0  0  0  0  0
    8.7563   -3.3172   -3.5797 Se  0  0  0  0  0  2  0  0  0  0  0  0
   10.5884   -0.5108   -3.8758 C   0  0  0  0  0  0  0  0  0  0  0  0
    8.9474   -0.2482   -3.3642 S   0  0  0  0  0  0  0  0  0  0  0  0
   13.2125   -2.8553   -5.0824 C   0  0  0  0  0  0  0  0  0  0  0  0
   14.5538   -2.5973   -5.2187 C   0  0  0  0  0  0  0  0  0  0  0  0
   14.9179   -0.9102   -4.8705 S   0  0  0  0  0  0  0  0  0  0  0  0
   15.6271   -3.4474   -5.5649 C   0  0  0  0  0  0  0  0  0  0  0  0
   15.6482   -4.7618   -5.9237 C   0  0  0  0  0  0  0  0  0  0  0  0
   14.5840   -5.7586   -6.1278 C   0  0  0  0  0  0  0  0  0  0  0  0
   13.3785   -5.6271   -6.0385 O   0  0  0  0  0  0  0  0  0  0  0  0
   15.2780   -7.0162   -6.5030 C   0  0  0  0  0  0  0  0  0  0  0  0
   14.7352   -8.2551   -6.7887 C   0  0  0  0  0  0  0  0  0  0  0  0
   15.6013   -9.2908   -7.1135 C   0  0  0  0  0  0  0  0  0  0  0  0
   16.9742   -9.0885   -7.1519 C   0  0  0  0  0  0  0  0  0  0  0  0
   17.5221   -7.8443   -6.8671 C   0  0  0  0  0  0  0  0  0  0  0  0
   16.6615   -6.8124   -6.5431 C   0  0  0  0  0  0  0  0  0  0  0  0
   16.9577   -5.4029   -6.1985 C   0  0  0  0  0  0  0  0  0  0  0  0
   18.0456   -4.8726   -6.1477 O   0  0  0  0  0  0  0  0  0  0  0  0
  -12.4034   -4.7363    2.2461 H   0  0  0  0  0  0  0  0  0  0  0  0
  -16.5645   -5.5776    5.4681 H   0  0  0  0  0  0  0  0  0  0  0  0
  -12.9674   -3.5679    8.4184 H   0  0  0  0  0  0  0  0  0  0  0  0
  -15.6151   -4.6753   10.3167 H   0  0  0  0  0  0  0  0  0  0  0  0
  -16.0080   -2.2346   10.6109 H   0  0  0  0  0  0  0  0  0  0  0  0
  -15.8437   -1.1635    8.2305 H   0  0  0  0  0  0  0  0  0  0  0  0
  -17.7495   -2.2175    6.7107 H   0  0  0  0  0  0  0  0  0  0  0  0
  -19.0890   -3.9392    8.1541 H   0  0  0  0  0  0  0  0  0  0  0  0
  -18.6063   -2.2060   10.0966 H   0  0  0  0  0  0  0  0  0  0  0  0
  -18.1739   -3.8314   10.6834 H   0  0  0  0  0  0  0  0  0  0  0  0
  -17.4677   -5.7010    8.8413 H   0  0  0  0  0  0  0  0  0  0  0  0
  -10.0003   -4.2423    1.1896 H   0  0  0  0  0  0  0  0  0  0  0  0
   -5.5464   -3.2438   -0.1371 H   0  0  0  0  0  0  0  0  0  0  0  0
   -5.6821   -4.3923   -2.4119 H   0  0  0  0  0  0  0  0  0  0  0  0
  -10.4475   -4.6590   -3.3147 H   0  0  0  0  0  0  0  0  0  0  0  0
  -10.2242   -5.2003   -4.9953 H   0  0  0  0  0  0  0  0  0  0  0  0
  -10.9732   -2.8074   -4.9288 H   0  0  0  0  0  0  0  0  0  0  0  0
   -9.5619   -2.3926   -3.9506 H   0  0  0  0  0  0  0  0  0  0  0  0
   -9.3484   -2.9458   -5.6159 H   0  0  0  0  0  0  0  0  0  0  0  0
   -6.6173    0.3453    5.5539 H   0  0  0  0  0  0  0  0  0  0  0  0
   -7.4853    2.0793    7.2239 H   0  0  0  0  0  0  0  0  0  0  0  0
  -12.1449    2.6998    5.9624 H   0  0  0  0  0  0  0  0  0  0  0  0
  -12.5134    3.6489    7.4240 H   0  0  0  0  0  0  0  0  0  0  0  0
  -11.7104    0.6869    7.3960 H   0  0  0  0  0  0  0  0  0  0  0  0
  -12.0686    1.6367    8.8436 H   0  0  0  0  0  0  0  0  0  0  0  0
  -13.3467    1.2965    7.6670 H   0  0  0  0  0  0  0  0  0  0  0  0
   -6.1570    1.2827    3.5393 H   0  0  0  0  0  0  0  0  0  0  0  0
   -3.3537    3.6706    4.5292 H   0  0  0  0  0  0  0  0  0  0  0  0
   -4.8925    4.6847    6.1628 H   0  0  0  0  0  0  0  0  0  0  0  0
   -7.2884    4.9097    5.6340 H   0  0  0  0  0  0  0  0  0  0  0  0
   -8.8583    3.5069    2.6145 H   0  0  0  0  0  0  0  0  0  0  0  0
   -9.1478    4.1665    4.2321 H   0  0  0  0  0  0  0  0  0  0  0  0
   -9.8614    5.7777    2.4780 H   0  0  0  0  0  0  0  0  0  0  0  0
   -8.2246    5.7894    1.8110 H   0  0  0  0  0  0  0  0  0  0  0  0
   -8.5227    6.4374    3.4241 H   0  0  0  0  0  0  0  0  0  0  0  0
   -6.5822    3.2609    1.7644 H   0  0  0  0  0  0  0  0  0  0  0  0
   10.5914    1.9416   -0.4007 H   0  0  0  0  0  0  0  0  0  0  0  0
   12.4861    2.9862    0.7634 H   0  0  0  0  0  0  0  0  0  0  0  0
   12.4927    5.4088    1.2046 H   0  0  0  0  0  0  0  0  0  0  0  0
   11.1407    7.4339    1.4418 H   0  0  0  0  0  0  0  0  0  0  0  0
    9.5427    7.5344    0.6907 H   0  0  0  0  0  0  0  0  0  0  0  0
   10.6448    7.8363   -1.5464 H   0  0  0  0  0  0  0  0  0  0  0  0
   12.2216    7.8142   -0.7484 H   0  0  0  0  0  0  0  0  0  0  0  0
   11.0777    9.1149   -0.4072 H   0  0  0  0  0  0  0  0  0  0  0  0
    8.7659    5.7830   -0.8249 H   0  0  0  0  0  0  0  0  0  0  0  0
    1.5932    0.9782   -0.7245 H   0  0  0  0  0  0  0  0  0  0  0  0
    0.1385    0.5391    0.1719 H   0  0  0  0  0  0  0  0  0  0  0  0
    0.0014    1.6869   -2.6627 H   0  0  0  0  0  0  0  0  0  0  0  0
   -1.3176    1.0353   -1.7008 H   0  0  0  0  0  0  0  0  0  0  0  0
   -0.0378   -0.0360   -2.2668 H   0  0  0  0  0  0  0  0  0  0  0  0
    3.5517    1.3166   -2.5631 H   0  0  0  0  0  0  0  0  0  0  0  0
    1.9730    2.1299   -2.4174 H   0  0  0  0  0  0  0  0  0  0  0  0
    2.9148    4.1652   -3.4911 H   0  0  0  0  0  0  0  0  0  0  0  0
    4.4506    3.3240   -3.7281 H   0  0  0  0  0  0  0  0  0  0  0  0
    2.9978    2.7450   -4.5415 H   0  0  0  0  0  0  0  0  0  0  0  0
   11.0246    2.6892   -2.9145 H   0  0  0  0  0  0  0  0  0  0  0  0
   14.9151    1.6035   -5.5323 H   0  0  0  0  0  0  0  0  0  0  0  0
   16.3118    3.5793   -4.7201 H   0  0  0  0  0  0  0  0  0  0  0  0
   14.6926    7.0136   -1.3341 H   0  0  0  0  0  0  0  0  0  0  0  0
   13.6315    5.5781   -1.3196 H   0  0  0  0  0  0  0  0  0  0  0  0
   14.4305    7.1586   -3.8273 H   0  0  0  0  0  0  0  0  0  0  0  0
   12.8557    7.2732   -3.0290 H   0  0  0  0  0  0  0  0  0  0  0  0
   13.3514    5.7589   -3.7913 H   0  0  0  0  0  0  0  0  0  0  0  0
   11.0595   -3.5971   -6.5156 H   0  0  0  0  0  0  0  0  0  0  0  0
    9.4064   -5.5051   -6.5531 H   0  0  0  0  0  0  0  0  0  0  0  0
    7.4195   -6.8743   -6.5842 H   0  0  0  0  0  0  0  0  0  0  0  0
    8.6156   -7.5261   -5.4281 H   0  0  0  0  0  0  0  0  0  0  0  0
    5.6092   -8.1254   -5.4085 H   0  0  0  0  0  0  0  0  0  0  0  0
    6.7860   -8.7679   -4.2612 H   0  0  0  0  0  0  0  0  0  0  0  0
    6.8651   -9.2393   -5.9636 H   0  0  0  0  0  0  0  0  0  0  0  0
   12.8093   -3.8413   -5.2155 H   0  0  0  0  0  0  0  0  0  0  0  0
   16.6089   -2.9801   -5.5383 H   0  0  0  0  0  0  0  0  0  0  0  0
   13.6665   -8.4032   -6.7556 H   0  0  0  0  0  0  0  0  0  0  0  0
   15.2025  -10.2689   -7.3393 H   0  0  0  0  0  0  0  0  0  0  0  0
   17.6248   -9.9120   -7.4071 H   0  0  0  0  0  0  0  0  0  0  0  0
   18.5880   -7.6776   -6.8949 H   0  0  0  0  0  0  0  0  0  0  0  0
  1  2  2  0  0  0  0
  2  3  1  0  0  0  0
  3  4  2  0  0  0  0
  3  5  1  0  0  0  0
  5  6  2  0  0  0  0
  6  7  1  0  0  0  0
  7  8  2  0  0  0  0
  8  9  1  0  0  0  0
  9 10  2  0  0  0  0
 10 11  1  0  0  0  0
 11 12  2  0  0  0  0
 12 13  1  0  0  0  0
 13 14  3  0  0  0  0
 12 15  1  0  0  0  0
 15 16  3  0  0  0  0
  8 17  1  0  0  0  0
 17 18  1  0  0  0  0
 18 19  1  0  0  0  0
 19 20  2  0  0  0  0
 20 21  1  0  0  0  0
 21 22  1  0  0  0  0
 21 23  1  0  0  0  0
  1 24  1  0  0  0  0
 24 25  2  0  0  0  0
 25 26  1  0  0  0  0
 26 27  2  0  0  0  0
 27 28  1  0  0  0  0
 28 29  2  0  0  0  0
 29 30  1  0  0  0  0
 30 31  2  0  0  0  0
 31 32  1  0  0  0  0
 32 33  1  0  0  0  0
 33 34  1  0  0  0  0
 31 35  1  0  0  0  0
 27 36  1  0  0  0  0
 36 37  2  0  0  0  0
 37 38  1  0  0  0  0
 38 39  1  0  0  0  0
 39 40  2  0  0  0  0
 40 41  1  0  0  0  0
 41 42  2  0  0  0  0
 42 43  1  0  0  0  0
 43 44  1  0  0  0  0
 44 45  1  0  0  0  0
 42 46  1  0  0  0  0
 38 47  2  0  0  0  0
 47 48  1  0  0  0  0
 37 49  1  0  0  0  0
 49 50  2  0  0  0  0
 50 51  1  0  0  0  0
 50 52  1  0  0  0  0
 52 53  2  0  0  0  0
 53 54  1  0  0  0  0
 54 55  2  0  0  0  0
 55 56  1  0  0  0  0
 56 57  2  0  0  0  0
 57 58  1  0  0  0  0
 58 59  1  0  0  0  0
 59 60  1  0  0  0  0
 58 61  2  0  0  0  0
 53 62  1  0  0  0  0
 62 63  1  0  0  0  0
 63 64  1  0  0  0  0
 64 65  1  0  0  0  0
 65 66  1  0  0  0  0
 66 67  1  0  0  0  0
 67 68  2  0  0  0  0
 68 69  1  0  0  0  0
 69 70  1  0  0  0  0
 67 71  1  0  0  0  0
 71 72  1  0  0  0  0
 72 73  1  0  0  0  0
 73 74  1  0  0  0  0
 74 75  1  0  0  0  0
 75 76  1  0  0  0  0
 76 77  2  0  0  0  0
 77 78  1  0  0  0  0
 78 79  2  0  0  0  0
 79 80  1  0  0  0  0
 80 81  1  0  0  0  0
 81 82  1  0  0  0  0
 80 83  2  0  0  0  0
 75 84  2  0  0  0  0
 84 85  1  0  0  0  0
 85 86  1  0  0  0  0
 86 87  1  0  0  0  0
 87 88  1  0  0  0  0
 88 89  1  0  0  0  0
 89 90  1  0  0  0  0
 90 91  1  0  0  0  0
 91 92  1  0  0  0  0
 92 93  1  0  0  0  0
 93 94  1  0  0  0  0
 91 95  1  0  0  0  0
 95 96  1  0  0  0  0
 88 97  1  0  0  0  0
 97 98  1  0  0  0  0
 84 99  1  0  0  0  0
 99100  2  0  0  0  0
100101  1  0  0  0  0
101102  2  0  0  0  0
102103  1  0  0  0  0
103104  2  0  0  0  0
104105  1  0  0  0  0
105106  2  0  0  0  0
106107  1  0  0  0  0
107108  1  0  0  0  0
108109  1  0  0  0  0
106110  1  0  0  0  0
102111  1  0  0  0  0
111112  2  0  0  0  0
112113  1  0  0  0  0
113114  1  0  0  0  0
114115  2  0  0  0  0
115116  1  0  0  0  0
116117  2  0  0  0  0
117118  1  0  0  0  0
118119  1  0  0  0  0
119120  1  0  0  0  0
117121  1  0  0  0  0
113122  2  0  0  0  0
122123  1  0  0  0  0
112124  1  0  0  0  0
124125  2  0  0  0  0
125126  1  0  0  0  0
125127  1  0  0  0  0
127128  2  0  0  0  0
128129  1  0  0  0  0
129130  2  0  0  0  0
129131  1  0  0  0  0
131132  2  0  0  0  0
132133  1  0  0  0  0
133134  2  0  0  0  0
134135  1  0  0  0  0
135136  2  0  0  0  0
136137  1  0  0  0  0
137138  2  0  0  0  0
 11  2  1  0  0  0  0
 23 17  1  0  0  0  0
 48 24  1  0  0  0  0
 94 52  1  0  0  0  0
123 99  1  0  0  0  0
137128  1  0  0  0  0
 10  5  1  0  0  0  0
 22 18  1  0  0  0  0
 47 26  1  0  0  0  0
 61 54  1  0  0  0  0
 93 62  2  0  0  0  0
122101  1  0  0  0  0
136131  1  0  0  0  0
 23  7  1  0  0  0  0
 35 28  1  0  0  0  0
 51 36  1  0  0  0  0
 92 64  2  0  0  0  0
110103  1  0  0  0  0
126111  1  0  0  0  0
 46 39  1  0  0  0  0
 90 65  2  0  0  0  0
121114  1  0  0  0  0
 70 66  2  0  0  0  0
 89 71  2  0  0  0  0
 87 72  2  0  0  0  0
 86 74  2  0  0  0  0
 83 76  1  0  0  0  0
  1139  1  0  0  0  0
  6140  1  0  0  0  0
  9141  1  0  0  0  0
 17142  1  0  0  0  0
 18143  1  0  0  0  0
 19144  1  0  0  0  0
 20145  1  0  0  0  0
 21146  1  0  0  0  0
 22147  1  0  0  0  0
 22148  1  0  0  0  0
 23149  1  0  0  0  0
 25150  1  0  0  0  0
 29151  1  0  0  0  0
 30152  1  0  0  0  0
 33153  1  0  0  0  0
 33154  1  0  0  0  0
 34155  1  0  0  0  0
 34156  1  0  0  0  0
 34157  1  0  0  0  0
 40158  1  0  0  0  0
 41159  1  0  0  0  0
 44160  1  0  0  0  0
 44161  1  0  0  0  0
 45162  1  0  0  0  0
 45163  1  0  0  0  0
 45164  1  0  0  0  0
 49165  1  0  0  0  0
 55166  1  0  0  0  0
 56167  1  0  0  0  0
 57168  1  0  0  0  0
 59169  1  0  0  0  0
 59170  1  0  0  0  0
 60171  1  0  0  0  0
 60172  1  0  0  0  0
 60173  1  0  0  0  0
 61174  1  0  0  0  0
 77175  1  0  0  0  0
 78176  1  0  0  0  0
 79177  1  0  0  0  0
 81178  1  0  0  0  0
 81179  1  0  0  0  0
 82180  1  0  0  0  0
 82181  1  0  0  0  0
 82182  1  0  0  0  0
 83183  1  0  0  0  0
 95184  1  0  0  0  0
 95185  1  0  0  0  0
 96186  1  0  0  0  0
 96187  1  0  0  0  0
 96188  1  0  0  0  0
 97189  1  0  0  0  0
 97190  1  0  0  0  0
 98191  1  0  0  0  0
 98192  1  0  0  0  0
 98193  1  0  0  0  0
100194  1  0  0  0  0
104195  1  0  0  0  0
105196  1  0  0  0  0
108197  1  0  0  0  0
108198  1  0  0  0  0
109199  1  0  0  0  0
109200  1  0  0  0  0
109201  1  0  0  0  0
115202  1  0  0  0  0
116203  1  0  0  0  0
119204  1  0  0  0  0
119205  1  0  0  0  0
120206  1  0  0  0  0
120207  1  0  0  0  0
120208  1  0  0  0  0
124209  1  0  0  0  0
127210  1  0  0  0  0
132211  1  0  0  0  0
133212  1  0  0  0  0
134213  1  0  0  0  0
135214  1  0  0  0  0
M  END
