184

C          8.68530       -1.06520        7.00730
C          9.38660       -0.01970        6.51630
C          8.76350        1.24740        6.03580
O          7.58410        1.52260        5.99860
C          9.88590        2.14810        5.72670
C          9.79600        3.45150        5.23950
C         11.01000        4.06580        5.05350
C         12.22900        3.43710        5.34620
C         12.33330        2.15870        5.83790
C         11.10770        1.50760        6.02150
C         10.83080        0.15530        6.49140
C         11.75920       -0.81050        6.76670
C         13.15600       -0.61850        6.70480
N         14.29990       -0.52650        6.67890
C         11.45500       -2.14780        7.10520
N         11.29660       -3.25780        7.35040
C         13.04040        4.63390        4.91730
C         13.71950        4.54360        3.53400
C         14.01950        5.98340        3.18440
C         12.86690        6.58000        2.90780
C         11.76860        5.55320        3.06530
C         12.51840        4.29360        2.61270
C         11.68230        5.33440        4.59100
C          7.26240       -1.21170        6.82580
C          6.39580       -1.56370        7.83750
C          6.72320       -1.76820        9.26690
O          7.80140       -1.74040        9.80910
N          5.51450       -1.98540        9.89510
C          5.37500       -2.22780       11.31430
C          5.07240       -3.69570       11.59060
C          4.42780       -1.90320        9.03120
O          3.27660       -1.92700        9.39080
C          4.99850       -1.69960        7.68400
C          4.36250       -1.55010        6.46030
C          5.22510       -1.16690        5.38800
C          6.64650       -1.02050        5.55700
N          7.25790       -0.74320        4.41070
S          6.15730       -0.63070        3.24590
N          4.85530       -0.96590        4.12750
C          2.97130       -1.76980        6.20750
C          2.12550       -2.73620        6.73050
C          2.53990       -3.83730        7.59590
C          3.73600       -4.51440        7.36730
C          4.11070       -5.55090        8.19910
C          3.29840       -5.92710        9.25620
C          2.09530       -5.27340        9.48820
C          1.17820       -5.70560       10.59530
C          0.08290       -6.62210       10.04630
C          1.72410       -4.23330        8.64920
C          0.82300       -2.59850        6.21690
S         -0.64410       -3.52800        6.42860
C         -1.43350       -2.50920        5.27130
C         -2.66210       -2.40430        4.59930
C         -3.79420       -3.24870        4.59290
C         -4.83390       -3.00950        3.63220
N         -5.79420       -3.91890        3.68930
S         -5.42760       -4.97970        4.85660
N         -4.02560       -4.32290        5.33090
C         -4.75070       -1.87010        2.80230
C         -5.62510       -1.36370        1.82540
S         -7.07550       -1.81010        0.98980
C         -6.95660       -0.34810        0.03650
C         -7.72550        0.17930       -1.02850
C         -8.94280       -0.44910       -1.54220
C        -10.05760        0.31880       -1.87360
C        -11.20490       -0.29710       -2.33300
C        -11.25780       -1.67520       -2.45910
C        -10.15810       -2.45610       -2.12980
C        -10.21540       -3.95410       -2.20690
C        -10.49460       -4.54450       -0.82310
C         -9.00690       -1.83190       -1.67310
C         -7.20730        1.37640       -1.47180
S         -5.79410        1.88190       -0.56110
C         -5.86710        0.44460        0.39210
C         -5.09600       -0.14390        1.40300
N         -3.92130        0.11610        2.05420
C         -3.66970       -0.95030        2.90430
C         -2.56030       -1.28560        3.72330
N         -1.29200       -0.74640        3.85070
C         -0.61100       -1.49690        4.77010
C          0.68270       -1.55180        5.30020
S          2.17520       -0.72530        5.04780
C         -0.55970        0.13720        2.97240
C         -0.46200       -0.42940        1.55830
C         -3.40740        1.46780        2.08330
C         -3.50470        2.07640        3.47950
C         -7.55540        2.16380       -2.63700
C         -7.90390        1.52470       -3.83810
C         -8.07810        2.29330       -4.96290
C         -8.33330        1.85560       -6.36300
O         -8.55260        0.73730       -6.75980
C         -8.25960        3.11250       -7.15710
C         -8.08010        4.20620       -6.28540
C         -7.94200        3.69620       -4.92860
C         -7.63590        4.33000       -3.73970
C         -7.43240        3.55430       -2.60830
C         -8.02890        5.49200       -6.79110
C         -8.09520        5.66610       -8.16480
C         -8.16510        4.57760       -9.03920
C         -8.29020        3.27920       -8.52000
C         -8.09220        4.81920      -10.46460
C         -7.33520        4.10770      -11.33110
C         -6.25960        3.15110      -10.93280
O         -6.01000        2.72570       -9.82740
C         -5.48430        2.89850      -12.15960
C         -4.34020        2.10850      -12.26530
C         -3.80570        2.06520      -13.52950
C         -4.36370        2.76050      -14.61250
C         -5.49280        3.53810      -14.52410
C         -6.05670        3.59440      -13.24380
C         -7.23480        4.31060      -12.77100
C         -8.12500        4.99930      -13.54860
C         -9.29520        5.62810      -13.07020
N        -10.26710        6.15540      -12.76170
C         -8.01030        5.15870      -14.94630
N         -7.97550        5.33300      -16.08030
C         -3.30150        2.28030      -15.56990
C         -2.19090        3.28980      -15.93070
C         -1.07480        2.42280      -16.46750
C         -0.54920        1.76180      -15.44400
C         -1.30110        2.17090      -14.19810
C         -1.61780        3.63050      -14.54880
C         -2.68280        1.50270      -14.36410
H          9.17150       -1.83760        7.58850
H          8.83600        3.90030        5.03750
H         13.27700        1.69440        6.07060
H         13.68310        5.07040        5.67920
H         14.54810        3.84310        3.47910
H         15.00020        6.41920        3.22710
H         12.69280        7.61380        2.67350
H         10.82030        5.77350        2.58230
H         12.79250        4.33430        1.55990
H         11.98880        3.36450        2.81530
H         11.41750        6.23820        5.13650
H          6.31640       -1.92880       11.78110
H          4.55990       -1.60060       11.68540
H          4.14290       -3.98190       11.10370
H          5.87520       -4.32460       11.21280
H          4.97470       -3.85540       12.66060
H          4.36050       -4.23780        6.52990
H          5.04010       -6.07200        8.02110
H          3.60260       -6.73560        9.90560
H          1.74470       -6.23640       11.36320
H          0.71730       -4.82820       11.05300
H         -0.59010       -6.92990       10.84300
H          0.52320       -7.51130        9.60040
H         -0.49390       -6.10650        9.28200
H          0.80490       -3.69980        8.83600
H        -10.02380        1.39210       -1.75790
H        -12.06710        0.30060       -2.58990
H        -12.16120       -2.14790       -2.81640
H         -9.26360       -4.34150       -2.57630
H        -11.00160       -4.26140       -2.89880
H        -11.44330       -4.17530       -0.43970
H         -9.71040       -4.26110       -0.12470
H        -10.53940       -5.62980       -0.87470
H         -8.14110       -2.43060       -1.43080
H          0.44510        0.22770        3.39210
H         -1.00000        1.13440        2.97740
H          0.08830        0.25760        0.92120
H          0.06500       -1.38040        1.57770
H         -1.44750       -0.59580        1.12980
H         -4.02660        2.04790        1.39450
H         -2.38680        1.50400        1.69920
H         -4.54410        2.10910        3.79820
H         -2.94680        1.49060        4.20600
H         -3.11320        3.09000        3.46950
H         -7.98780        0.45020       -3.88810
H         -7.52890        5.40300       -3.68900
H         -7.15990        4.03230       -1.67780
H         -7.92750        6.34570       -6.13810
H         -8.03680        6.66300       -8.57820
H         -8.42230        2.43040       -9.17150
H         -8.64120        5.68030      -10.82670
H         -3.94590        1.59100      -11.40490
H         -5.90960        4.06660      -15.36510
H         -3.65770        1.71470      -16.42850
H         -2.51350        4.11630      -16.55780
H         -0.82720        2.34080      -17.50940
H          0.22480        1.01720      -15.46010
H         -0.81340        1.97830      -13.24630
H         -0.71930        4.24160      -14.61570
H         -2.33060        4.10430      -13.87620
H         -2.62730        0.41720      -14.41700
