
  xtb     02252209063D
 energy: -379.692679518182 gnorm: 0.000388818526 xtb: 6.4.1 (unknown)
236264  0     0  0            999 V2000
   -6.8515   10.0700    4.5807 C   0  0  0  0  0  0  0  0  0  0  0  0
   -7.0379   10.9381    3.5358 C   0  0  0  0  0  0  0  0  0  0  0  0
   -6.0566   11.3000    2.4893 C   0  0  0  0  0  0  0  0  0  0  0  0
   -4.8506   11.1500    2.4883 O   0  0  0  0  0  0  0  0  0  0  0  0
   -6.8522   11.8508    1.3737 C   0  0  0  0  0  0  0  0  0  0  0  0
   -6.3765   12.2251    0.1196 C   0  0  0  0  0  0  0  0  0  0  0  0
   -7.3521   12.6747   -0.7372 C   0  0  0  0  0  0  0  0  0  0  0  0
   -8.7041   12.7427   -0.3760 C   0  0  0  0  0  0  0  0  0  0  0  0
   -9.1863   12.3794    0.8592 C   0  0  0  0  0  0  0  0  0  0  0  0
   -8.2081   11.9238    1.7469 C   0  0  0  0  0  0  0  0  0  0  0  0
   -8.3318   11.4401    3.1187 C   0  0  0  0  0  0  0  0  0  0  0  0
   -9.4553   11.5266    3.9006 C   0  0  0  0  0  0  0  0  0  0  0  0
  -10.6871   12.0554    3.4659 C   0  0  0  0  0  0  0  0  0  0  0  0
  -11.7171   12.4713    3.1738 N   0  0  0  0  0  0  0  0  0  0  0  0
   -9.5174   11.1553    5.2601 C   0  0  0  0  0  0  0  0  0  0  0  0
   -9.6387   10.8996    6.3734 N   0  0  0  0  0  0  0  0  0  0  0  0
   -9.1201   13.2729   -1.7255 C   0  0  0  0  0  0  0  0  0  0  0  0
   -9.4349   14.7844   -1.8422 C   0  0  0  0  0  0  0  0  0  0  0  0
   -8.6388   15.4720   -0.7610 C   0  0  0  0  0  0  0  0  0  0  0  0
   -7.3582   15.4117   -1.1010 C   0  0  0  0  0  0  0  0  0  0  0  0
   -7.2653   14.6816   -2.4180 C   0  0  0  0  0  0  0  0  0  0  0  0
   -8.5809   15.1335   -3.0716 C   0  0  0  0  0  0  0  0  0  0  0  0
   -7.6129   13.2008   -2.1265 C   0  0  0  0  0  0  0  0  0  0  0  0
   -5.6514    9.5247    5.0673 C   0  0  0  0  0  0  0  0  0  0  0  0
   -5.7438    8.0060    5.9578 S   0  0  0  0  0  0  0  0  0  0  0  0
   -4.0347    7.9483    6.0706 C   0  0  0  0  0  0  0  0  0  0  0  0
   -3.1695    6.9318    6.5285 C   0  0  0  0  0  0  0  0  0  0  0  0
   -1.8048    7.1641    6.3847 C   0  0  0  0  0  0  0  0  0  0  0  0
   -1.5427    8.8972    5.6655 Si  0  0  0  0  0  4  0  0  0  0  0  0
   -0.8148   10.1006    6.9562 C   0  0  0  0  0  0  0  0  0  0  0  0
   -1.5281   10.0263    8.3035 C   0  0  0  0  0  0  0  0  0  0  0  0
   -0.6470    8.9013    3.9859 C   0  0  0  0  0  0  0  0  0  0  0  0
   -0.8468   10.2091    3.2262 C   0  0  0  0  0  0  0  0  0  0  0  0
   -3.4189    9.0776    5.5194 C   0  0  0  0  0  0  0  0  0  0  0  0
   -4.3332    9.9545    4.9644 C   0  0  0  0  0  0  0  0  0  0  0  0
   -1.0522    6.0525    6.7490 C   0  0  0  0  0  0  0  0  0  0  0  0
   -1.8148    4.9791    7.1730 C   0  0  0  0  0  0  0  0  0  0  0  0
   -3.5205    5.3568    7.1438 S   0  0  0  0  0  0  0  0  0  0  0  0
   -1.3440    3.6581    7.4187 C   0  0  0  0  0  0  0  0  0  0  0  0
   -1.9796    2.5824    8.0144 C   0  0  0  0  0  0  0  0  0  0  0  0
   -3.2246    2.6860    8.7755 C   0  0  0  0  0  0  0  0  0  0  0  0
   -4.2503    1.7657    8.5833 C   0  0  0  0  0  0  0  0  0  0  0  0
   -5.4276    1.8914    9.2961 C   0  0  0  0  0  0  0  0  0  0  0  0
   -5.5933    2.9283   10.1974 C   0  0  0  0  0  0  0  0  0  0  0  0
   -4.5724    3.8451   10.4156 C   0  0  0  0  0  0  0  0  0  0  0  0
   -4.7563    5.0040   11.3523 C   0  0  0  0  0  0  0  0  0  0  0  0
   -5.1734    6.2521   10.5712 C   0  0  0  0  0  0  0  0  0  0  0  0
   -3.3902    3.7080    9.7057 C   0  0  0  0  0  0  0  0  0  0  0  0
   -1.2696    1.3836    7.7971 C   0  0  0  0  0  0  0  0  0  0  0  0
   -1.5950   -0.2888    8.1939 S   0  0  0  0  0  0  0  0  0  0  0  0
   -0.1846   -0.7595    7.3028 C   0  0  0  0  0  0  0  0  0  0  0  0
    0.4546   -1.9296    6.8464 C   0  0  0  0  0  0  0  0  0  0  0  0
    0.2409   -3.3061    7.0827 C   0  0  0  0  0  0  0  0  0  0  0  0
    1.0659   -4.2728    6.4033 C   0  0  0  0  0  0  0  0  0  0  0  0
    0.7629   -5.5164    6.7397 N   0  0  0  0  0  0  0  0  0  0  0  0
   -0.4472   -5.4811    7.8161 S   0  0  0  0  0  0  0  0  0  0  0  0
   -0.6394   -3.8751    7.8899 N   0  0  0  0  0  0  0  0  0  0  0  0
    1.9755   -3.8309    5.4153 C   0  0  0  0  0  0  0  0  0  0  0  0
    2.6455   -4.5103    4.3813 C   0  0  0  0  0  0  0  0  0  0  0  0
    2.8153   -6.1201    3.7636 S   0  0  0  0  0  0  0  0  0  0  0  0
    3.4968   -5.4751    2.2884 C   0  0  0  0  0  0  0  0  0  0  0  0
    3.8248   -6.0480    1.0370 C   0  0  0  0  0  0  0  0  0  0  0  0
    3.8466   -7.4745    0.7255 C   0  0  0  0  0  0  0  0  0  0  0  0
    4.7486   -7.9772   -0.2120 C   0  0  0  0  0  0  0  0  0  0  0  0
    4.7606   -9.3253   -0.5103 C   0  0  0  0  0  0  0  0  0  0  0  0
    3.8783  -10.1889    0.1156 C   0  0  0  0  0  0  0  0  0  0  0  0
    2.9873   -9.7117    1.0672 C   0  0  0  0  0  0  0  0  0  0  0  0
    2.0636  -10.6423    1.7988 C   0  0  0  0  0  0  0  0  0  0  0  0
    2.6706  -11.0469    3.1434 C   0  0  0  0  0  0  0  0  0  0  0  0
    2.9893   -8.3591    1.3716 C   0  0  0  0  0  0  0  0  0  0  0  0
    4.1578   -5.0684    0.1211 C   0  0  0  0  0  0  0  0  0  0  0  0
    4.2079   -3.4604    0.8249 S   0  0  0  0  0  0  0  0  0  0  0  0
    3.6353   -4.0888    2.3256 C   0  0  0  0  0  0  0  0  0  0  0  0
    3.1615   -3.5378    3.5224 C   0  0  0  0  0  0  0  0  0  0  0  0
    2.8894   -2.2876    4.0082 N   0  0  0  0  0  0  0  0  0  0  0  0
    2.1584   -2.4440    5.1693 C   0  0  0  0  0  0  0  0  0  0  0  0
    1.5047   -1.5001    5.9942 C   0  0  0  0  0  0  0  0  0  0  0  0
    1.5654   -0.1171    6.0023 N   0  0  0  0  0  0  0  0  0  0  0  0
    0.5184    0.3252    6.7721 C   0  0  0  0  0  0  0  0  0  0  0  0
   -0.0947    1.5472    7.0619 C   0  0  0  0  0  0  0  0  0  0  0  0
    0.1735    3.2011    6.6473 S   0  0  0  0  0  0  0  0  0  0  0  0
    2.7529    0.6947    5.8414 C   0  0  0  0  0  0  0  0  0  0  0  0
    3.2995    1.1534    7.1930 C   0  0  0  0  0  0  0  0  0  0  0  0
    3.0233   -1.1305    3.1527 C   0  0  0  0  0  0  0  0  0  0  0  0
    4.4780   -0.6888    3.0038 C   0  0  0  0  0  0  0  0  0  0  0  0
    4.1834   -5.1728   -1.3074 C   0  0  0  0  0  0  0  0  0  0  0  0
    3.1872   -5.7301   -2.0960 C   0  0  0  0  0  0  0  0  0  0  0  0
    2.0225   -6.3162   -1.6296 N   0  0  0  0  0  0  0  0  0  0  0  0
    1.4840   -7.3884   -2.3601 C   0  0  0  0  0  0  0  0  0  0  0  0
    2.3260   -8.3589   -2.8960 C   0  0  0  0  0  0  0  0  0  0  0  0
    1.8052   -9.3868   -3.6543 C   0  0  0  0  0  0  0  0  0  0  0  0
    0.4400   -9.4811   -3.8937 C   0  0  0  0  0  0  0  0  0  0  0  0
   -0.1074  -10.5758   -4.7569 C   0  0  0  0  0  0  0  0  0  0  0  0
   -0.3943   -8.5192   -3.3392 C   0  0  0  0  0  0  0  0  0  0  0  0
    0.1142   -7.4816   -2.5840 C   0  0  0  0  0  0  0  0  0  0  0  0
    1.3308   -5.7799   -0.5379 C   0  0  0  0  0  0  0  0  0  0  0  0
    1.3189   -4.4081   -0.2964 C   0  0  0  0  0  0  0  0  0  0  0  0
    0.6993   -3.9029    0.8309 C   0  0  0  0  0  0  0  0  0  0  0  0
    0.0601   -4.7382    1.7364 C   0  0  0  0  0  0  0  0  0  0  0  0
   -0.5957   -4.2005    2.9715 C   0  0  0  0  0  0  0  0  0  0  0  0
    0.0244   -6.1003    1.4566 C   0  0  0  0  0  0  0  0  0  0  0  0
    0.6443   -6.6185    0.3388 C   0  0  0  0  0  0  0  0  0  0  0  0
    3.4686   -5.5501   -3.4718 C   0  0  0  0  0  0  0  0  0  0  0  0
    2.6456   -6.0202   -4.9132 S   0  0  0  0  0  0  0  0  0  0  0  0
    3.8302   -5.1358   -5.8811 C   0  0  0  0  0  0  0  0  0  0  0  0
    4.8803   -4.6066   -5.0851 C   0  0  0  0  0  0  0  0  0  0  0  0
    5.9857   -3.9539   -5.5596 N   0  0  0  0  0  0  0  0  0  0  0  0
    6.5635   -2.9427   -4.7667 C   0  0  0  0  0  0  0  0  0  0  0  0
    5.7536   -1.9826   -4.1661 C   0  0  0  0  0  0  0  0  0  0  0  0
    6.3158   -0.9960   -3.3823 C   0  0  0  0  0  0  0  0  0  0  0  0
    7.6904   -0.9343   -3.1844 C   0  0  0  0  0  0  0  0  0  0  0  0
    8.2863    0.1274   -2.3126 C   0  0  0  0  0  0  0  0  0  0  0  0
    8.4908   -1.8897   -3.7989 C   0  0  0  0  0  0  0  0  0  0  0  0
    7.9406   -2.8861   -4.5806 C   0  0  0  0  0  0  0  0  0  0  0  0
    6.6197   -4.3144   -6.7628 C   0  0  0  0  0  0  0  0  0  0  0  0
    6.6779   -5.6463   -7.1652 C   0  0  0  0  0  0  0  0  0  0  0  0
    7.2908   -5.9818   -8.3558 C   0  0  0  0  0  0  0  0  0  0  0  0
    7.8737   -5.0113   -9.1622 C   0  0  0  0  0  0  0  0  0  0  0  0
    8.5180   -5.3672  -10.4664 C   0  0  0  0  0  0  0  0  0  0  0  0
    7.8375   -3.6890   -8.7352 C   0  0  0  0  0  0  0  0  0  0  0  0
    7.2169   -3.3360   -7.5540 C   0  0  0  0  0  0  0  0  0  0  0  0
    4.6285   -4.8270   -3.7204 C   0  0  0  0  0  0  0  0  0  0  0  0
    5.4289   -4.3685   -2.2498 S   0  0  0  0  0  0  0  0  0  0  0  0
    3.6764   -4.8320   -7.2311 C   0  0  0  0  0  0  0  0  0  0  0  0
    2.7034   -5.2240   -8.1246 C   0  0  0  0  0  0  0  0  0  0  0  0
    1.6796   -6.2436   -7.8950 C   0  0  0  0  0  0  0  0  0  0  0  0
    1.4722   -6.8820   -6.8757 O   0  0  0  0  0  0  0  0  0  0  0  0
    0.9448   -6.3849   -9.1656 C   0  0  0  0  0  0  0  0  0  0  0  0
   -0.1349   -7.2263   -9.4206 C   0  0  0  0  0  0  0  0  0  0  0  0
   -0.6349   -7.1217  -10.6966 C   0  0  0  0  0  0  0  0  0  0  0  0
   -0.0952   -6.2498  -11.6499 C   0  0  0  0  0  0  0  0  0  0  0  0
    0.9743   -5.4184  -11.4119 C   0  0  0  0  0  0  0  0  0  0  0  0
    1.4943   -5.5042  -10.1176 C   0  0  0  0  0  0  0  0  0  0  0  0
    2.5848   -4.7598   -9.4848 C   0  0  0  0  0  0  0  0  0  0  0  0
    3.3198   -3.7673  -10.0900 C   0  0  0  0  0  0  0  0  0  0  0  0
    3.2008   -3.3979  -11.4440 C   0  0  0  0  0  0  0  0  0  0  0  0
    3.1755   -3.0517  -12.5395 N   0  0  0  0  0  0  0  0  0  0  0  0
    4.2711   -2.9465   -9.4556 C   0  0  0  0  0  0  0  0  0  0  0  0
    5.0329   -2.2042   -9.0173 N   0  0  0  0  0  0  0  0  0  0  0  0
   -1.1016   -6.6477  -12.7015 C   0  0  0  0  0  0  0  0  0  0  0  0
   -2.2583   -5.6575  -12.9539 C   0  0  0  0  0  0  0  0  0  0  0  0
   -3.3104   -6.4967  -13.6421 C   0  0  0  0  0  0  0  0  0  0  0  0
   -3.8225   -7.3224  -12.7384 C   0  0  0  0  0  0  0  0  0  0  0  0
   -3.1249   -7.0550  -11.4244 C   0  0  0  0  0  0  0  0  0  0  0  0
   -2.8825   -5.5460  -11.5569 C   0  0  0  0  0  0  0  0  0  0  0  0
   -1.7044   -7.6199  -11.6373 C   0  0  0  0  0  0  0  0  0  0  0  0
   -7.7449    9.6773    5.0536 H   0  0  0  0  0  0  0  0  0  0  0  0
   -5.3274   12.1486   -0.1205 H   0  0  0  0  0  0  0  0  0  0  0  0
  -10.2304   12.4269    1.1204 H   0  0  0  0  0  0  0  0  0  0  0  0
   -9.8249   12.6580   -2.2819 H   0  0  0  0  0  0  0  0  0  0  0  0
  -10.4943   15.0228   -1.8834 H   0  0  0  0  0  0  0  0  0  0  0  0
   -9.0701   15.8672    0.1399 H   0  0  0  0  0  0  0  0  0  0  0  0
   -6.5050   15.7466   -0.5405 H   0  0  0  0  0  0  0  0  0  0  0  0
   -6.3490   14.8273   -2.9844 H   0  0  0  0  0  0  0  0  0  0  0  0
   -8.5923   16.1973   -3.3044 H   0  0  0  0  0  0  0  0  0  0  0  0
   -8.8436   14.5598   -3.9595 H   0  0  0  0  0  0  0  0  0  0  0  0
   -7.3347   12.5408   -2.9462 H   0  0  0  0  0  0  0  0  0  0  0  0
   -0.8782   11.1198    6.5745 H   0  0  0  0  0  0  0  0  0  0  0  0
    0.2452    9.8878    7.0983 H   0  0  0  0  0  0  0  0  0  0  0  0
   -1.0882   10.7258    9.0114 H   0  0  0  0  0  0  0  0  0  0  0  0
   -2.5821   10.2695    8.1927 H   0  0  0  0  0  0  0  0  0  0  0  0
   -1.4546    9.0248    8.7206 H   0  0  0  0  0  0  0  0  0  0  0  0
    0.4193    8.7338    4.1405 H   0  0  0  0  0  0  0  0  0  0  0  0
   -1.0083    8.0748    3.3732 H   0  0  0  0  0  0  0  0  0  0  0  0
   -1.9001   10.3758    3.0180 H   0  0  0  0  0  0  0  0  0  0  0  0
   -0.3124   10.1852    2.2784 H   0  0  0  0  0  0  0  0  0  0  0  0
   -0.4731   11.0507    3.8043 H   0  0  0  0  0  0  0  0  0  0  0  0
   -4.0688   10.8826    4.4958 H   0  0  0  0  0  0  0  0  0  0  0  0
    0.0217    6.0061    6.6989 H   0  0  0  0  0  0  0  0  0  0  0  0
   -4.1291    0.9680    7.8664 H   0  0  0  0  0  0  0  0  0  0  0  0
   -6.2244    1.1789    9.1421 H   0  0  0  0  0  0  0  0  0  0  0  0
   -6.5216    3.0253   10.7415 H   0  0  0  0  0  0  0  0  0  0  0  0
   -5.5228    4.7674   12.0922 H   0  0  0  0  0  0  0  0  0  0  0  0
   -3.8216    5.2058   11.8801 H   0  0  0  0  0  0  0  0  0  0  0  0
   -6.1098    6.0753   10.0470 H   0  0  0  0  0  0  0  0  0  0  0  0
   -5.3048    7.0964   11.2437 H   0  0  0  0  0  0  0  0  0  0  0  0
   -4.4160    6.5094    9.8339 H   0  0  0  0  0  0  0  0  0  0  0  0
   -2.5794    4.4021    9.8801 H   0  0  0  0  0  0  0  0  0  0  0  0
    5.4502   -7.3114   -0.6926 H   0  0  0  0  0  0  0  0  0  0  0  0
    5.4647   -9.7074   -1.2356 H   0  0  0  0  0  0  0  0  0  0  0  0
    3.8868  -11.2407   -0.1311 H   0  0  0  0  0  0  0  0  0  0  0  0
    1.8842  -11.5355    1.1971 H   0  0  0  0  0  0  0  0  0  0  0  0
    1.1053  -10.1487    1.9735 H   0  0  0  0  0  0  0  0  0  0  0  0
    3.6254  -11.5458    2.9920 H   0  0  0  0  0  0  0  0  0  0  0  0
    2.8372  -10.1678    3.7615 H   0  0  0  0  0  0  0  0  0  0  0  0
    2.0048  -11.7242    3.6731 H   0  0  0  0  0  0  0  0  0  0  0  0
    2.2972   -7.9852    2.1101 H   0  0  0  0  0  0  0  0  0  0  0  0
    2.5093    1.5683    5.2271 H   0  0  0  0  0  0  0  0  0  0  0  0
    3.5141    0.0977    5.3466 H   0  0  0  0  0  0  0  0  0  0  0  0
    2.5921    1.8044    7.6989 H   0  0  0  0  0  0  0  0  0  0  0  0
    4.2259    1.7013    7.0434 H   0  0  0  0  0  0  0  0  0  0  0  0
    3.4995    0.2936    7.8290 H   0  0  0  0  0  0  0  0  0  0  0  0
    2.3959   -0.3270    3.5377 H   0  0  0  0  0  0  0  0  0  0  0  0
    2.6461   -1.4067    2.1610 H   0  0  0  0  0  0  0  0  0  0  0  0
    5.0538   -1.4663    2.5089 H   0  0  0  0  0  0  0  0  0  0  0  0
    4.5262    0.2124    2.3994 H   0  0  0  0  0  0  0  0  0  0  0  0
    4.9395   -0.4884    3.9681 H   0  0  0  0  0  0  0  0  0  0  0  0
    3.3883   -8.3005   -2.7114 H   0  0  0  0  0  0  0  0  0  0  0  0
    2.4711  -10.1288   -4.0704 H   0  0  0  0  0  0  0  0  0  0  0  0
    0.4099  -11.5146   -4.5691 H   0  0  0  0  0  0  0  0  0  0  0  0
    0.0364  -10.3179   -5.8065 H   0  0  0  0  0  0  0  0  0  0  0  0
   -1.1714  -10.7168   -4.5828 H   0  0  0  0  0  0  0  0  0  0  0  0
   -1.4595   -8.5718   -3.5139 H   0  0  0  0  0  0  0  0  0  0  0  0
   -0.5456   -6.7302   -2.1754 H   0  0  0  0  0  0  0  0  0  0  0  0
    1.8000   -3.7382   -0.9945 H   0  0  0  0  0  0  0  0  0  0  0  0
    0.7108   -2.8357    1.0060 H   0  0  0  0  0  0  0  0  0  0  0  0
   -1.6797   -4.1995    2.8540 H   0  0  0  0  0  0  0  0  0  0  0  0
   -0.3555   -4.8220    3.8323 H   0  0  0  0  0  0  0  0  0  0  0  0
   -0.2741   -3.1815    3.1764 H   0  0  0  0  0  0  0  0  0  0  0  0
   -0.4843   -6.7656    2.1392 H   0  0  0  0  0  0  0  0  0  0  0  0
    0.6201   -7.6793    0.1403 H   0  0  0  0  0  0  0  0  0  0  0  0
    4.6856   -2.0120   -4.3264 H   0  0  0  0  0  0  0  0  0  0  0  0
    5.6776   -0.2564   -2.9212 H   0  0  0  0  0  0  0  0  0  0  0  0
    9.3403    0.2700   -2.5372 H   0  0  0  0  0  0  0  0  0  0  0  0
    8.1974   -0.1606   -1.2646 H   0  0  0  0  0  0  0  0  0  0  0  0
    7.7655    1.0734   -2.4446 H   0  0  0  0  0  0  0  0  0  0  0  0
    9.5615   -1.8583   -3.6589 H   0  0  0  0  0  0  0  0  0  0  0  0
    8.5723   -3.6271   -5.0477 H   0  0  0  0  0  0  0  0  0  0  0  0
    6.2345   -6.4132   -6.5471 H   0  0  0  0  0  0  0  0  0  0  0  0
    7.3216   -7.0185   -8.6591 H   0  0  0  0  0  0  0  0  0  0  0  0
    8.5856   -6.4453  -10.5885 H   0  0  0  0  0  0  0  0  0  0  0  0
    7.9350   -4.9618  -11.2934 H   0  0  0  0  0  0  0  0  0  0  0  0
    9.5186   -4.9427  -10.5280 H   0  0  0  0  0  0  0  0  0  0  0  0
    8.2845   -2.9197   -9.3465 H   0  0  0  0  0  0  0  0  0  0  0  0
    7.1779   -2.3028   -7.2476 H   0  0  0  0  0  0  0  0  0  0  0  0
    4.4288   -4.1581   -7.6202 H   0  0  0  0  0  0  0  0  0  0  0  0
   -0.5194   -7.8810   -8.6541 H   0  0  0  0  0  0  0  0  0  0  0  0
    1.3774   -4.7545  -12.1581 H   0  0  0  0  0  0  0  0  0  0  0  0
   -0.6926   -7.0675  -13.6186 H   0  0  0  0  0  0  0  0  0  0  0  0
   -1.9673   -4.7346  -13.4481 H   0  0  0  0  0  0  0  0  0  0  0  0
   -3.5274   -6.4439  -14.6929 H   0  0  0  0  0  0  0  0  0  0  0  0
   -4.5526   -8.0972  -12.8836 H   0  0  0  0  0  0  0  0  0  0  0  0
   -3.6245   -7.4050  -10.5249 H   0  0  0  0  0  0  0  0  0  0  0  0
   -3.8121   -4.9789  -11.5654 H   0  0  0  0  0  0  0  0  0  0  0  0
   -2.2130   -5.1362  -10.8030 H   0  0  0  0  0  0  0  0  0  0  0  0
   -1.6977   -8.6884  -11.8453 H   0  0  0  0  0  0  0  0  0  0  0  0
  1  2  2  0  0  0  0
  2  3  1  0  0  0  0
  3  4  2  0  0  0  0
  3  5  1  0  0  0  0
  5  6  2  0  0  0  0
  6  7  1  0  0  0  0
  7  8  2  0  0  0  0
  8  9  1  0  0  0  0
  9 10  2  0  0  0  0
 10 11  1  0  0  0  0
 11 12  2  0  0  0  0
 12 13  1  0  0  0  0
 13 14  3  0  0  0  0
 12 15  1  0  0  0  0
 15 16  3  0  0  0  0
  8 17  1  0  0  0  0
 17 18  1  0  0  0  0
 18 19  1  0  0  0  0
 19 20  2  0  0  0  0
 20 21  1  0  0  0  0
 21 22  1  0  0  0  0
 21 23  1  0  0  0  0
  1 24  1  0  0  0  0
 24 25  1  0  0  0  0
 25 26  1  0  0  0  0
 26 27  1  0  0  0  0
 27 28  2  0  0  0  0
 28 29  1  0  0  0  0
 29 30  1  0  0  0  0
 30 31  1  0  0  0  0
 29 32  1  0  0  0  0
 32 33  1  0  0  0  0
 29 34  1  0  0  0  0
 34 35  1  0  0  0  0
 28 36  1  0  0  0  0
 36 37  2  0  0  0  0
 37 38  1  0  0  0  0
 37 39  1  0  0  0  0
 39 40  2  0  0  0  0
 40 41  1  0  0  0  0
 41 42  2  0  0  0  0
 42 43  1  0  0  0  0
 43 44  2  0  0  0  0
 44 45  1  0  0  0  0
 45 46  1  0  0  0  0
 46 47  1  0  0  0  0
 45 48  2  0  0  0  0
 40 49  1  0  0  0  0
 49 50  1  0  0  0  0
 50 51  1  0  0  0  0
 51 52  1  0  0  0  0
 52 53  1  0  0  0  0
 53 54  1  0  0  0  0
 54 55  2  0  0  0  0
 55 56  1  0  0  0  0
 56 57  1  0  0  0  0
 54 58  1  0  0  0  0
 58 59  1  0  0  0  0
 59 60  1  0  0  0  0
 60 61  1  0  0  0  0
 61 62  1  0  0  0  0
 62 63  1  0  0  0  0
 63 64  2  0  0  0  0
 64 65  1  0  0  0  0
 65 66  2  0  0  0  0
 66 67  1  0  0  0  0
 67 68  1  0  0  0  0
 68 69  1  0  0  0  0
 67 70  2  0  0  0  0
 62 71  2  0  0  0  0
 71 72  1  0  0  0  0
 72 73  1  0  0  0  0
 73 74  1  0  0  0  0
 74 75  1  0  0  0  0
 75 76  1  0  0  0  0
 76 77  1  0  0  0  0
 77 78  1  0  0  0  0
 78 79  1  0  0  0  0
 79 80  1  0  0  0  0
 80 81  1  0  0  0  0
 78 82  1  0  0  0  0
 82 83  1  0  0  0  0
 75 84  1  0  0  0  0
 84 85  1  0  0  0  0
 71 86  1  0  0  0  0
 86 87  2  0  0  0  0
 87 88  1  0  0  0  0
 88 89  1  0  0  0  0
 89 90  2  0  0  0  0
 90 91  1  0  0  0  0
 91 92  2  0  0  0  0
 92 93  1  0  0  0  0
 92 94  1  0  0  0  0
 94 95  2  0  0  0  0
 88 96  1  0  0  0  0
 96 97  2  0  0  0  0
 97 98  1  0  0  0  0
 98 99  2  0  0  0  0
 99100  1  0  0  0  0
 99101  1  0  0  0  0
101102  2  0  0  0  0
 87103  1  0  0  0  0
103104  1  0  0  0  0
104105  1  0  0  0  0
105106  2  0  0  0  0
106107  1  0  0  0  0
107108  1  0  0  0  0
108109  2  0  0  0  0
109110  1  0  0  0  0
110111  2  0  0  0  0
111112  1  0  0  0  0
111113  1  0  0  0  0
113114  2  0  0  0  0
107115  1  0  0  0  0
115116  2  0  0  0  0
116117  1  0  0  0  0
117118  2  0  0  0  0
118119  1  0  0  0  0
118120  1  0  0  0  0
120121  2  0  0  0  0
106122  1  0  0  0  0
122123  1  0  0  0  0
105124  1  0  0  0  0
124125  2  0  0  0  0
125126  1  0  0  0  0
126127  2  0  0  0  0
126128  1  0  0  0  0
128129  2  0  0  0  0
129130  1  0  0  0  0
130131  2  0  0  0  0
131132  1  0  0  0  0
132133  2  0  0  0  0
133134  1  0  0  0  0
134135  2  0  0  0  0
135136  1  0  0  0  0
136137  3  0  0  0  0
135138  1  0  0  0  0
138139  3  0  0  0  0
131140  1  0  0  0  0
140141  1  0  0  0  0
141142  1  0  0  0  0
142143  2  0  0  0  0
143144  1  0  0  0  0
144145  1  0  0  0  0
144146  1  0  0  0  0
 11  2  1  0  0  0  0
 23 17  1  0  0  0  0
 35 24  2  0  0  0  0
 81 39  1  0  0  0  0
123 86  1  0  0  0  0
134125  1  0  0  0  0
146140  1  0  0  0  0
 10  5  1  0  0  0  0
 22 18  1  0  0  0  0
 34 26  2  0  0  0  0
 48 41  1  0  0  0  0
 80 49  2  0  0  0  0
 95 89  1  0  0  0  0
102 96  1  0  0  0  0
122103  2  0  0  0  0
133128  1  0  0  0  0
145141  1  0  0  0  0
 23  7  1  0  0  0  0
 38 27  1  0  0  0  0
 79 51  2  0  0  0  0
114108  1  0  0  0  0
121115  1  0  0  0  0
146130  1  0  0  0  0
 77 52  2  0  0  0  0
 57 53  2  0  0  0  0
 76 58  2  0  0  0  0
 74 59  2  0  0  0  0
 73 61  2  0  0  0  0
 70 63  1  0  0  0  0
  1147  1  0  0  0  0
  6148  1  0  0  0  0
  9149  1  0  0  0  0
 17150  1  0  0  0  0
 18151  1  0  0  0  0
 19152  1  0  0  0  0
 20153  1  0  0  0  0
 21154  1  0  0  0  0
 22155  1  0  0  0  0
 22156  1  0  0  0  0
 23157  1  0  0  0  0
 30158  1  0  0  0  0
 30159  1  0  0  0  0
 31160  1  0  0  0  0
 31161  1  0  0  0  0
 31162  1  0  0  0  0
 32163  1  0  0  0  0
 32164  1  0  0  0  0
 33165  1  0  0  0  0
 33166  1  0  0  0  0
 33167  1  0  0  0  0
 35168  1  0  0  0  0
 36169  1  0  0  0  0
 42170  1  0  0  0  0
 43171  1  0  0  0  0
 44172  1  0  0  0  0
 46173  1  0  0  0  0
 46174  1  0  0  0  0
 47175  1  0  0  0  0
 47176  1  0  0  0  0
 47177  1  0  0  0  0
 48178  1  0  0  0  0
 64179  1  0  0  0  0
 65180  1  0  0  0  0
 66181  1  0  0  0  0
 68182  1  0  0  0  0
 68183  1  0  0  0  0
 69184  1  0  0  0  0
 69185  1  0  0  0  0
 69186  1  0  0  0  0
 70187  1  0  0  0  0
 82188  1  0  0  0  0
 82189  1  0  0  0  0
 83190  1  0  0  0  0
 83191  1  0  0  0  0
 83192  1  0  0  0  0
 84193  1  0  0  0  0
 84194  1  0  0  0  0
 85195  1  0  0  0  0
 85196  1  0  0  0  0
 85197  1  0  0  0  0
 90198  1  0  0  0  0
 91199  1  0  0  0  0
 93200  1  0  0  0  0
 93201  1  0  0  0  0
 93202  1  0  0  0  0
 94203  1  0  0  0  0
 95204  1  0  0  0  0
 97205  1  0  0  0  0
 98206  1  0  0  0  0
100207  1  0  0  0  0
100208  1  0  0  0  0
100209  1  0  0  0  0
101210  1  0  0  0  0
102211  1  0  0  0  0
109212  1  0  0  0  0
110213  1  0  0  0  0
112214  1  0  0  0  0
112215  1  0  0  0  0
112216  1  0  0  0  0
113217  1  0  0  0  0
114218  1  0  0  0  0
116219  1  0  0  0  0
117220  1  0  0  0  0
119221  1  0  0  0  0
119222  1  0  0  0  0
119223  1  0  0  0  0
120224  1  0  0  0  0
121225  1  0  0  0  0
124226  1  0  0  0  0
129227  1  0  0  0  0
132228  1  0  0  0  0
140229  1  0  0  0  0
141230  1  0  0  0  0
142231  1  0  0  0  0
143232  1  0  0  0  0
144233  1  0  0  0  0
145234  1  0  0  0  0
145235  1  0  0  0  0
146236  1  0  0  0  0
M  END
