
  xtb     02152214423D
 energy: -298.045515293526 gnorm: 0.000501954137 xtb: 6.4.1 (unknown)
176199  0     0  0            999 V2000
   -1.3494   -7.8654    3.9095 C   0  0  0  0  0  0  0  0  0  0  0  0
   -2.2810   -7.1927    3.1946 C   0  0  0  0  0  0  0  0  0  0  0  0
   -2.0580   -5.8516    2.5755 C   0  0  0  0  0  0  0  0  0  0  0  0
   -1.0120   -5.2588    2.4341 O   0  0  0  0  0  0  0  0  0  0  0  0
   -3.4013   -5.3415    2.2504 C   0  0  0  0  0  0  0  0  0  0  0  0
   -3.7047   -4.0808    1.7376 C   0  0  0  0  0  0  0  0  0  0  0  0
   -5.0468   -3.8626    1.5449 C   0  0  0  0  0  0  0  0  0  0  0  0
   -6.0208   -4.8325    1.8254 C   0  0  0  0  0  0  0  0  0  0  0  0
   -5.7365   -6.0772    2.3338 C   0  0  0  0  0  0  0  0  0  0  0  0
   -4.3743   -6.3155    2.5549 C   0  0  0  0  0  0  0  0  0  0  0  0
   -3.7051   -7.4887    3.1036 C   0  0  0  0  0  0  0  0  0  0  0  0
   -4.2949   -8.6817    3.4205 C   0  0  0  0  0  0  0  0  0  0  0  0
   -5.6750   -8.9504    3.2983 C   0  0  0  0  0  0  0  0  0  0  0  0
   -6.7862   -9.2305    3.2342 N   0  0  0  0  0  0  0  0  0  0  0  0
   -3.6025   -9.8181    3.8922 C   0  0  0  0  0  0  0  0  0  0  0  0
   -3.1081  -10.7828    4.2702 N   0  0  0  0  0  0  0  0  0  0  0  0
   -7.1538   -3.9294    1.4019 C   0  0  0  0  0  0  0  0  0  0  0  0
   -7.9782   -3.2897    2.5380 C   0  0  0  0  0  0  0  0  0  0  0  0
   -8.6595   -2.1100    1.8821 C   0  0  0  0  0  0  0  0  0  0  0  0
   -7.7336   -1.1882    1.6493 C   0  0  0  0  0  0  0  0  0  0  0  0
   -6.4084   -1.7363    2.1283 C   0  0  0  0  0  0  0  0  0  0  0  0
   -6.8888   -2.5564    3.3327 C   0  0  0  0  0  0  0  0  0  0  0  0
   -6.0691   -2.8447    1.1059 C   0  0  0  0  0  0  0  0  0  0  0  0
    0.0610   -7.5341    3.9149 C   0  0  0  0  0  0  0  0  0  0  0  0
    0.7404   -7.2800    2.7130 C   0  0  0  0  0  0  0  0  0  0  0  0
    2.0464   -6.8633    2.7728 C   0  0  0  0  0  0  0  0  0  0  0  0
    2.9476   -6.4686    1.6585 C   0  0  0  0  0  0  0  0  0  0  0  0
    2.7665   -6.5942    0.4718 O   0  0  0  0  0  0  0  0  0  0  0  0
    4.1200   -5.8640    2.3453 C   0  0  0  0  0  0  0  0  0  0  0  0
    3.9814   -6.0105    3.7401 C   0  0  0  0  0  0  0  0  0  0  0  0
    2.7016   -6.6545    4.0054 C   0  0  0  0  0  0  0  0  0  0  0  0
    2.0602   -6.9848    5.1854 C   0  0  0  0  0  0  0  0  0  0  0  0
    0.7519   -7.4434    5.1259 C   0  0  0  0  0  0  0  0  0  0  0  0
    4.9306   -5.4484    4.5748 C   0  0  0  0  0  0  0  0  0  0  0  0
    5.9379   -4.6670    4.0267 C   0  0  0  0  0  0  0  0  0  0  0  0
    6.0372   -4.4530    2.6467 C   0  0  0  0  0  0  0  0  0  0  0  0
    5.1372   -5.1259    1.7988 C   0  0  0  0  0  0  0  0  0  0  0  0
    6.8635   -3.4099    2.0794 C   0  0  0  0  0  0  0  0  0  0  0  0
    7.8548   -2.6163    2.6332 C   0  0  0  0  0  0  0  0  0  0  0  0
    8.6408   -2.9519    3.8211 C   0  0  0  0  0  0  0  0  0  0  0  0
    8.9629   -1.9802    4.7641 C   0  0  0  0  0  0  0  0  0  0  0  0
    9.7380   -2.3137    5.8592 C   0  0  0  0  0  0  0  0  0  0  0  0
   10.2028   -3.6068    6.0202 C   0  0  0  0  0  0  0  0  0  0  0  0
    9.8961   -4.5893    5.0855 C   0  0  0  0  0  0  0  0  0  0  0  0
   10.4410   -5.9815    5.2274 C   0  0  0  0  0  0  0  0  0  0  0  0
   11.7952   -6.0966    4.5251 C   0  0  0  0  0  0  0  0  0  0  0  0
    9.1189   -4.2499    3.9901 C   0  0  0  0  0  0  0  0  0  0  0  0
    8.0656   -1.4440    1.8680 C   0  0  0  0  0  0  0  0  0  0  0  0
    8.9826    0.0306    2.1288 S   0  0  0  0  0  0  0  0  0  0  0  0
    8.2239    0.7439    0.7367 C   0  0  0  0  0  0  0  0  0  0  0  0
    8.0040    2.0115    0.1604 C   0  0  0  0  0  0  0  0  0  0  0  0
    8.3277    3.3240    0.5790 C   0  0  0  0  0  0  0  0  0  0  0  0
    7.5762    4.4379    0.0501 C   0  0  0  0  0  0  0  0  0  0  0  0
    7.9063    5.5827    0.6243 N   0  0  0  0  0  0  0  0  0  0  0  0
    9.0649    5.2992    1.7192 S   0  0  0  0  0  0  0  0  0  0  0  0
    9.1841    3.6974    1.5150 N   0  0  0  0  0  0  0  0  0  0  0  0
    6.6276    4.2127   -0.9741 C   0  0  0  0  0  0  0  0  0  0  0  0
    5.6489    5.0133   -1.6025 C   0  0  0  0  0  0  0  0  0  0  0  0
    4.8893    6.5532   -1.3648 S   0  0  0  0  0  0  0  0  0  0  0  0
    3.6403    6.0888   -2.4982 C   0  0  0  0  0  0  0  0  0  0  0  0
    2.3563    6.6223   -2.7539 C   0  0  0  0  0  0  0  0  0  0  0  0
    1.9096    7.8528   -2.0905 C   0  0  0  0  0  0  0  0  0  0  0  0
    0.7607    7.8709   -1.3049 C   0  0  0  0  0  0  0  0  0  0  0  0
    0.3982    9.0301   -0.6463 C   0  0  0  0  0  0  0  0  0  0  0  0
    1.1745   10.1709   -0.7588 C   0  0  0  0  0  0  0  0  0  0  0  0
    2.3340   10.1640   -1.5231 C   0  0  0  0  0  0  0  0  0  0  0  0
    3.1664   11.4045   -1.6722 C   0  0  0  0  0  0  0  0  0  0  0  0
    2.7123   12.2098   -2.8913 C   0  0  0  0  0  0  0  0  0  0  0  0
    2.6924    8.9975   -2.1828 C   0  0  0  0  0  0  0  0  0  0  0  0
    1.6096    5.7808   -3.5534 C   0  0  0  0  0  0  0  0  0  0  0  0
    2.5256    4.3602   -4.0417 S   0  0  0  0  0  0  0  0  0  0  0  0
    3.8730    4.8445   -3.0834 C   0  0  0  0  0  0  0  0  0  0  0  0
    5.0189    4.2231   -2.5695 C   0  0  0  0  0  0  0  0  0  0  0  0
    5.5694    2.9580   -2.5831 N   0  0  0  0  0  0  0  0  0  0  0  0
    6.4985    2.9273   -1.5483 C   0  0  0  0  0  0  0  0  0  0  0  0
    7.0689    1.8148   -0.8922 C   0  0  0  0  0  0  0  0  0  0  0  0
    6.7217    0.4834   -0.9451 N   0  0  0  0  0  0  0  0  0  0  0  0
    7.3922   -0.1527    0.0598 C   0  0  0  0  0  0  0  0  0  0  0  0
    7.2874   -1.3833    0.7145 C   0  0  0  0  0  0  0  0  0  0  0  0
    6.2871   -2.7705    0.5443 S   0  0  0  0  0  0  0  0  0  0  0  0
    5.5910   -0.1452   -1.5867 C   0  0  0  0  0  0  0  0  0  0  0  0
    6.0172   -1.1668   -2.6376 C   0  0  0  0  0  0  0  0  0  0  0  0
    5.7710    2.2126   -3.8165 C   0  0  0  0  0  0  0  0  0  0  0  0
    4.4927    1.6706   -4.4444 C   0  0  0  0  0  0  0  0  0  0  0  0
    0.2062    5.7996   -3.9018 C   0  0  0  0  0  0  0  0  0  0  0  0
   -0.4251    4.5676   -4.1478 C   0  0  0  0  0  0  0  0  0  0  0  0
   -1.7857    4.5277   -4.3049 C   0  0  0  0  0  0  0  0  0  0  0  0
   -2.6553    3.3382   -4.4777 C   0  0  0  0  0  0  0  0  0  0  0  0
   -2.3233    2.1833   -4.6064 O   0  0  0  0  0  0  0  0  0  0  0  0
   -4.0329    3.8888   -4.4175 C   0  0  0  0  0  0  0  0  0  0  0  0
   -3.9789    5.2903   -4.2774 C   0  0  0  0  0  0  0  0  0  0  0  0
   -2.5751    5.6922   -4.2275 C   0  0  0  0  0  0  0  0  0  0  0  0
   -1.9508    6.9171   -4.0784 C   0  0  0  0  0  0  0  0  0  0  0  0
   -0.5701    6.9628   -3.9282 C   0  0  0  0  0  0  0  0  0  0  0  0
   -5.1563    6.0034   -4.1552 C   0  0  0  0  0  0  0  0  0  0  0  0
   -6.3610    5.3093   -4.1293 C   0  0  0  0  0  0  0  0  0  0  0  0
   -6.4139    3.9203   -4.2296 C   0  0  0  0  0  0  0  0  0  0  0  0
   -5.2243    3.2036   -4.4104 C   0  0  0  0  0  0  0  0  0  0  0  0
   -7.6929    3.2009   -4.1541 C   0  0  0  0  0  0  0  0  0  0  0  0
   -8.7557    3.6032   -4.9381 C   0  0  0  0  0  0  0  0  0  0  0  0
   -9.9565    2.8972   -4.9517 C   0  0  0  0  0  0  0  0  0  0  0  0
  -10.1083    1.7622   -4.1815 C   0  0  0  0  0  0  0  0  0  0  0  0
  -11.3716    1.0093   -4.2345 C   0  0  0  0  0  0  0  0  0  0  0  0
  -12.3075    1.3468   -4.9308 O   0  0  0  0  0  0  0  0  0  0  0  0
  -11.4487   -0.1260   -3.4431 N   0  0  0  0  0  0  0  0  0  0  0  0
  -12.6999   -0.8771   -3.4816 C   0  0  0  0  0  0  0  0  0  0  0  0
  -13.6820   -0.3597   -2.4384 C   0  0  0  0  0  0  0  0  0  0  0  0
  -10.4662   -0.5851   -2.5843 C   0  0  0  0  0  0  0  0  0  0  0  0
  -10.6440   -1.5758   -1.9036 O   0  0  0  0  0  0  0  0  0  0  0  0
   -9.2111    0.1850   -2.5480 C   0  0  0  0  0  0  0  0  0  0  0  0
   -8.1916   -0.2289   -1.7174 C   0  0  0  0  0  0  0  0  0  0  0  0
   -7.0162    0.5189   -1.6297 C   0  0  0  0  0  0  0  0  0  0  0  0
   -6.8465    1.6454   -2.3935 C   0  0  0  0  0  0  0  0  0  0  0  0
   -7.8388    2.0663   -3.3044 C   0  0  0  0  0  0  0  0  0  0  0  0
   -9.0554    1.3365   -3.3471 C   0  0  0  0  0  0  0  0  0  0  0  0
   -1.6577   -8.6685    4.5680 H   0  0  0  0  0  0  0  0  0  0  0  0
   -2.9221   -3.3695    1.5248 H   0  0  0  0  0  0  0  0  0  0  0  0
   -6.4956   -6.8091    2.5545 H   0  0  0  0  0  0  0  0  0  0  0  0
   -7.7679   -4.2898    0.5795 H   0  0  0  0  0  0  0  0  0  0  0  0
   -8.6159   -3.9812    3.0815 H   0  0  0  0  0  0  0  0  0  0  0  0
   -9.6986   -2.0891    1.6120 H   0  0  0  0  0  0  0  0  0  0  0  0
   -7.8507   -0.2359    1.1664 H   0  0  0  0  0  0  0  0  0  0  0  0
   -5.6124   -1.0159    2.2989 H   0  0  0  0  0  0  0  0  0  0  0  0
   -7.3050   -1.9266    4.1173 H   0  0  0  0  0  0  0  0  0  0  0  0
   -6.1303   -3.2117    3.7573 H   0  0  0  0  0  0  0  0  0  0  0  0
   -5.9664   -2.4721    0.0884 H   0  0  0  0  0  0  0  0  0  0  0  0
    0.2512   -7.4121    1.7610 H   0  0  0  0  0  0  0  0  0  0  0  0
    2.5523   -6.8688    6.1393 H   0  0  0  0  0  0  0  0  0  0  0  0
    0.2288   -7.6764    6.0427 H   0  0  0  0  0  0  0  0  0  0  0  0
    4.8645   -5.5583    5.6469 H   0  0  0  0  0  0  0  0  0  0  0  0
    6.6251   -4.1632    4.6883 H   0  0  0  0  0  0  0  0  0  0  0  0
    5.1995   -5.0152    0.7257 H   0  0  0  0  0  0  0  0  0  0  0  0
    8.5932   -0.9732    4.6473 H   0  0  0  0  0  0  0  0  0  0  0  0
    9.9812   -1.5583    6.5916 H   0  0  0  0  0  0  0  0  0  0  0  0
   10.8094   -3.8589    6.8782 H   0  0  0  0  0  0  0  0  0  0  0  0
   10.5616   -6.2260    6.2847 H   0  0  0  0  0  0  0  0  0  0  0  0
    9.7444   -6.6982    4.7873 H   0  0  0  0  0  0  0  0  0  0  0  0
   12.5067   -5.3970    4.9582 H   0  0  0  0  0  0  0  0  0  0  0  0
   12.1923   -7.1040    4.6262 H   0  0  0  0  0  0  0  0  0  0  0  0
   11.6926   -5.8677    3.4668 H   0  0  0  0  0  0  0  0  0  0  0  0
    8.8789   -5.0007    3.2503 H   0  0  0  0  0  0  0  0  0  0  0  0
    0.1652    6.9753   -1.2053 H   0  0  0  0  0  0  0  0  0  0  0  0
   -0.4922    9.0420   -0.0348 H   0  0  0  0  0  0  0  0  0  0  0  0
    0.8841   11.0723   -0.2386 H   0  0  0  0  0  0  0  0  0  0  0  0
    4.2165   11.1310   -1.7913 H   0  0  0  0  0  0  0  0  0  0  0  0
    3.0731   12.0223   -0.7771 H   0  0  0  0  0  0  0  0  0  0  0  0
    1.6693   12.5008   -2.7861 H   0  0  0  0  0  0  0  0  0  0  0  0
    3.3143   13.1089   -2.9990 H   0  0  0  0  0  0  0  0  0  0  0  0
    2.8118   11.6151   -3.7968 H   0  0  0  0  0  0  0  0  0  0  0  0
    3.5923    8.9764   -2.7810 H   0  0  0  0  0  0  0  0  0  0  0  0
    4.9578    0.6299   -2.0114 H   0  0  0  0  0  0  0  0  0  0  0  0
    5.0141   -0.6639   -0.8123 H   0  0  0  0  0  0  0  0  0  0  0  0
    6.5915   -1.9635   -2.1721 H   0  0  0  0  0  0  0  0  0  0  0  0
    6.6297   -0.7134   -3.4131 H   0  0  0  0  0  0  0  0  0  0  0  0
    5.1365   -1.6032   -3.0992 H   0  0  0  0  0  0  0  0  0  0  0  0
    6.2666    2.8718   -4.5417 H   0  0  0  0  0  0  0  0  0  0  0  0
    6.4633    1.4020   -3.5901 H   0  0  0  0  0  0  0  0  0  0  0  0
    3.9145    2.4702   -4.8959 H   0  0  0  0  0  0  0  0  0  0  0  0
    3.8633    1.1694   -3.7143 H   0  0  0  0  0  0  0  0  0  0  0  0
    4.7529    0.9584   -5.2229 H   0  0  0  0  0  0  0  0  0  0  0  0
    0.1402    3.6479   -4.1706 H   0  0  0  0  0  0  0  0  0  0  0  0
   -2.5204    7.8342   -4.0595 H   0  0  0  0  0  0  0  0  0  0  0  0
   -0.0863    7.9196   -3.8067 H   0  0  0  0  0  0  0  0  0  0  0  0
   -5.1492    7.0785   -4.0573 H   0  0  0  0  0  0  0  0  0  0  0  0
   -7.2824    5.8571   -3.9934 H   0  0  0  0  0  0  0  0  0  0  0  0
   -5.2355    2.1325   -4.5462 H   0  0  0  0  0  0  0  0  0  0  0  0
   -8.6414    4.4640   -5.5804 H   0  0  0  0  0  0  0  0  0  0  0  0
  -10.7769    3.2133   -5.5781 H   0  0  0  0  0  0  0  0  0  0  0  0
  -12.4573   -1.9235   -3.2887 H   0  0  0  0  0  0  0  0  0  0  0  0
  -13.1166   -0.7646   -4.4839 H   0  0  0  0  0  0  0  0  0  0  0  0
  -14.6024   -0.9347   -2.4852 H   0  0  0  0  0  0  0  0  0  0  0  0
  -13.2572   -0.4586   -1.4421 H   0  0  0  0  0  0  0  0  0  0  0  0
  -13.9124    0.6863   -2.6269 H   0  0  0  0  0  0  0  0  0  0  0  0
   -8.3340   -1.1207   -1.1254 H   0  0  0  0  0  0  0  0  0  0  0  0
   -6.2371    0.2100   -0.9487 H   0  0  0  0  0  0  0  0  0  0  0  0
   -5.9440    2.2282   -2.2894 H   0  0  0  0  0  0  0  0  0  0  0  0
  1  2  2  0  0  0  0
  2  3  1  0  0  0  0
  3  4  2  0  0  0  0
  3  5  1  0  0  0  0
  5  6  2  0  0  0  0
  6  7  1  0  0  0  0
  7  8  2  0  0  0  0
  8  9  1  0  0  0  0
  9 10  2  0  0  0  0
 10 11  1  0  0  0  0
 11 12  2  0  0  0  0
 12 13  1  0  0  0  0
 13 14  3  0  0  0  0
 12 15  1  0  0  0  0
 15 16  3  0  0  0  0
  8 17  1  0  0  0  0
 17 18  1  0  0  0  0
 18 19  1  0  0  0  0
 19 20  2  0  0  0  0
 20 21  1  0  0  0  0
 21 22  1  0  0  0  0
 21 23  1  0  0  0  0
  1 24  1  0  0  0  0
 24 25  2  0  0  0  0
 25 26  1  0  0  0  0
 26 27  1  0  0  0  0
 27 28  2  0  0  0  0
 27 29  1  0  0  0  0
 29 30  2  0  0  0  0
 30 31  1  0  0  0  0
 31 32  1  0  0  0  0
 32 33  2  0  0  0  0
 30 34  1  0  0  0  0
 34 35  2  0  0  0  0
 35 36  1  0  0  0  0
 36 37  2  0  0  0  0
 36 38  1  0  0  0  0
 38 39  2  0  0  0  0
 39 40  1  0  0  0  0
 40 41  2  0  0  0  0
 41 42  1  0  0  0  0
 42 43  2  0  0  0  0
 43 44  1  0  0  0  0
 44 45  1  0  0  0  0
 45 46  1  0  0  0  0
 44 47  2  0  0  0  0
 39 48  1  0  0  0  0
 48 49  1  0  0  0  0
 49 50  1  0  0  0  0
 50 51  1  0  0  0  0
 51 52  1  0  0  0  0
 52 53  1  0  0  0  0
 53 54  2  0  0  0  0
 54 55  1  0  0  0  0
 55 56  1  0  0  0  0
 53 57  1  0  0  0  0
 57 58  1  0  0  0  0
 58 59  1  0  0  0  0
 59 60  1  0  0  0  0
 60 61  1  0  0  0  0
 61 62  1  0  0  0  0
 62 63  2  0  0  0  0
 63 64  1  0  0  0  0
 64 65  2  0  0  0  0
 65 66  1  0  0  0  0
 66 67  1  0  0  0  0
 67 68  1  0  0  0  0
 66 69  2  0  0  0  0
 61 70  2  0  0  0  0
 70 71  1  0  0  0  0
 71 72  1  0  0  0  0
 72 73  1  0  0  0  0
 73 74  1  0  0  0  0
 74 75  1  0  0  0  0
 75 76  1  0  0  0  0
 76 77  1  0  0  0  0
 77 78  1  0  0  0  0
 78 79  1  0  0  0  0
 79 80  1  0  0  0  0
 77 81  1  0  0  0  0
 81 82  1  0  0  0  0
 74 83  1  0  0  0  0
 83 84  1  0  0  0  0
 70 85  1  0  0  0  0
 85 86  2  0  0  0  0
 86 87  1  0  0  0  0
 87 88  1  0  0  0  0
 88 89  2  0  0  0  0
 88 90  1  0  0  0  0
 90 91  2  0  0  0  0
 91 92  1  0  0  0  0
 92 93  1  0  0  0  0
 93 94  2  0  0  0  0
 91 95  1  0  0  0  0
 95 96  2  0  0  0  0
 96 97  1  0  0  0  0
 97 98  2  0  0  0  0
 97 99  1  0  0  0  0
 99100  2  0  0  0  0
100101  1  0  0  0  0
101102  2  0  0  0  0
102103  1  0  0  0  0
103104  2  0  0  0  0
103105  1  0  0  0  0
105106  1  0  0  0  0
106107  1  0  0  0  0
105108  1  0  0  0  0
108109  2  0  0  0  0
108110  1  0  0  0  0
110111  1  0  0  0  0
111112  2  0  0  0  0
112113  1  0  0  0  0
113114  2  0  0  0  0
114115  1  0  0  0  0
 11  2  1  0  0  0  0
 23 17  1  0  0  0  0
 33 24  1  0  0  0  0
 80 38  1  0  0  0  0
 94 85  1  0  0  0  0
114 99  1  0  0  0  0
 10  5  1  0  0  0  0
 22 18  1  0  0  0  0
 31 26  2  0  0  0  0
 47 40  1  0  0  0  0
 79 48  2  0  0  0  0
 92 87  2  0  0  0  0
115102  1  0  0  0  0
 23  7  1  0  0  0  0
 37 29  1  0  0  0  0
 78 50  2  0  0  0  0
 98 90  1  0  0  0  0
115110  2  0  0  0  0
 76 51  2  0  0  0  0
 56 52  2  0  0  0  0
 75 57  2  0  0  0  0
 73 58  2  0  0  0  0
 72 60  2  0  0  0  0
 69 62  1  0  0  0  0
  1116  1  0  0  0  0
  6117  1  0  0  0  0
  9118  1  0  0  0  0
 17119  1  0  0  0  0
 18120  1  0  0  0  0
 19121  1  0  0  0  0
 20122  1  0  0  0  0
 21123  1  0  0  0  0
 22124  1  0  0  0  0
 22125  1  0  0  0  0
 23126  1  0  0  0  0
 25127  1  0  0  0  0
 32128  1  0  0  0  0
 33129  1  0  0  0  0
 34130  1  0  0  0  0
 35131  1  0  0  0  0
 37132  1  0  0  0  0
 41133  1  0  0  0  0
 42134  1  0  0  0  0
 43135  1  0  0  0  0
 45136  1  0  0  0  0
 45137  1  0  0  0  0
 46138  1  0  0  0  0
 46139  1  0  0  0  0
 46140  1  0  0  0  0
 47141  1  0  0  0  0
 63142  1  0  0  0  0
 64143  1  0  0  0  0
 65144  1  0  0  0  0
 67145  1  0  0  0  0
 67146  1  0  0  0  0
 68147  1  0  0  0  0
 68148  1  0  0  0  0
 68149  1  0  0  0  0
 69150  1  0  0  0  0
 81151  1  0  0  0  0
 81152  1  0  0  0  0
 82153  1  0  0  0  0
 82154  1  0  0  0  0
 82155  1  0  0  0  0
 83156  1  0  0  0  0
 83157  1  0  0  0  0
 84158  1  0  0  0  0
 84159  1  0  0  0  0
 84160  1  0  0  0  0
 86161  1  0  0  0  0
 93162  1  0  0  0  0
 94163  1  0  0  0  0
 95164  1  0  0  0  0
 96165  1  0  0  0  0
 98166  1  0  0  0  0
100167  1  0  0  0  0
101168  1  0  0  0  0
106169  1  0  0  0  0
106170  1  0  0  0  0
107171  1  0  0  0  0
107172  1  0  0  0  0
107173  1  0  0  0  0
111174  1  0  0  0  0
112175  1  0  0  0  0
113176  1  0  0  0  0
M  END
