
  xtb     02162204593D
 energy: -301.916480618615 gnorm: 0.000564130353 xtb: 6.4.1 (unknown)
177200  0     0  0            999 V2000
   -3.7361   -9.4018   -4.7755 C   0  0  0  0  0  0  0  0  0  0  0  0
   -2.4408   -9.0158   -4.7327 C   0  0  0  0  0  0  0  0  0  0  0  0
   -1.8332   -8.0851   -3.7345 C   0  0  0  0  0  0  0  0  0  0  0  0
   -2.3921   -7.3147   -2.9859 O   0  0  0  0  0  0  0  0  0  0  0  0
   -0.3830   -8.3314   -3.8020 C   0  0  0  0  0  0  0  0  0  0  0  0
    0.5928   -7.7457   -2.9956 C   0  0  0  0  0  0  0  0  0  0  0  0
    1.8726   -8.1534   -3.2807 C   0  0  0  0  0  0  0  0  0  0  0  0
    2.1657   -9.0820   -4.2909 C   0  0  0  0  0  0  0  0  0  0  0  0
    1.2159   -9.6643   -5.0950 C   0  0  0  0  0  0  0  0  0  0  0  0
   -0.0963   -9.2579   -4.8255 C   0  0  0  0  0  0  0  0  0  0  0  0
   -1.3451   -9.6377   -5.4711 C   0  0  0  0  0  0  0  0  0  0  0  0
   -1.4722  -10.3672   -6.6200 C   0  0  0  0  0  0  0  0  0  0  0  0
   -2.6965  -10.6110   -7.2815 C   0  0  0  0  0  0  0  0  0  0  0  0
   -3.6486  -10.8252   -7.8854 N   0  0  0  0  0  0  0  0  0  0  0  0
   -0.3902  -10.9317   -7.3297 C   0  0  0  0  0  0  0  0  0  0  0  0
    0.4456  -11.4180   -7.9474 N   0  0  0  0  0  0  0  0  0  0  0  0
    3.6478   -9.0325   -4.0156 C   0  0  0  0  0  0  0  0  0  0  0  0
    4.2452  -10.2163   -3.2255 C   0  0  0  0  0  0  0  0  0  0  0  0
    5.5563   -9.6757   -2.7013 C   0  0  0  0  0  0  0  0  0  0  0  0
    5.2781   -8.7968   -1.7470 C   0  0  0  0  0  0  0  0  0  0  0  0
    3.7741   -8.7278   -1.6103 C   0  0  0  0  0  0  0  0  0  0  0  0
    3.4127  -10.1825   -1.9373 C   0  0  0  0  0  0  0  0  0  0  0  0
    3.3210   -7.9966   -2.8923 C   0  0  0  0  0  0  0  0  0  0  0  0
   -4.8327   -8.8118   -4.0361 C   0  0  0  0  0  0  0  0  0  0  0  0
   -5.8186   -9.6696   -3.5040 C   0  0  0  0  0  0  0  0  0  0  0  0
   -6.8422   -9.1737   -2.7303 C   0  0  0  0  0  0  0  0  0  0  0  0
   -7.8383  -10.0903   -2.1467 C   0  0  0  0  0  0  0  0  0  0  0  0
   -7.8534  -11.2878   -2.3222 O   0  0  0  0  0  0  0  0  0  0  0  0
   -8.7903   -9.4847   -1.3494 N   0  0  0  0  0  0  0  0  0  0  0  0
   -8.9270   -8.1497   -1.0176 C   0  0  0  0  0  0  0  0  0  0  0  0
   -9.8185   -7.7868   -0.2839 O   0  0  0  0  0  0  0  0  0  0  0  0
   -7.9299   -7.2532   -1.6290 C   0  0  0  0  0  0  0  0  0  0  0  0
   -7.9681   -5.9060   -1.3543 C   0  0  0  0  0  0  0  0  0  0  0  0
   -7.0400   -5.0182   -1.9396 C   0  0  0  0  0  0  0  0  0  0  0  0
   -6.0746   -5.5344   -2.7871 C   0  0  0  0  0  0  0  0  0  0  0  0
   -5.9831   -6.9110   -3.0538 C   0  0  0  0  0  0  0  0  0  0  0  0
   -4.9507   -7.4475   -3.8450 C   0  0  0  0  0  0  0  0  0  0  0  0
   -6.9320   -7.7891   -2.4709 C   0  0  0  0  0  0  0  0  0  0  0  0
   -7.0357   -3.6134   -1.5959 C   0  0  0  0  0  0  0  0  0  0  0  0
   -8.0258   -2.8310   -1.0357 C   0  0  0  0  0  0  0  0  0  0  0  0
   -9.4369   -3.1937   -0.8831 C   0  0  0  0  0  0  0  0  0  0  0  0
  -10.1362   -3.7793   -1.9369 C   0  0  0  0  0  0  0  0  0  0  0  0
  -11.4771   -4.0741   -1.7910 C   0  0  0  0  0  0  0  0  0  0  0  0
  -12.1317   -3.7841   -0.6058 C   0  0  0  0  0  0  0  0  0  0  0  0
  -11.4518   -3.1936    0.4510 C   0  0  0  0  0  0  0  0  0  0  0  0
  -12.1622   -2.8206    1.7193 C   0  0  0  0  0  0  0  0  0  0  0  0
  -12.5857   -1.3509    1.6737 C   0  0  0  0  0  0  0  0  0  0  0  0
  -10.1048   -2.8991    0.2993 C   0  0  0  0  0  0  0  0  0  0  0  0
   -7.5347   -1.5519   -0.6894 C   0  0  0  0  0  0  0  0  0  0  0  0
   -8.2639   -0.1628    0.0839 S   0  0  0  0  0  0  0  0  0  0  0  0
   -6.7517    0.6739   -0.0339 C   0  0  0  0  0  0  0  0  0  0  0  0
   -6.1798    1.9127    0.3132 C   0  0  0  0  0  0  0  0  0  0  0  0
   -6.7239    3.0792    0.8935 C   0  0  0  0  0  0  0  0  0  0  0  0
   -5.8746    4.2220    1.0918 C   0  0  0  0  0  0  0  0  0  0  0  0
   -6.5278    5.2529    1.6044 N   0  0  0  0  0  0  0  0  0  0  0  0
   -8.0736    4.8251    1.8235 S   0  0  0  0  0  0  0  0  0  0  0  0
   -7.9715    3.3061    1.2737 N   0  0  0  0  0  0  0  0  0  0  0  0
   -4.4948    4.1085    0.8115 C   0  0  0  0  0  0  0  0  0  0  0  0
   -3.4116    4.9591    1.0890 C   0  0  0  0  0  0  0  0  0  0  0  0
   -3.1158    6.5175    1.7824 S   0  0  0  0  0  0  0  0  0  0  0  0
   -1.3990    6.2206    1.6561 C   0  0  0  0  0  0  0  0  0  0  0  0
   -0.2747    6.9972    1.9977 C   0  0  0  0  0  0  0  0  0  0  0  0
   -0.3782    8.3509    2.5475 C   0  0  0  0  0  0  0  0  0  0  0  0
    0.3031    9.4120    1.9579 C   0  0  0  0  0  0  0  0  0  0  0  0
    0.1588   10.6879    2.4673 C   0  0  0  0  0  0  0  0  0  0  0  0
   -0.6621   10.9150    3.5582 C   0  0  0  0  0  0  0  0  0  0  0  0
   -1.3602    9.8695    4.1488 C   0  0  0  0  0  0  0  0  0  0  0  0
   -2.2260   10.1039    5.3525 C   0  0  0  0  0  0  0  0  0  0  0  0
   -1.4148    9.9145    6.6359 C   0  0  0  0  0  0  0  0  0  0  0  0
   -1.2115    8.5907    3.6335 C   0  0  0  0  0  0  0  0  0  0  0  0
    0.9018    6.3348    1.7014 C   0  0  0  0  0  0  0  0  0  0  0  0
    0.6156    4.7567    0.9743 S   0  0  0  0  0  0  0  0  0  0  0  0
   -1.0927    4.9814    1.0886 C   0  0  0  0  0  0  0  0  0  0  0  0
   -2.2464    4.2592    0.7608 C   0  0  0  0  0  0  0  0  0  0  0  0
   -2.5673    3.0209    0.2691 N   0  0  0  0  0  0  0  0  0  0  0  0
   -3.9454    2.9109    0.2776 C   0  0  0  0  0  0  0  0  0  0  0  0
   -4.8183    1.8575   -0.0901 C   0  0  0  0  0  0  0  0  0  0  0  0
   -4.5828    0.6417   -0.7131 N   0  0  0  0  0  0  0  0  0  0  0  0
   -5.7515   -0.0752   -0.6543 C   0  0  0  0  0  0  0  0  0  0  0  0
   -6.1966   -1.3497   -1.0230 C   0  0  0  0  0  0  0  0  0  0  0  0
   -5.5101   -2.7514   -1.7535 S   0  0  0  0  0  0  0  0  0  0  0  0
   -3.6495    0.3554   -1.7816 C   0  0  0  0  0  0  0  0  0  0  0  0
   -4.3044    0.5340   -3.1519 C   0  0  0  0  0  0  0  0  0  0  0  0
   -1.5596    1.9868    0.1891 C   0  0  0  0  0  0  0  0  0  0  0  0
   -0.6525    2.1563   -1.0302 C   0  0  0  0  0  0  0  0  0  0  0  0
    2.2525    6.6910    1.9696 C   0  0  0  0  0  0  0  0  0  0  0  0
    3.3605    6.0844    1.4214 C   0  0  0  0  0  0  0  0  0  0  0  0
    4.5746    6.5538    1.9342 C   0  0  0  0  0  0  0  0  0  0  0  0
    6.1447    6.0575    1.3401 S   0  0  0  0  0  0  0  0  0  0  0  0
    5.7929    5.6307   -0.4048 C   0  0  0  0  0  0  0  0  0  0  0  0
    5.2928    6.8182   -1.2023 C   0  0  0  0  0  0  0  0  0  0  0  0
    4.4078    7.5303    2.9166 C   0  0  0  0  0  0  0  0  0  0  0  0
    2.7095    7.8894    3.1362 S   0  0  0  0  0  0  0  0  0  0  0  0
    5.3502    8.2798    3.6453 C   0  0  0  0  0  0  0  0  0  0  0  0
    6.6443    7.9774    3.9547 C   0  0  0  0  0  0  0  0  0  0  0  0
    7.5843    9.0717    4.3218 C   0  0  0  0  0  0  0  0  0  0  0  0
    7.2939   10.2189    4.5793 O   0  0  0  0  0  0  0  0  0  0  0  0
    8.9307    8.4713    4.2499 C   0  0  0  0  0  0  0  0  0  0  0  0
   10.1559    9.1205    4.3843 C   0  0  0  0  0  0  0  0  0  0  0  0
   11.2462    8.2986    4.2263 C   0  0  0  0  0  0  0  0  0  0  0  0
   11.1309    6.9319    3.9399 C   0  0  0  0  0  0  0  0  0  0  0  0
    9.9294    6.2756    3.8144 C   0  0  0  0  0  0  0  0  0  0  0  0
    8.8098    7.0908    3.9885 C   0  0  0  0  0  0  0  0  0  0  0  0
    7.3901    6.7451    3.9545 C   0  0  0  0  0  0  0  0  0  0  0  0
    6.8786    5.4822    4.1306 C   0  0  0  0  0  0  0  0  0  0  0  0
    7.6607    4.3143    4.2146 C   0  0  0  0  0  0  0  0  0  0  0  0
    8.2385    3.3238    4.2771 N   0  0  0  0  0  0  0  0  0  0  0  0
    5.5123    5.2140    4.3392 C   0  0  0  0  0  0  0  0  0  0  0  0
    4.4131    4.9453    4.5360 N   0  0  0  0  0  0  0  0  0  0  0  0
   12.6253    6.7333    3.8944 C   0  0  0  0  0  0  0  0  0  0  0  0
   13.2989    6.0551    5.1123 C   0  0  0  0  0  0  0  0  0  0  0  0
   12.4138    6.3375    6.3009 C   0  0  0  0  0  0  0  0  0  0  0  0
   12.5198    7.6285    6.5859 C   0  0  0  0  0  0  0  0  0  0  0  0
   13.4785    8.2420    5.5956 C   0  0  0  0  0  0  0  0  0  0  0  0
   14.4336    7.0581    5.3743 C   0  0  0  0  0  0  0  0  0  0  0  0
   12.7541    8.2534    4.2263 C   0  0  0  0  0  0  0  0  0  0  0  0
   -3.9957  -10.2802   -5.3547 H   0  0  0  0  0  0  0  0  0  0  0  0
    0.3232   -7.0345   -2.2307 H   0  0  0  0  0  0  0  0  0  0  0  0
    1.4548  -10.3769   -5.8667 H   0  0  0  0  0  0  0  0  0  0  0  0
    4.2727   -8.7187   -4.8493 H   0  0  0  0  0  0  0  0  0  0  0  0
    4.2863  -11.1540   -3.7726 H   0  0  0  0  0  0  0  0  0  0  0  0
    6.5170   -9.9394   -3.1026 H   0  0  0  0  0  0  0  0  0  0  0  0
    5.9596   -8.1795   -1.1918 H   0  0  0  0  0  0  0  0  0  0  0  0
    3.3851   -8.3098   -0.6859 H   0  0  0  0  0  0  0  0  0  0  0  0
    3.7872  -10.8772   -1.1876 H   0  0  0  0  0  0  0  0  0  0  0  0
    2.3485  -10.3523   -2.0909 H   0  0  0  0  0  0  0  0  0  0  0  0
    3.7291   -6.9911   -2.9752 H   0  0  0  0  0  0  0  0  0  0  0  0
   -5.7648  -10.7351   -3.6727 H   0  0  0  0  0  0  0  0  0  0  0  0
   -9.4783  -10.1098   -0.9389 H   0  0  0  0  0  0  0  0  0  0  0  0
   -8.7147   -5.5467   -0.6641 H   0  0  0  0  0  0  0  0  0  0  0  0
   -5.3444   -4.8760   -3.2359 H   0  0  0  0  0  0  0  0  0  0  0  0
   -4.2547   -6.7699   -4.3120 H   0  0  0  0  0  0  0  0  0  0  0  0
   -9.6253   -3.9938   -2.8644 H   0  0  0  0  0  0  0  0  0  0  0  0
  -12.0171   -4.5303   -2.6073 H   0  0  0  0  0  0  0  0  0  0  0  0
  -13.1806   -4.0196   -0.5004 H   0  0  0  0  0  0  0  0  0  0  0  0
  -13.0446   -3.4495    1.8500 H   0  0  0  0  0  0  0  0  0  0  0  0
  -11.5003   -2.9773    2.5734 H   0  0  0  0  0  0  0  0  0  0  0  0
  -11.7157   -0.7094    1.5515 H   0  0  0  0  0  0  0  0  0  0  0  0
  -13.0967   -1.0737    2.5927 H   0  0  0  0  0  0  0  0  0  0  0  0
  -13.2581   -1.1774    0.8363 H   0  0  0  0  0  0  0  0  0  0  0  0
   -9.5622   -2.4511    1.1192 H   0  0  0  0  0  0  0  0  0  0  0  0
    0.9257    9.2358    1.0929 H   0  0  0  0  0  0  0  0  0  0  0  0
    0.6847   11.5113    2.0073 H   0  0  0  0  0  0  0  0  0  0  0  0
   -0.7698   11.9160    3.9503 H   0  0  0  0  0  0  0  0  0  0  0  0
   -2.6292   11.1180    5.3269 H   0  0  0  0  0  0  0  0  0  0  0  0
   -3.0625    9.4024    5.3472 H   0  0  0  0  0  0  0  0  0  0  0  0
   -2.0414   10.0793    7.5093 H   0  0  0  0  0  0  0  0  0  0  0  0
   -0.5844   10.6163    6.6660 H   0  0  0  0  0  0  0  0  0  0  0  0
   -1.0105    8.9060    6.6828 H   0  0  0  0  0  0  0  0  0  0  0  0
   -1.7436    7.7666    4.0863 H   0  0  0  0  0  0  0  0  0  0  0  0
   -3.3026   -0.6767   -1.6678 H   0  0  0  0  0  0  0  0  0  0  0  0
   -2.8056    1.0312   -1.7152 H   0  0  0  0  0  0  0  0  0  0  0  0
   -5.1281   -0.1616   -3.2852 H   0  0  0  0  0  0  0  0  0  0  0  0
   -4.6853    1.5479   -3.2568 H   0  0  0  0  0  0  0  0  0  0  0  0
   -3.5706    0.3528   -3.9327 H   0  0  0  0  0  0  0  0  0  0  0  0
   -0.9407    2.0536    1.0913 H   0  0  0  0  0  0  0  0  0  0  0  0
   -2.0504    1.0132    0.1986 H   0  0  0  0  0  0  0  0  0  0  0  0
   -1.2260    2.2764   -1.9468 H   0  0  0  0  0  0  0  0  0  0  0  0
   -0.0067    1.2884   -1.1301 H   0  0  0  0  0  0  0  0  0  0  0  0
   -0.0286    3.0377   -0.9113 H   0  0  0  0  0  0  0  0  0  0  0  0
    3.2759    5.3063    0.6841 H   0  0  0  0  0  0  0  0  0  0  0  0
    6.7589    5.2881   -0.7757 H   0  0  0  0  0  0  0  0  0  0  0  0
    5.0954    4.7947   -0.4236 H   0  0  0  0  0  0  0  0  0  0  0  0
    4.3383    7.1716   -0.8171 H   0  0  0  0  0  0  0  0  0  0  0  0
    6.0091    7.6353   -1.1532 H   0  0  0  0  0  0  0  0  0  0  0  0
    5.1609    6.5320   -2.2438 H   0  0  0  0  0  0  0  0  0  0  0  0
    5.0240    9.2679    3.9561 H   0  0  0  0  0  0  0  0  0  0  0  0
   10.2038   10.1779    4.5928 H   0  0  0  0  0  0  0  0  0  0  0  0
    9.8491    5.2254    3.5867 H   0  0  0  0  0  0  0  0  0  0  0  0
   13.0307    6.3838    2.9467 H   0  0  0  0  0  0  0  0  0  0  0  0
   13.5745    5.0157    4.9553 H   0  0  0  0  0  0  0  0  0  0  0  0
   11.7767    5.6045    6.7599 H   0  0  0  0  0  0  0  0  0  0  0  0
   11.9887    8.1901    7.3319 H   0  0  0  0  0  0  0  0  0  0  0  0
   13.9191    9.1938    5.8806 H   0  0  0  0  0  0  0  0  0  0  0  0
   15.1002    7.1915    4.5232 H   0  0  0  0  0  0  0  0  0  0  0  0
   15.0150    6.8141    6.2622 H   0  0  0  0  0  0  0  0  0  0  0  0
   13.2521    8.8941    3.5006 H   0  0  0  0  0  0  0  0  0  0  0  0
  1  2  2  0  0  0  0
  2  3  1  0  0  0  0
  3  4  2  0  0  0  0
  3  5  1  0  0  0  0
  5  6  2  0  0  0  0
  6  7  1  0  0  0  0
  7  8  2  0  0  0  0
  8  9  1  0  0  0  0
  9 10  2  0  0  0  0
 10 11  1  0  0  0  0
 11 12  2  0  0  0  0
 12 13  1  0  0  0  0
 13 14  3  0  0  0  0
 12 15  1  0  0  0  0
 15 16  3  0  0  0  0
  8 17  1  0  0  0  0
 17 18  1  0  0  0  0
 18 19  1  0  0  0  0
 19 20  2  0  0  0  0
 20 21  1  0  0  0  0
 21 22  1  0  0  0  0
 21 23  1  0  0  0  0
  1 24  1  0  0  0  0
 24 25  2  0  0  0  0
 25 26  1  0  0  0  0
 26 27  1  0  0  0  0
 27 28  2  0  0  0  0
 27 29  1  0  0  0  0
 29 30  1  0  0  0  0
 30 31  2  0  0  0  0
 30 32  1  0  0  0  0
 32 33  2  0  0  0  0
 33 34  1  0  0  0  0
 34 35  2  0  0  0  0
 35 36  1  0  0  0  0
 36 37  2  0  0  0  0
 36 38  1  0  0  0  0
 34 39  1  0  0  0  0
 39 40  2  0  0  0  0
 40 41  1  0  0  0  0
 41 42  2  0  0  0  0
 42 43  1  0  0  0  0
 43 44  2  0  0  0  0
 44 45  1  0  0  0  0
 45 46  1  0  0  0  0
 46 47  1  0  0  0  0
 45 48  2  0  0  0  0
 40 49  1  0  0  0  0
 49 50  1  0  0  0  0
 50 51  1  0  0  0  0
 51 52  1  0  0  0  0
 52 53  1  0  0  0  0
 53 54  1  0  0  0  0
 54 55  2  0  0  0  0
 55 56  1  0  0  0  0
 56 57  1  0  0  0  0
 54 58  1  0  0  0  0
 58 59  1  0  0  0  0
 59 60  1  0  0  0  0
 60 61  1  0  0  0  0
 61 62  1  0  0  0  0
 62 63  1  0  0  0  0
 63 64  2  0  0  0  0
 64 65  1  0  0  0  0
 65 66  2  0  0  0  0
 66 67  1  0  0  0  0
 67 68  1  0  0  0  0
 68 69  1  0  0  0  0
 67 70  2  0  0  0  0
 62 71  2  0  0  0  0
 71 72  1  0  0  0  0
 72 73  1  0  0  0  0
 73 74  1  0  0  0  0
 74 75  1  0  0  0  0
 75 76  1  0  0  0  0
 76 77  1  0  0  0  0
 77 78  1  0  0  0  0
 78 79  1  0  0  0  0
 79 80  1  0  0  0  0
 80 81  1  0  0  0  0
 78 82  1  0  0  0  0
 82 83  1  0  0  0  0
 75 84  1  0  0  0  0
 84 85  1  0  0  0  0
 71 86  1  0  0  0  0
 86 87  2  0  0  0  0
 87 88  1  0  0  0  0
 88 89  1  0  0  0  0
 89 90  1  0  0  0  0
 90 91  1  0  0  0  0
 88 92  2  0  0  0  0
 92 93  1  0  0  0  0
 92 94  1  0  0  0  0
 94 95  2  0  0  0  0
 95 96  1  0  0  0  0
 96 97  2  0  0  0  0
 96 98  1  0  0  0  0
 98 99  2  0  0  0  0
 99100  1  0  0  0  0
100101  2  0  0  0  0
101102  1  0  0  0  0
102103  2  0  0  0  0
103104  1  0  0  0  0
104105  2  0  0  0  0
105106  1  0  0  0  0
106107  3  0  0  0  0
105108  1  0  0  0  0
108109  3  0  0  0  0
101110  1  0  0  0  0
110111  1  0  0  0  0
111112  1  0  0  0  0
112113  2  0  0  0  0
113114  1  0  0  0  0
114115  1  0  0  0  0
114116  1  0  0  0  0
 11  2  1  0  0  0  0
 23 17  1  0  0  0  0
 37 24  1  0  0  0  0
 81 39  1  0  0  0  0
 93 86  1  0  0  0  0
104 95  1  0  0  0  0
116110  1  0  0  0  0
 10  5  1  0  0  0  0
 22 18  1  0  0  0  0
 38 26  2  0  0  0  0
 48 41  1  0  0  0  0
 80 49  2  0  0  0  0
103 98  1  0  0  0  0
115111  1  0  0  0  0
 23  7  1  0  0  0  0
 38 32  1  0  0  0  0
 79 51  2  0  0  0  0
116100  1  0  0  0  0
 77 52  2  0  0  0  0
 57 53  2  0  0  0  0
 76 58  2  0  0  0  0
 74 59  2  0  0  0  0
 73 61  2  0  0  0  0
 70 63  1  0  0  0  0
  1117  1  0  0  0  0
  6118  1  0  0  0  0
  9119  1  0  0  0  0
 17120  1  0  0  0  0
 18121  1  0  0  0  0
 19122  1  0  0  0  0
 20123  1  0  0  0  0
 21124  1  0  0  0  0
 22125  1  0  0  0  0
 22126  1  0  0  0  0
 23127  1  0  0  0  0
 25128  1  0  0  0  0
 29129  1  0  0  0  0
 33130  1  0  0  0  0
 35131  1  0  0  0  0
 37132  1  0  0  0  0
 42133  1  0  0  0  0
 43134  1  0  0  0  0
 44135  1  0  0  0  0
 46136  1  0  0  0  0
 46137  1  0  0  0  0
 47138  1  0  0  0  0
 47139  1  0  0  0  0
 47140  1  0  0  0  0
 48141  1  0  0  0  0
 64142  1  0  0  0  0
 65143  1  0  0  0  0
 66144  1  0  0  0  0
 68145  1  0  0  0  0
 68146  1  0  0  0  0
 69147  1  0  0  0  0
 69148  1  0  0  0  0
 69149  1  0  0  0  0
 70150  1  0  0  0  0
 82151  1  0  0  0  0
 82152  1  0  0  0  0
 83153  1  0  0  0  0
 83154  1  0  0  0  0
 83155  1  0  0  0  0
 84156  1  0  0  0  0
 84157  1  0  0  0  0
 85158  1  0  0  0  0
 85159  1  0  0  0  0
 85160  1  0  0  0  0
 87161  1  0  0  0  0
 90162  1  0  0  0  0
 90163  1  0  0  0  0
 91164  1  0  0  0  0
 91165  1  0  0  0  0
 91166  1  0  0  0  0
 94167  1  0  0  0  0
 99168  1  0  0  0  0
102169  1  0  0  0  0
110170  1  0  0  0  0
111171  1  0  0  0  0
112172  1  0  0  0  0
113173  1  0  0  0  0
114174  1  0  0  0  0
115175  1  0  0  0  0
115176  1  0  0  0  0
116177  1  0  0  0  0
M  END
