
  xtb     02152200563D
 energy: -322.721867719026 gnorm: 0.000456802181 xtb: 6.4.1 (unknown)
186208  0     0  0            999 V2000
   -8.4850   -4.7177   -3.2716 C   0  0  0  0  0  0  0  0  0  0  0  0
   -9.2358   -4.0385   -4.1864 C   0  0  0  0  0  0  0  0  0  0  0  0
   -8.9864   -2.6826   -4.7047 C   0  0  0  0  0  0  0  0  0  0  0  0
   -7.9724   -2.0187   -4.5920 O   0  0  0  0  0  0  0  0  0  0  0  0
  -10.2362   -2.2679   -5.3646 C   0  0  0  0  0  0  0  0  0  0  0  0
  -10.5104   -1.0267   -5.9349 C   0  0  0  0  0  0  0  0  0  0  0  0
  -11.7780   -0.9177   -6.4539 C   0  0  0  0  0  0  0  0  0  0  0  0
  -12.7115   -1.9622   -6.4006 C   0  0  0  0  0  0  0  0  0  0  0  0
  -12.4533   -3.1934   -5.8462 C   0  0  0  0  0  0  0  0  0  0  0  0
  -11.1647   -3.3298   -5.3235 C   0  0  0  0  0  0  0  0  0  0  0  0
  -10.5273   -4.4756   -4.6829 C   0  0  0  0  0  0  0  0  0  0  0  0
  -11.0023   -5.7595   -4.6571 C   0  0  0  0  0  0  0  0  0  0  0  0
  -12.2564   -6.1493   -5.1712 C   0  0  0  0  0  0  0  0  0  0  0  0
  -13.2657   -6.5248   -5.5691 N   0  0  0  0  0  0  0  0  0  0  0  0
  -10.2722   -6.8778   -4.1959 C   0  0  0  0  0  0  0  0  0  0  0  0
   -9.7281   -7.8450   -3.9009 N   0  0  0  0  0  0  0  0  0  0  0  0
  -13.7740   -1.1550   -7.1028 C   0  0  0  0  0  0  0  0  0  0  0  0
  -14.0419   -1.4652   -8.5961 C   0  0  0  0  0  0  0  0  0  0  0  0
  -12.7597   -2.0354   -9.1501 C   0  0  0  0  0  0  0  0  0  0  0  0
  -11.8716   -1.0520   -9.2079 C   0  0  0  0  0  0  0  0  0  0  0  0
  -12.5371    0.2009   -8.6944 C   0  0  0  0  0  0  0  0  0  0  0  0
  -13.9774   -0.0421   -9.1730 C   0  0  0  0  0  0  0  0  0  0  0  0
  -12.7315    0.0054   -7.1699 C   0  0  0  0  0  0  0  0  0  0  0  0
   -7.2000   -4.4272   -2.7752 C   0  0  0  0  0  0  0  0  0  0  0  0
   -6.1406   -3.2128   -3.4299 S   0  0  0  0  0  0  0  0  0  0  0  0
   -4.8019   -3.7718   -2.4675 C   0  0  0  0  0  0  0  0  0  0  0  0
   -5.1931   -4.8207   -1.6210 C   0  0  0  0  0  0  0  0  0  0  0  0
   -4.3161   -5.5303   -0.6984 C   0  0  0  0  0  0  0  0  0  0  0  0
   -3.1915   -5.1428   -0.3927 O   0  0  0  0  0  0  0  0  0  0  0  0
   -4.8768   -6.7662   -0.1670 C   0  0  0  0  0  0  0  0  0  0  0  0
   -4.1671   -7.6772    0.5782 C   0  0  0  0  0  0  0  0  0  0  0  0
   -2.7380   -7.6024    0.9765 C   0  0  0  0  0  0  0  0  0  0  0  0
   -2.2373   -8.8600    1.6715 C   0  0  0  0  0  0  0  0  0  0  0  0
   -5.1729   -9.0076    1.0371 S   0  0  0  0  0  0  0  0  0  0  0  0
   -6.5621   -8.3260    0.2602 C   0  0  0  0  0  0  0  0  0  0  0  0
   -7.8558   -9.0553    0.2616 C   0  0  0  0  0  0  0  0  0  0  0  0
   -8.0949   -9.7565   -1.0799 C   0  0  0  0  0  0  0  0  0  0  0  0
   -6.2459   -7.1376   -0.3483 C   0  0  0  0  0  0  0  0  0  0  0  0
   -7.1920   -6.2823   -1.0591 C   0  0  0  0  0  0  0  0  0  0  0  0
   -8.4010   -6.4500   -1.0281 O   0  0  0  0  0  0  0  0  0  0  0  0
   -6.5439   -5.1903   -1.8046 C   0  0  0  0  0  0  0  0  0  0  0  0
   -3.5540   -3.1144   -2.6138 C   0  0  0  0  0  0  0  0  0  0  0  0
   -3.1893   -2.2994   -3.6899 C   0  0  0  0  0  0  0  0  0  0  0  0
   -3.9190   -2.1743   -4.9553 C   0  0  0  0  0  0  0  0  0  0  0  0
   -4.2604   -0.9161   -5.4369 C   0  0  0  0  0  0  0  0  0  0  0  0
   -4.9692   -0.8014   -6.6183 C   0  0  0  0  0  0  0  0  0  0  0  0
   -5.3449   -1.9321   -7.3187 C   0  0  0  0  0  0  0  0  0  0  0  0
   -4.9925   -3.1972   -6.8627 C   0  0  0  0  0  0  0  0  0  0  0  0
   -5.4652   -4.4291   -7.5796 C   0  0  0  0  0  0  0  0  0  0  0  0
   -6.8252   -4.8596   -7.0238 C   0  0  0  0  0  0  0  0  0  0  0  0
   -4.2644   -3.3057   -5.6901 C   0  0  0  0  0  0  0  0  0  0  0  0
   -1.9963   -1.6172   -3.4391 C   0  0  0  0  0  0  0  0  0  0  0  0
   -1.0570   -0.4899   -4.3954 S   0  0  0  0  0  0  0  0  0  0  0  0
    0.0679   -0.3688   -3.0845 C   0  0  0  0  0  0  0  0  0  0  0  0
    1.2551    0.3033   -2.7608 C   0  0  0  0  0  0  0  0  0  0  0  0
    2.0914    1.1334   -3.5391 C   0  0  0  0  0  0  0  0  0  0  0  0
    3.3135    1.6177   -2.9661 C   0  0  0  0  0  0  0  0  0  0  0  0
    4.0238    2.3378   -3.8198 N   0  0  0  0  0  0  0  0  0  0  0  0
    3.2201    2.4045   -5.2247 S   0  0  0  0  0  0  0  0  0  0  0  0
    1.9353    1.5169   -4.7962 N   0  0  0  0  0  0  0  0  0  0  0  0
    3.5793    1.3500   -1.6053 C   0  0  0  0  0  0  0  0  0  0  0  0
    4.5782    1.8441   -0.7539 C   0  0  0  0  0  0  0  0  0  0  0  0
    5.9737    2.8644   -0.8253 S   0  0  0  0  0  0  0  0  0  0  0  0
    6.1396    2.7167    0.9082 C   0  0  0  0  0  0  0  0  0  0  0  0
    7.0212    3.3123    1.8292 C   0  0  0  0  0  0  0  0  0  0  0  0
    8.0490    4.2778    1.4466 C   0  0  0  0  0  0  0  0  0  0  0  0
    8.2410    5.4525    2.1705 C   0  0  0  0  0  0  0  0  0  0  0  0
    9.2283    6.3409    1.7925 C   0  0  0  0  0  0  0  0  0  0  0  0
   10.0192    6.0788    0.6864 C   0  0  0  0  0  0  0  0  0  0  0  0
    9.8256    4.9244   -0.0603 C   0  0  0  0  0  0  0  0  0  0  0  0
   10.6322    4.6538   -1.2975 C   0  0  0  0  0  0  0  0  0  0  0  0
    9.8456    5.0668   -2.5431 C   0  0  0  0  0  0  0  0  0  0  0  0
    8.8377    4.0316    0.3292 C   0  0  0  0  0  0  0  0  0  0  0  0
    6.7194    2.9304    3.1261 C   0  0  0  0  0  0  0  0  0  0  0  0
    5.3235    1.8674    3.2088 S   0  0  0  0  0  0  0  0  0  0  0  0
    5.1592    1.9085    1.4905 C   0  0  0  0  0  0  0  0  0  0  0  0
    4.2728    1.3972    0.5344 C   0  0  0  0  0  0  0  0  0  0  0  0
    3.1525    0.6118    0.5048 N   0  0  0  0  0  0  0  0  0  0  0  0
    2.7013    0.5653   -0.8043 C   0  0  0  0  0  0  0  0  0  0  0  0
    1.5887   -0.0636   -1.4242 C   0  0  0  0  0  0  0  0  0  0  0  0
    0.6500   -0.9795   -0.9793 N   0  0  0  0  0  0  0  0  0  0  0  0
   -0.2648   -1.1607   -1.9816 C   0  0  0  0  0  0  0  0  0  0  0  0
   -1.4436   -1.8889   -2.1819 C   0  0  0  0  0  0  0  0  0  0  0  0
   -2.3561   -3.0762   -1.3246 S   0  0  0  0  0  0  0  0  0  0  0  0
    0.7220   -1.9421    0.0979 C   0  0  0  0  0  0  0  0  0  0  0  0
    1.9858   -2.7931    0.0052 C   0  0  0  0  0  0  0  0  0  0  0  0
    2.4701    0.2920    1.7379 C   0  0  0  0  0  0  0  0  0  0  0  0
    1.1725    1.0828    1.8840 C   0  0  0  0  0  0  0  0  0  0  0  0
    7.3148    3.3457    4.3495 C   0  0  0  0  0  0  0  0  0  0  0  0
    6.2933    3.6402    5.7184 S   0  0  0  0  0  0  0  0  0  0  0  0
    7.6356    4.2571    6.6472 C   0  0  0  0  0  0  0  0  0  0  0  0
    8.8264    4.1649    5.9141 C   0  0  0  0  0  0  0  0  0  0  0  0
   10.1447    4.5884    6.4199 C   0  0  0  0  0  0  0  0  0  0  0  0
   10.3716    4.8395    7.5917 O   0  0  0  0  0  0  0  0  0  0  0  0
   11.1576    4.6715    5.3706 C   0  0  0  0  0  0  0  0  0  0  0  0
   12.3547    5.3289    5.5001 C   0  0  0  0  0  0  0  0  0  0  0  0
   12.8802    6.0815    6.6671 C   0  0  0  0  0  0  0  0  0  0  0  0
   13.6463    5.1473    7.6087 C   0  0  0  0  0  0  0  0  0  0  0  0
   13.3010    5.1647    4.0599 S   0  0  0  0  0  0  0  0  0  0  0  0
   12.0994    4.1785    3.2915 C   0  0  0  0  0  0  0  0  0  0  0  0
   12.3558    3.6004    1.9490 C   0  0  0  0  0  0  0  0  0  0  0  0
   13.1950    2.3246    2.0662 C   0  0  0  0  0  0  0  0  0  0  0  0
   11.0061    4.0229    4.1024 C   0  0  0  0  0  0  0  0  0  0  0  0
    9.7817    3.3110    3.7340 C   0  0  0  0  0  0  0  0  0  0  0  0
    9.6989    2.5303    2.8024 O   0  0  0  0  0  0  0  0  0  0  0  0
    8.6522    3.6292    4.6242 C   0  0  0  0  0  0  0  0  0  0  0  0
    7.5386    4.8806    7.9035 C   0  0  0  0  0  0  0  0  0  0  0  0
    6.4782    4.9701    8.7615 C   0  0  0  0  0  0  0  0  0  0  0  0
    5.1935    4.2512    8.6413 C   0  0  0  0  0  0  0  0  0  0  0  0
    4.7979    3.6014    7.6886 O   0  0  0  0  0  0  0  0  0  0  0  0
    4.5076    4.4723    9.9132 C   0  0  0  0  0  0  0  0  0  0  0  0
    5.3045    5.3284   10.7433 C   0  0  0  0  0  0  0  0  0  0  0  0
    4.7261    5.5790   11.9470 C   0  0  0  0  0  0  0  0  0  0  0  0
    3.2049    4.7701   12.0790 S   0  0  0  0  0  0  0  0  0  0  0  0
    3.3349    4.0786   10.4808 C   0  0  0  0  0  0  0  0  0  0  0  0
    2.2795    3.2121    9.9105 C   0  0  0  0  0  0  0  0  0  0  0  0
    6.5046    5.6977   10.0207 C   0  0  0  0  0  0  0  0  0  0  0  0
    7.4218    6.6240   10.4415 C   0  0  0  0  0  0  0  0  0  0  0  0
    7.3000    7.2397   11.7042 C   0  0  0  0  0  0  0  0  0  0  0  0
    7.2095    7.7392   12.7335 N   0  0  0  0  0  0  0  0  0  0  0  0
    8.5048    7.1203    9.6873 C   0  0  0  0  0  0  0  0  0  0  0  0
    9.3719    7.6149    9.1198 N   0  0  0  0  0  0  0  0  0  0  0  0
   -8.9236   -5.6082   -2.8353 H   0  0  0  0  0  0  0  0  0  0  0  0
   -9.7660   -0.2460   -5.9453 H   0  0  0  0  0  0  0  0  0  0  0  0
  -13.1814   -3.9866   -5.8062 H   0  0  0  0  0  0  0  0  0  0  0  0
  -14.6908   -0.9843   -6.5421 H   0  0  0  0  0  0  0  0  0  0  0  0
  -14.9437   -2.0418   -8.7825 H   0  0  0  0  0  0  0  0  0  0  0  0
  -12.6178   -3.0750   -9.3807 H   0  0  0  0  0  0  0  0  0  0  0  0
  -10.8383   -1.1057   -9.4969 H   0  0  0  0  0  0  0  0  0  0  0  0
  -12.0691    1.1416   -8.9724 H   0  0  0  0  0  0  0  0  0  0  0  0
  -14.0694   -0.0232  -10.2579 H   0  0  0  0  0  0  0  0  0  0  0  0
  -14.7026    0.6392   -8.7302 H   0  0  0  0  0  0  0  0  0  0  0  0
  -12.9697    0.9368   -6.6599 H   0  0  0  0  0  0  0  0  0  0  0  0
   -2.6107   -6.7324    1.6293 H   0  0  0  0  0  0  0  0  0  0  0  0
   -2.1413   -7.3935    0.0831 H   0  0  0  0  0  0  0  0  0  0  0  0
   -2.8022   -9.0445    2.5830 H   0  0  0  0  0  0  0  0  0  0  0  0
   -1.1878   -8.7517    1.9325 H   0  0  0  0  0  0  0  0  0  0  0  0
   -2.3439   -9.7255    1.0210 H   0  0  0  0  0  0  0  0  0  0  0  0
   -8.6626   -8.3388    0.4281 H   0  0  0  0  0  0  0  0  0  0  0  0
   -7.8559   -9.7915    1.0679 H   0  0  0  0  0  0  0  0  0  0  0  0
   -7.2697  -10.4253   -1.3162 H   0  0  0  0  0  0  0  0  0  0  0  0
   -8.1993   -9.0248   -1.8761 H   0  0  0  0  0  0  0  0  0  0  0  0
   -9.0115  -10.3372   -1.0303 H   0  0  0  0  0  0  0  0  0  0  0  0
   -3.9897   -0.0360   -4.8739 H   0  0  0  0  0  0  0  0  0  0  0  0
   -5.2394    0.1769   -6.9871 H   0  0  0  0  0  0  0  0  0  0  0  0
   -5.9173   -1.8371   -8.2304 H   0  0  0  0  0  0  0  0  0  0  0  0
   -4.7478   -5.2409   -7.4454 H   0  0  0  0  0  0  0  0  0  0  0  0
   -5.5600   -4.2276   -8.6483 H   0  0  0  0  0  0  0  0  0  0  0  0
   -7.5503   -4.0559   -7.1381 H   0  0  0  0  0  0  0  0  0  0  0  0
   -6.7445   -5.0945   -5.9643 H   0  0  0  0  0  0  0  0  0  0  0  0
   -7.1934   -5.7394   -7.5467 H   0  0  0  0  0  0  0  0  0  0  0  0
   -3.9745   -4.2823   -5.3262 H   0  0  0  0  0  0  0  0  0  0  0  0
    7.6072    5.6750    3.0164 H   0  0  0  0  0  0  0  0  0  0  0  0
    9.3785    7.2476    2.3604 H   0  0  0  0  0  0  0  0  0  0  0  0
   10.7898    6.7797    0.3991 H   0  0  0  0  0  0  0  0  0  0  0  0
   10.8673    3.5893   -1.3588 H   0  0  0  0  0  0  0  0  0  0  0  0
   11.5703    5.2111   -1.2600 H   0  0  0  0  0  0  0  0  0  0  0  0
    8.9112    4.5135   -2.6016 H   0  0  0  0  0  0  0  0  0  0  0  0
   10.4253    4.8684   -3.4414 H   0  0  0  0  0  0  0  0  0  0  0  0
    9.6122    6.1286   -2.5074 H   0  0  0  0  0  0  0  0  0  0  0  0
    8.6984    3.1160   -0.2253 H   0  0  0  0  0  0  0  0  0  0  0  0
   -0.1539   -2.5872   -0.0060 H   0  0  0  0  0  0  0  0  0  0  0  0
    0.6421   -1.4467    1.0663 H   0  0  0  0  0  0  0  0  0  0  0  0
    2.0145   -3.5024    0.8279 H   0  0  0  0  0  0  0  0  0  0  0  0
    2.8818   -2.1775    0.0385 H   0  0  0  0  0  0  0  0  0  0  0  0
    1.9905   -3.3479   -0.9300 H   0  0  0  0  0  0  0  0  0  0  0  0
    3.1500    0.5648    2.5488 H   0  0  0  0  0  0  0  0  0  0  0  0
    2.2968   -0.7820    1.8120 H   0  0  0  0  0  0  0  0  0  0  0  0
    0.6739    0.8083    2.8096 H   0  0  0  0  0  0  0  0  0  0  0  0
    0.4996    0.8941    1.0510 H   0  0  0  0  0  0  0  0  0  0  0  0
    1.3893    2.1481    1.9108 H   0  0  0  0  0  0  0  0  0  0  0  0
   13.5423    6.8782    6.3221 H   0  0  0  0  0  0  0  0  0  0  0  0
   12.0437    6.5182    7.2165 H   0  0  0  0  0  0  0  0  0  0  0  0
   12.9740    4.3878    7.9981 H   0  0  0  0  0  0  0  0  0  0  0  0
   14.0479    5.7152    8.4429 H   0  0  0  0  0  0  0  0  0  0  0  0
   14.4673    4.6623    7.0844 H   0  0  0  0  0  0  0  0  0  0  0  0
   11.3987    3.3574    1.4863 H   0  0  0  0  0  0  0  0  0  0  0  0
   12.8828    4.3285    1.3286 H   0  0  0  0  0  0  0  0  0  0  0  0
   14.1448    2.5337    2.5546 H   0  0  0  0  0  0  0  0  0  0  0  0
   13.3916    1.9187    1.0777 H   0  0  0  0  0  0  0  0  0  0  0  0
   12.6564    1.5800    2.6466 H   0  0  0  0  0  0  0  0  0  0  0  0
    8.4679    5.3390    8.2245 H   0  0  0  0  0  0  0  0  0  0  0  0
    5.0779    6.1719   12.7672 H   0  0  0  0  0  0  0  0  0  0  0  0
    2.1117    2.3417   10.5441 H   0  0  0  0  0  0  0  0  0  0  0  0
    1.3374    3.7547    9.8348 H   0  0  0  0  0  0  0  0  0  0  0  0
    2.5840    2.8836    8.9193 H   0  0  0  0  0  0  0  0  0  0  0  0
  1  2  2  0  0  0  0
  2  3  1  0  0  0  0
  3  4  2  0  0  0  0
  3  5  1  0  0  0  0
  5  6  2  0  0  0  0
  6  7  1  0  0  0  0
  7  8  2  0  0  0  0
  8  9  1  0  0  0  0
  9 10  2  0  0  0  0
 10 11  1  0  0  0  0
 11 12  2  0  0  0  0
 12 13  1  0  0  0  0
 13 14  3  0  0  0  0
 12 15  1  0  0  0  0
 15 16  3  0  0  0  0
  8 17  1  0  0  0  0
 17 18  1  0  0  0  0
 18 19  1  0  0  0  0
 19 20  2  0  0  0  0
 20 21  1  0  0  0  0
 21 22  1  0  0  0  0
 21 23  1  0  0  0  0
  1 24  1  0  0  0  0
 24 25  1  0  0  0  0
 25 26  1  0  0  0  0
 26 27  2  0  0  0  0
 27 28  1  0  0  0  0
 28 29  2  0  0  0  0
 28 30  1  0  0  0  0
 30 31  2  0  0  0  0
 31 32  1  0  0  0  0
 32 33  1  0  0  0  0
 31 34  1  0  0  0  0
 34 35  1  0  0  0  0
 35 36  1  0  0  0  0
 36 37  1  0  0  0  0
 35 38  2  0  0  0  0
 38 39  1  0  0  0  0
 39 40  2  0  0  0  0
 39 41  1  0  0  0  0
 26 42  1  0  0  0  0
 42 43  2  0  0  0  0
 43 44  1  0  0  0  0
 44 45  2  0  0  0  0
 45 46  1  0  0  0  0
 46 47  2  0  0  0  0
 47 48  1  0  0  0  0
 48 49  1  0  0  0  0
 49 50  1  0  0  0  0
 48 51  2  0  0  0  0
 43 52  1  0  0  0  0
 52 53  1  0  0  0  0
 53 54  1  0  0  0  0
 54 55  1  0  0  0  0
 55 56  1  0  0  0  0
 56 57  1  0  0  0  0
 57 58  2  0  0  0  0
 58 59  1  0  0  0  0
 59 60  1  0  0  0  0
 57 61  1  0  0  0  0
 61 62  1  0  0  0  0
 62 63  1  0  0  0  0
 63 64  1  0  0  0  0
 64 65  1  0  0  0  0
 65 66  1  0  0  0  0
 66 67  2  0  0  0  0
 67 68  1  0  0  0  0
 68 69  2  0  0  0  0
 69 70  1  0  0  0  0
 70 71  1  0  0  0  0
 71 72  1  0  0  0  0
 70 73  2  0  0  0  0
 65 74  2  0  0  0  0
 74 75  1  0  0  0  0
 75 76  1  0  0  0  0
 76 77  1  0  0  0  0
 77 78  1  0  0  0  0
 78 79  1  0  0  0  0
 79 80  1  0  0  0  0
 80 81  1  0  0  0  0
 81 82  1  0  0  0  0
 82 83  1  0  0  0  0
 83 84  1  0  0  0  0
 81 85  1  0  0  0  0
 85 86  1  0  0  0  0
 78 87  1  0  0  0  0
 87 88  1  0  0  0  0
 74 89  1  0  0  0  0
 89 90  1  0  0  0  0
 90 91  1  0  0  0  0
 91 92  2  0  0  0  0
 92 93  1  0  0  0  0
 93 94  2  0  0  0  0
 93 95  1  0  0  0  0
 95 96  2  0  0  0  0
 96 97  1  0  0  0  0
 97 98  1  0  0  0  0
 96 99  1  0  0  0  0
 99100  1  0  0  0  0
100101  1  0  0  0  0
101102  1  0  0  0  0
100103  2  0  0  0  0
103104  1  0  0  0  0
104105  2  0  0  0  0
104106  1  0  0  0  0
 91107  1  0  0  0  0
107108  2  0  0  0  0
108109  1  0  0  0  0
109110  2  0  0  0  0
109111  1  0  0  0  0
111112  1  0  0  0  0
112113  2  0  0  0  0
113114  1  0  0  0  0
114115  1  0  0  0  0
115116  1  0  0  0  0
112117  1  0  0  0  0
117118  2  0  0  0  0
118119  1  0  0  0  0
119120  3  0  0  0  0
118121  1  0  0  0  0
121122  3  0  0  0  0
 11  2  1  0  0  0  0
 23 17  1  0  0  0  0
 41 24  2  0  0  0  0
 84 42  1  0  0  0  0
106 89  2  0  0  0  0
117108  1  0  0  0  0
 10  5  1  0  0  0  0
 22 18  1  0  0  0  0
 41 27  1  0  0  0  0
 51 44  1  0  0  0  0
 83 52  2  0  0  0  0
106 92  1  0  0  0  0
115111  2  0  0  0  0
 23  7  1  0  0  0  0
 38 30  1  0  0  0  0
 82 54  2  0  0  0  0
103 95  1  0  0  0  0
 80 55  2  0  0  0  0
 60 56  2  0  0  0  0
 79 61  2  0  0  0  0
 77 62  2  0  0  0  0
 76 64  2  0  0  0  0
 73 66  1  0  0  0  0
  1123  1  0  0  0  0
  6124  1  0  0  0  0
  9125  1  0  0  0  0
 17126  1  0  0  0  0
 18127  1  0  0  0  0
 19128  1  0  0  0  0
 20129  1  0  0  0  0
 21130  1  0  0  0  0
 22131  1  0  0  0  0
 22132  1  0  0  0  0
 23133  1  0  0  0  0
 32134  1  0  0  0  0
 32135  1  0  0  0  0
 33136  1  0  0  0  0
 33137  1  0  0  0  0
 33138  1  0  0  0  0
 36139  1  0  0  0  0
 36140  1  0  0  0  0
 37141  1  0  0  0  0
 37142  1  0  0  0  0
 37143  1  0  0  0  0
 45144  1  0  0  0  0
 46145  1  0  0  0  0
 47146  1  0  0  0  0
 49147  1  0  0  0  0
 49148  1  0  0  0  0
 50149  1  0  0  0  0
 50150  1  0  0  0  0
 50151  1  0  0  0  0
 51152  1  0  0  0  0
 67153  1  0  0  0  0
 68154  1  0  0  0  0
 69155  1  0  0  0  0
 71156  1  0  0  0  0
 71157  1  0  0  0  0
 72158  1  0  0  0  0
 72159  1  0  0  0  0
 72160  1  0  0  0  0
 73161  1  0  0  0  0
 85162  1  0  0  0  0
 85163  1  0  0  0  0
 86164  1  0  0  0  0
 86165  1  0  0  0  0
 86166  1  0  0  0  0
 87167  1  0  0  0  0
 87168  1  0  0  0  0
 88169  1  0  0  0  0
 88170  1  0  0  0  0
 88171  1  0  0  0  0
 97172  1  0  0  0  0
 97173  1  0  0  0  0
 98174  1  0  0  0  0
 98175  1  0  0  0  0
 98176  1  0  0  0  0
101177  1  0  0  0  0
101178  1  0  0  0  0
102179  1  0  0  0  0
102180  1  0  0  0  0
102181  1  0  0  0  0
107182  1  0  0  0  0
113183  1  0  0  0  0
116184  1  0  0  0  0
116185  1  0  0  0  0
116186  1  0  0  0  0
M  END
