173

C         -9.68290        0.97360        0.06820
C         -8.99870        1.70990       -0.84070
C         -7.51070        1.74980       -0.95840
O         -6.69000        1.22950       -0.23600
C         -7.23040        2.47290       -2.21080
C         -5.97060        2.74890       -2.73890
C         -6.00060        3.44020       -3.92480
C         -7.19750        3.82140       -4.54830
C         -8.44550        3.55660       -4.03800
C         -8.43900        2.85870       -2.82470
C         -9.55060        2.41850       -1.98840
C        -10.87470        2.68260       -2.21280
C        -11.37250        3.38710       -3.33000
N        -11.84680        3.94470       -4.21430
C        -11.93480        2.30690       -1.35950
N        -12.85140        2.04940       -0.71780
C         -6.47910        4.47220       -5.70430
C         -6.41670        3.70220       -7.04680
C         -6.51230        2.23560       -6.70650
C         -5.37950        1.88210       -6.11420
C         -4.49720        3.10410       -6.04230
C         -4.91180        3.81410       -7.34110
C         -5.14680        4.05410       -5.00580
C         -9.09800        0.34250        1.22990
C         -8.13350        1.00260        2.00940
C         -7.53590        0.31530        3.03540
C         -6.44210        0.75980        3.93930
O         -5.96600        1.86390        4.04660
C         -6.06170       -0.47480        4.67610
C         -6.93670       -1.52340        4.32750
C         -7.85920       -1.03000        3.31440
C         -8.87070       -1.65240        2.60480
C         -9.49190       -0.95270        1.58120
C         -6.73690       -2.78150        4.86710
C         -5.63150       -3.00260        5.67530
C         -4.72200       -1.98140        5.97400
C         -4.98030       -0.68520        5.49250
C         -3.44460       -2.24850        6.59690
C         -2.98720       -3.32910        7.32950
C         -3.83440       -4.33030        7.97930
C         -3.47790       -5.67560        7.97130
C         -4.27340       -6.60270        8.61850
C         -5.41930       -6.20020        9.28070
C         -5.78770       -4.85970        9.30440
C         -7.00120       -4.41230       10.06760
C         -6.63270       -4.10930       11.52120
C         -4.98710       -3.93470        8.65450
C         -1.57630       -3.31950        7.43550
S         -0.40420       -4.45090        8.08390
C          0.88100       -3.46380        7.46130
C          2.26540       -3.53420        7.20990
C          3.20630       -4.58390        7.33270
C          4.44910       -4.50620        6.60360
N          5.16850       -5.61010        6.71980
S          4.37090       -6.65140        7.66930
N          3.06580       -5.73880        7.96200
C          4.76510       -3.32400        5.89530
C          5.81330       -2.95320        5.02580
S          7.12750       -3.67250        4.14960
C          7.32670       -2.18930        3.23680
C          8.08150       -1.83140        2.09290
C          9.06720       -2.68120        1.42790
C          8.88680       -4.05970        1.34560
C          9.81150       -4.83620        0.67360
C         10.91180       -4.25250        0.07000
C         11.11530       -2.88070        0.15270
C         12.26470       -2.21850       -0.55040
C         11.78090       -1.57730       -1.85320
C         10.19670       -2.10980        0.84650
C          7.76910       -0.55370        1.66930
S          6.61170        0.24680        2.72170
C          6.46620       -1.18240        3.67110
C          5.59790       -1.61900        4.67520
N          4.46750       -1.13910        5.28460
C          3.90930       -2.19580        5.98110
C          2.60330       -2.35220        6.49810
N          1.46300       -1.60270        6.29920
C          0.42160       -2.28960        6.85880
C         -0.97500       -2.21850        6.82850
S         -2.14020       -1.16990        6.11890
C          1.20740       -0.53060        5.36390
C          0.82500        0.76910        6.06910
C          4.33190        0.26920        5.58960
C          5.56130        0.79730        6.32780
C          8.00710        0.10670        0.40180
C          8.00950       -0.63760       -0.79110
C          7.92620        0.03700       -1.98430
C          7.74470       -0.51780       -3.35350
O          7.81330       -1.67200       -3.70160
C          7.42780        0.67270       -4.18820
C          7.53670        1.83880       -3.40130
C          7.85730        1.44490       -2.03780
C          7.95590        2.18100       -0.87240
C          8.02200        1.50290        0.33480
C          7.24560        3.07380       -3.95100
C          6.74610        3.12550       -5.24270
C          6.56280        1.96590       -6.00200
C          6.97780        0.72680       -5.48510
C          5.90010        1.98720       -7.28650
C          4.75460        2.65680       -7.56030
C          3.85610        3.27530       -6.53860
O          4.10830        3.56090       -5.38960
C          2.55140        3.41040       -7.20920
C          1.34710        3.83150       -6.67740
C          0.23690        3.86350       -7.50540
C          0.31770        3.47780       -8.84240
C         -0.90190        3.48660       -9.70760
C          1.53700        3.05750       -9.37260
C          2.65610        3.02590       -8.55790
C          4.03520        2.63530       -8.82740
C          4.57810        2.37630      -10.05440
C          3.84710        2.40160      -11.26140
N          3.29790        2.40550      -12.26900
C          5.94500        2.09760      -10.27520
N          7.04560        1.88790      -10.52310
H        -10.73830        0.78780       -0.08930
H         -5.07630        2.43490       -2.22370
H         -9.35530        3.85810       -4.52960
H         -6.67030        5.53410       -5.84510
H         -7.10370        4.06430       -7.80680
H         -7.38920        1.63840       -6.87460
H         -5.12030        0.93080       -5.68780
H         -3.43710        2.92050       -5.88600
H         -4.55940        4.84290       -7.40630
H         -4.61660        3.26520       -8.23430
H         -4.47110        4.84480       -4.68510
H         -7.86980        2.03000        1.81590
H         -9.16160       -2.66880        2.82330
H        -10.26290       -1.43740        0.99900
H         -7.39840       -3.60090        4.62930
H         -5.43920       -3.99970        6.04000
H         -4.31200        0.13220        5.72240
H         -2.59030       -5.99420        7.44660
H         -3.99600       -7.64640        8.60580
H         -6.03530       -6.93060        9.78510
H         -7.76200       -5.19520       10.04480
H         -7.41900       -3.51500        9.60640
H         -7.51080       -3.79190       12.07860
H         -6.21850       -4.99440       11.99880
H         -5.88790       -3.31780       11.56500
H         -5.25550       -2.88760        8.67260
H          8.01510       -4.51740        1.78700
H          9.66550       -5.90430        0.60960
H         11.61930       -4.86600       -0.46870
H         12.69810       -1.44740        0.09070
H         13.03980       -2.95360       -0.77340
H         11.02940       -0.81750       -1.64750
H         12.61050       -1.11200       -2.38040
H         11.33330       -2.32740       -2.50120
H         10.35780       -1.04470        0.93600
H          2.07780       -0.40030        4.72260
H          0.36870       -0.83800        4.72850
H          0.68090        1.55470        5.33310
H          1.58990        1.08610        6.77420
H         -0.10410        0.63700        6.61680
H          3.46190        0.40020        6.22810
H          4.19580        0.82880        4.65760
H          6.44810        0.73070        5.70360
H          5.40480        1.83900        6.59450
H          5.73040        0.22410        7.23700
H          8.00090       -1.71610       -0.77160
H          7.93500        3.26000       -0.88900
H          8.04250        2.06550        1.25760
H          7.36160        3.98070       -3.37810
H          6.50120        4.08090       -5.67870
H          6.87380       -0.17690       -6.06740
H          6.31040        1.32590       -8.04120
H          1.28790        4.12590       -5.64080
H         -0.71390        4.19260       -7.11150
H         -0.64760        3.74970      -10.73130
H         -1.34930        2.49210       -9.72070
H         -1.64450        4.18590       -9.33150
H          1.58830        2.75450      -10.40630
