178

C          7.18360       -4.65070        0.58650
C          7.78770       -3.44710        0.43870
C          7.41590       -2.15770        1.09270
O          6.65830       -1.99140        2.02370
C          8.21890       -1.12260        0.42280
C          8.12190        0.25600        0.61110
C          8.95550        0.98480       -0.20200
C          9.83200        0.39300       -1.12400
C          9.95630       -0.96440       -1.29800
C          9.11140       -1.73000       -0.48510
C          8.95130       -3.17730       -0.40310
C          9.77070       -4.10000       -0.99410
C          9.65410       -5.50230       -0.88100
N          9.64240       -6.64990       -0.83860
C         10.89930       -3.77600       -1.77870
N         11.83250       -3.59220       -2.42100
C         10.34380        1.72580       -1.61380
C          9.80000        2.22500       -2.96920
C         10.07490        3.71260       -2.94690
C          9.23960        4.26740       -2.07740
C          8.38930        3.16180       -1.49420
C          8.28770        2.23430       -2.71150
C          9.36630        2.38320       -0.58740
C          5.92970       -4.95300        1.23490
C          4.87740       -4.02590        1.30760
C          3.70070       -4.40500        1.90140
C          2.47140       -3.59800        2.10460
O          2.28300       -2.44240        1.80040
C          1.52400       -4.54150        2.74900
C          2.13800       -5.80020        2.91150
C          3.50280       -5.70700        2.40950
C          4.52900       -6.63130        2.32240
C          5.72350       -6.24730        1.73230
C          1.39630       -6.84700        3.42790
C          0.06120       -6.64250        3.75290
C         -0.55590       -5.39790        3.59070
C          0.21610       -4.32960        3.09650
C         -1.96750       -5.15570        3.80100
C         -3.06210       -5.97090        3.59150
C         -3.05310       -7.43000        3.40660
C         -2.75800       -8.26960        4.47600
C         -2.80430       -9.64110        4.30610
C         -3.14580      -10.17900        3.07800
C         -3.45800       -9.35350        2.00510
C         -3.79540       -9.93620        0.66340
C         -2.52320      -10.14700       -0.16040
C         -3.41060       -7.97830        2.18230
C         -4.26010       -5.22580        3.51530
S         -5.88370       -5.62730        2.98570
C         -6.28340       -3.93440        2.97980
C         -7.25110       -3.06140        2.44550
C         -8.36010       -3.29990        1.60100
C         -8.88100       -2.21390        0.81090
N         -9.82850       -2.60890       -0.02340
S        -10.06190       -4.19950        0.17450
N         -8.94830       -4.45140        1.32360
C         -8.35270       -0.91530        0.98740
C         -8.49580        0.28380        0.25830
S         -9.09270        0.84410       -1.27500
C         -8.15960        2.32180       -1.09710
C         -7.75300        3.34220       -1.99430
C         -8.28000        3.53070       -3.34470
C         -8.45050        4.81900       -3.85200
C         -8.96620        4.99990       -5.11990
C         -9.31900        3.90700       -5.89360
C         -9.16230        2.61680       -5.40360
C         -9.50110        1.42500       -6.25210
C         -8.27880        0.97850       -7.05690
C         -8.64160        2.44090       -4.13050
C         -6.79390        4.15730       -1.42180
S         -6.48720        3.75840        0.26450
C         -7.53400        2.39730        0.14520
C         -7.71540        1.23910        0.90700
N         -7.10790        0.70390        2.01040
C         -7.42010       -0.64720        2.02760
C         -6.77540       -1.73790        2.66320
N         -5.56890       -1.80960        3.33220
C         -5.24910       -3.13040        3.46340
C         -4.09100       -3.86250        3.74510
S         -2.44210       -3.47710        4.05230
C         -4.55990       -0.80590        3.57280
C         -3.90070       -0.34110        2.27650
C         -6.70820        1.57950        3.09460
C         -7.40910        1.21690        4.39950
C         -5.75490        4.97090       -2.02190
C         -5.06110        5.89830       -1.22510
C         -3.82490        6.33290       -1.63490
C         -2.83090        7.15250       -0.88980
O         -2.99610        7.76960        0.13530
C         -1.57510        6.99340       -1.67060
C         -1.83740        6.24240       -2.83410
C         -3.24760        5.87240       -2.83510
C         -3.99360        5.08580       -3.69280
C         -5.24120        4.64180       -3.28080
C         -0.79600        5.86050       -3.65830
C          0.50210        6.16380       -3.27320
C          0.76710        6.89080       -2.11380
C         -0.29390        7.35720       -1.32640
C          2.13330        7.12780       -1.66630
C          3.01380        6.14540       -1.39270
C          2.66920        4.68990       -1.29610
O          1.70510        4.12540       -1.76000
C          3.73560        4.10480       -0.46560
C          3.82740        2.82140        0.05130
C          4.90840        2.50120        0.86200
O          5.14050        1.30410        1.42430
C          4.23690        0.23920        1.21160
C          5.88730        3.49600        1.16530
O          6.87610        3.08460        1.98630
C          7.83730        4.02280        2.41390
C          5.78940        4.77030        0.63040
C          4.71650        5.07200       -0.20100
C          4.36900        6.30530       -0.87630
C          5.19390        7.37570       -1.09100
C          4.81480        8.53030       -1.80730
N          4.56090        9.48770       -2.38700
C          6.54320        7.39790       -0.68370
N          7.65150        7.43390       -0.38550
H          7.66870       -5.51300        0.14550
H          7.43260        0.67720        1.32600
H         10.63800       -1.40580       -2.00570
H         11.41250        1.89400       -1.49680
H         10.15850        1.67470       -3.83480
H         10.85890        4.18440       -3.50920
H          9.18090        5.29420       -1.76630
H          7.45810        3.45950       -1.01910
H          7.73290        2.69040       -3.53000
H          7.86800        1.25460       -2.48930
H          9.79040        2.99100        0.20900
H          4.96300       -3.04210        0.87900
H          4.40670       -7.63670        2.69590
H          6.52980       -6.96320        1.65940
H          1.83550       -7.82330        3.56780
H         -0.51480       -7.47050        4.13300
H         -0.21960       -3.35360        2.94330
H         -2.51390       -7.84450        5.43950
H         -2.57760      -10.29260        5.13730
H         -3.18150      -11.25160        2.95270
H         -4.46620       -9.26310        0.12650
H         -4.30300      -10.89390        0.79320
H         -1.84660      -10.82560        0.35450
H         -2.00840       -9.20050       -0.31090
H         -2.76540      -10.56960       -1.13260
H         -3.65260       -7.32190        1.35880
H         -8.18730        5.67150       -3.24350
H         -9.09960        5.99950       -5.50650
H         -9.72540        4.05650       -6.88350
H         -9.83380        0.60250       -5.61630
H        -10.31130        1.67790       -6.93860
H         -7.46400        0.70840       -6.38870
H         -7.93750        1.78260       -7.70550
H         -8.52300        0.11590       -7.67240
H         -8.50450        1.43960       -3.75020
H         -4.98410        0.02660        4.13140
H         -3.80450       -1.27060        4.21170
H         -4.63310        0.07310        1.58820
H         -3.41170       -1.18160        1.78980
H         -3.15140        0.41580        2.49150
H         -5.62220        1.59330        3.21170
H         -7.00350        2.58950        2.79730
H         -7.09600        1.89800        5.18650
H         -8.48710        1.29760        4.27890
H         -7.17960        0.19880        4.70490
H         -5.45840        6.20740       -0.26890
H         -3.59360        4.75950       -4.64080
H         -5.79180        3.95670       -3.90750
H         -0.97620        5.29240       -4.55790
H          1.33010        5.83100       -3.88010
H         -0.10750        7.92190       -0.42480
H          2.40270        8.15840       -1.46570
H          3.05860        2.10130       -0.17730
H          3.24580        0.46060        1.61350
H          4.66040       -0.60760        1.74920
H          4.15120       -0.00400        0.14880
H          7.37690        4.82760        2.99480
H          8.52420        3.46620        3.04870
H          8.38520        4.45440        1.57140
H          6.52330        5.52160        0.86560
