186

C         -8.48500       -4.71770       -3.27160
C         -9.23580       -4.03850       -4.18640
C         -8.98640       -2.68260       -4.70470
O         -7.97240       -2.01870       -4.59200
C        -10.23620       -2.26790       -5.36460
C        -10.51040       -1.02670       -5.93490
C        -11.77800       -0.91770       -6.45390
C        -12.71150       -1.96220       -6.40060
C        -12.45330       -3.19340       -5.84620
C        -11.16470       -3.32980       -5.32350
C        -10.52730       -4.47560       -4.68290
C        -11.00230       -5.75950       -4.65710
C        -12.25640       -6.14930       -5.17120
N        -13.26570       -6.52480       -5.56910
C        -10.27220       -6.87780       -4.19590
N         -9.72810       -7.84500       -3.90090
C        -13.77400       -1.15500       -7.10280
C        -14.04190       -1.46520       -8.59610
C        -12.75970       -2.03540       -9.15010
C        -11.87160       -1.05200       -9.20790
C        -12.53710        0.20090       -8.69440
C        -13.97740       -0.04210       -9.17300
C        -12.73150        0.00540       -7.16990
C         -7.20000       -4.42720       -2.77520
S         -6.14060       -3.21280       -3.42990
C         -4.80190       -3.77180       -2.46750
C         -5.19310       -4.82070       -1.62100
C         -4.31610       -5.53030       -0.69840
O         -3.19150       -5.14280       -0.39270
C         -4.87680       -6.76620       -0.16700
C         -4.16710       -7.67720        0.57820
C         -2.73800       -7.60240        0.97650
C         -2.23730       -8.86000        1.67150
S         -5.17290       -9.00760        1.03710
C         -6.56210       -8.32600        0.26020
C         -7.85580       -9.05530        0.26160
C         -8.09490       -9.75650       -1.07990
C         -6.24590       -7.13760       -0.34830
C         -7.19200       -6.28230       -1.05910
O         -8.40100       -6.45000       -1.02810
C         -6.54390       -5.19030       -1.80460
C         -3.55400       -3.11440       -2.61380
C         -3.18930       -2.29940       -3.68990
C         -3.91900       -2.17430       -4.95530
C         -4.26040       -0.91610       -5.43690
C         -4.96920       -0.80140       -6.61830
C         -5.34490       -1.93210       -7.31870
C         -4.99250       -3.19720       -6.86270
C         -5.46520       -4.42910       -7.57960
C         -6.82520       -4.85960       -7.02380
C         -4.26440       -3.30570       -5.69010
C         -1.99630       -1.61720       -3.43910
S         -1.05700       -0.48990       -4.39540
C          0.06790       -0.36880       -3.08450
C          1.25510        0.30330       -2.76080
C          2.09140        1.13340       -3.53910
C          3.31350        1.61770       -2.96610
N          4.02380        2.33780       -3.81980
S          3.22010        2.40450       -5.22470
N          1.93530        1.51690       -4.79620
C          3.57930        1.35000       -1.60530
C          4.57820        1.84410       -0.75390
S          5.97370        2.86440       -0.82530
C          6.13960        2.71670        0.90820
C          7.02120        3.31230        1.82920
C          8.04900        4.27780        1.44660
C          8.24100        5.45250        2.17050
C          9.22830        6.34090        1.79250
C         10.01920        6.07880        0.68640
C          9.82560        4.92440       -0.06030
C         10.63220        4.65380       -1.29750
C          9.84560        5.06680       -2.54310
C          8.83770        4.03160        0.32920
C          6.71940        2.93040        3.12610
S          5.32350        1.86740        3.20880
C          5.15920        1.90850        1.49050
C          4.27280        1.39720        0.53440
N          3.15250        0.61180        0.50480
C          2.70130        0.56530       -0.80430
C          1.58870       -0.06360       -1.42420
N          0.65000       -0.97950       -0.97930
C         -0.26480       -1.16070       -1.98160
C         -1.44360       -1.88890       -2.18190
S         -2.35610       -3.07620       -1.32460
C          0.72200       -1.94210        0.09790
C          1.98580       -2.79310        0.00520
C          2.47010        0.29200        1.73790
C          1.17250        1.08280        1.88400
C          7.31480        3.34570        4.34950
S          6.29330        3.64020        5.71840
C          7.63560        4.25710        6.64720
C          8.82640        4.16490        5.91410
C         10.14470        4.58840        6.41990
O         10.37160        4.83950        7.59170
C         11.15760        4.67150        5.37060
C         12.35470        5.32890        5.50010
C         12.88020        6.08150        6.66710
C         13.64630        5.14730        7.60870
S         13.30100        5.16470        4.05990
C         12.09940        4.17850        3.29150
C         12.35580        3.60040        1.94900
C         13.19500        2.32460        2.06620
C         11.00610        4.02290        4.10240
C          9.78170        3.31100        3.73400
O          9.69890        2.53030        2.80240
C          8.65220        3.62920        4.62420
C          7.53860        4.88060        7.90350
C          6.47820        4.97010        8.76150
C          5.19350        4.25120        8.64130
O          4.79790        3.60140        7.68860
C          4.50760        4.47230        9.91320
C          5.30450        5.32840       10.74330
C          4.72610        5.57900       11.94700
S          3.20490        4.77010       12.07900
C          3.33490        4.07860       10.48080
C          2.27950        3.21210        9.91050
C          6.50460        5.69770       10.02070
C          7.42180        6.62400       10.44150
C          7.30000        7.23970       11.70420
N          7.20950        7.73920       12.73350
C          8.50480        7.12030        9.68730
N          9.37190        7.61490        9.11980
H         -8.92360       -5.60820       -2.83530
H         -9.76600       -0.24600       -5.94530
H        -13.18140       -3.98660       -5.80620
H        -14.69080       -0.98430       -6.54210
H        -14.94370       -2.04180       -8.78250
H        -12.61780       -3.07500       -9.38070
H        -10.83830       -1.10570       -9.49690
H        -12.06910        1.14160       -8.97240
H        -14.06940       -0.02320      -10.25790
H        -14.70260        0.63920       -8.73020
H        -12.96970        0.93680       -6.65990
H         -2.61070       -6.73240        1.62930
H         -2.14130       -7.39350        0.08310
H         -2.80220       -9.04450        2.58300
H         -1.18780       -8.75170        1.93250
H         -2.34390       -9.72550        1.02100
H         -8.66260       -8.33880        0.42810
H         -7.85590       -9.79150        1.06790
H         -7.26970      -10.42530       -1.31620
H         -8.19930       -9.02480       -1.87610
H         -9.01150      -10.33720       -1.03030
H         -3.98970       -0.03600       -4.87390
H         -5.23940        0.17690       -6.98710
H         -5.91730       -1.83710       -8.23040
H         -4.74780       -5.24090       -7.44540
H         -5.56000       -4.22760       -8.64830
H         -7.55030       -4.05590       -7.13810
H         -6.74450       -5.09450       -5.96430
H         -7.19340       -5.73940       -7.54670
H         -3.97450       -4.28230       -5.32620
H          7.60720        5.67500        3.01640
H          9.37850        7.24760        2.36040
H         10.78980        6.77970        0.39910
H         10.86730        3.58930       -1.35880
H         11.57030        5.21110       -1.26000
H          8.91120        4.51350       -2.60160
H         10.42530        4.86840       -3.44140
H          9.61220        6.12860       -2.50740
H          8.69840        3.11600       -0.22530
H         -0.15390       -2.58720       -0.00600
H          0.64210       -1.44670        1.06630
H          2.01450       -3.50240        0.82790
H          2.88180       -2.17750        0.03850
H          1.99050       -3.34790       -0.93000
H          3.15000        0.56480        2.54880
H          2.29680       -0.78200        1.81200
H          0.67390        0.80830        2.80960
H          0.49960        0.89410        1.05100
H          1.38930        2.14810        1.91080
H         13.54230        6.87820        6.32210
H         12.04370        6.51820        7.21650
H         12.97400        4.38780        7.99810
H         14.04790        5.71520        8.44290
H         14.46730        4.66230        7.08440
H         11.39870        3.35740        1.48630
H         12.88280        4.32850        1.32860
H         14.14480        2.53370        2.55460
H         13.39160        1.91870        1.07770
H         12.65640        1.58000        2.64660
H          8.46790        5.33900        8.22450
H          5.07790        6.17190       12.76720
H          2.11170        2.34170       10.54410
H          1.33740        3.75470        9.83480
H          2.58400        2.88360        8.91930
