
  xtb     02142220513D
 energy: -331.785884580198 gnorm: 0.000520490499 xtb: 6.4.1 (unknown)
195220  0     0  0            999 V2000
    9.1641    2.9099   -6.5363 C   0  0  0  0  0  0  0  0  0  0  0  0
   10.4597    3.3207   -6.3959 C   0  0  0  0  0  0  0  0  0  0  0  0
   11.3930    3.1055   -5.2647 C   0  0  0  0  0  0  0  0  0  0  0  0
   11.2662    2.3870   -4.2937 O   0  0  0  0  0  0  0  0  0  0  0  0
   12.5651    3.9565   -5.5410 C   0  0  0  0  0  0  0  0  0  0  0  0
   13.6768    4.1278   -4.7177 C   0  0  0  0  0  0  0  0  0  0  0  0
   14.6189    4.9903   -5.2226 C   0  0  0  0  0  0  0  0  0  0  0  0
   14.4634    5.6421   -6.4537 C   0  0  0  0  0  0  0  0  0  0  0  0
   13.3731    5.4821   -7.2744 C   0  0  0  0  0  0  0  0  0  0  0  0
   12.4056    4.5987   -6.7832 C   0  0  0  0  0  0  0  0  0  0  0  0
   11.1374    4.1700   -7.3660 C   0  0  0  0  0  0  0  0  0  0  0  0
   10.7150    4.4781   -8.6329 C   0  0  0  0  0  0  0  0  0  0  0  0
   11.4320    5.2911   -9.5367 C   0  0  0  0  0  0  0  0  0  0  0  0
   11.9513    5.9393  -10.3296 N   0  0  0  0  0  0  0  0  0  0  0  0
    9.5391    4.0169   -9.2642 C   0  0  0  0  0  0  0  0  0  0  0  0
    8.6239    3.6901   -9.8771 N   0  0  0  0  0  0  0  0  0  0  0  0
   15.7872    6.3551   -6.3346 C   0  0  0  0  0  0  0  0  0  0  0  0
   16.9513    5.7884   -7.1746 C   0  0  0  0  0  0  0  0  0  0  0  0
   18.1856    6.3527   -6.5091 C   0  0  0  0  0  0  0  0  0  0  0  0
   18.3346    5.7342   -5.3446 C   0  0  0  0  0  0  0  0  0  0  0  0
   17.2035    4.7413   -5.2036 C   0  0  0  0  0  0  0  0  0  0  0  0
   17.0200    4.3402   -6.6730 C   0  0  0  0  0  0  0  0  0  0  0  0
   15.9620    5.6266   -4.9634 C   0  0  0  0  0  0  0  0  0  0  0  0
    8.3329    2.1132   -5.7186 C   0  0  0  0  0  0  0  0  0  0  0  0
    8.5568    1.4246   -4.5509 C   0  0  0  0  0  0  0  0  0  0  0  0
    7.4267    0.7404   -4.0655 C   0  0  0  0  0  0  0  0  0  0  0  0
    7.3266   -0.0381   -2.8864 C   0  0  0  0  0  0  0  0  0  0  0  0
    8.3943   -0.1116   -1.9149 C   0  0  0  0  0  0  0  0  0  0  0  0
    8.7468   -1.1665   -1.1145 C   0  0  0  0  0  0  0  0  0  0  0  0
    9.7994   -0.8687   -0.2319 C   0  0  0  0  0  0  0  0  0  0  0  0
   10.2477    0.4146   -0.3348 C   0  0  0  0  0  0  0  0  0  0  0  0
   11.3064    1.0943    0.4628 C   0  0  0  0  0  0  0  0  0  0  0  0
   10.6942    1.9665    1.5616 C   0  0  0  0  0  0  0  0  0  0  0  0
    9.3731    1.2828   -1.5446 S   0  0  0  0  0  0  0  0  0  0  0  0
    6.1162   -0.6929   -2.6883 C   0  0  0  0  0  0  0  0  0  0  0  0
    4.9979   -0.5445   -3.5469 C   0  0  0  0  0  0  0  0  0  0  0  0
    5.0721    0.2908   -4.6788 C   0  0  0  0  0  0  0  0  0  0  0  0
    3.9125    0.5318   -5.5133 C   0  0  0  0  0  0  0  0  0  0  0  0
    2.6235    0.7617   -5.1198 C   0  0  0  0  0  0  0  0  0  0  0  0
    1.7418    0.9713   -6.1983 C   0  0  0  0  0  0  0  0  0  0  0  0
    2.3474    0.9006   -7.4152 C   0  0  0  0  0  0  0  0  0  0  0  0
    1.7388    1.0478   -8.7669 C   0  0  0  0  0  0  0  0  0  0  0  0
    1.8114   -0.2565   -9.5622 C   0  0  0  0  0  0  0  0  0  0  0  0
    4.0408    0.5753   -7.2492 S   0  0  0  0  0  0  0  0  0  0  0  0
    6.3050    0.8825   -4.9273 C   0  0  0  0  0  0  0  0  0  0  0  0
    6.6721    1.9115   -6.2749 S   0  0  0  0  0  0  0  0  0  0  0  0
    3.8893   -1.3039   -3.1051 C   0  0  0  0  0  0  0  0  0  0  0  0
    4.1194   -2.0001   -1.9539 C   0  0  0  0  0  0  0  0  0  0  0  0
    5.7441   -1.7497   -1.3488 S   0  0  0  0  0  0  0  0  0  0  0  0
    3.1693   -2.7720   -1.2230 C   0  0  0  0  0  0  0  0  0  0  0  0
    3.3793   -3.7278   -0.2489 C   0  0  0  0  0  0  0  0  0  0  0  0
    4.6818   -4.3128    0.0774 C   0  0  0  0  0  0  0  0  0  0  0  0
    5.1074   -4.4023    1.3980 C   0  0  0  0  0  0  0  0  0  0  0  0
    6.3320   -4.9752    1.6853 C   0  0  0  0  0  0  0  0  0  0  0  0
    7.1261   -5.4759    0.6686 C   0  0  0  0  0  0  0  0  0  0  0  0
    6.7036   -5.4179   -0.6539 C   0  0  0  0  0  0  0  0  0  0  0  0
    7.5605   -5.9524   -1.7660 C   0  0  0  0  0  0  0  0  0  0  0  0
    8.4199   -4.8414   -2.3717 C   0  0  0  0  0  0  0  0  0  0  0  0
    5.4823   -4.8274   -0.9376 C   0  0  0  0  0  0  0  0  0  0  0  0
    2.1659   -4.1283    0.3457 C   0  0  0  0  0  0  0  0  0  0  0  0
    1.7844   -5.2659    1.6161 S   0  0  0  0  0  0  0  0  0  0  0  0
    0.1076   -4.8678    1.4391 C   0  0  0  0  0  0  0  0  0  0  0  0
   -1.1378   -5.1999    2.0045 C   0  0  0  0  0  0  0  0  0  0  0  0
   -1.5174   -6.1608    2.9672 C   0  0  0  0  0  0  0  0  0  0  0  0
   -2.9082   -6.2992    3.3050 C   0  0  0  0  0  0  0  0  0  0  0  0
   -3.1204   -7.2690    4.1803 N   0  0  0  0  0  0  0  0  0  0  0  0
   -1.6981   -7.9470    4.5521 S   0  0  0  0  0  0  0  0  0  0  0  0
   -0.7534   -7.0287    3.6114 N   0  0  0  0  0  0  0  0  0  0  0  0
   -3.8382   -5.3815    2.7679 C   0  0  0  0  0  0  0  0  0  0  0  0
   -5.1817   -5.1186    3.0857 C   0  0  0  0  0  0  0  0  0  0  0  0
   -6.4260   -5.7313    4.1211 S   0  0  0  0  0  0  0  0  0  0  0  0
   -7.4397   -4.3839    3.6656 C   0  0  0  0  0  0  0  0  0  0  0  0
   -8.7425   -3.9910    4.0445 C   0  0  0  0  0  0  0  0  0  0  0  0
   -9.6317   -4.7676    4.9067 C   0  0  0  0  0  0  0  0  0  0  0  0
   -9.1456   -5.4002    6.0469 C   0  0  0  0  0  0  0  0  0  0  0  0
  -10.0095   -6.1098    6.8584 C   0  0  0  0  0  0  0  0  0  0  0  0
  -11.3560   -6.1921    6.5478 C   0  0  0  0  0  0  0  0  0  0  0  0
  -11.8551   -5.5811    5.4046 C   0  0  0  0  0  0  0  0  0  0  0  0
  -13.3196   -5.6186    5.0729 C   0  0  0  0  0  0  0  0  0  0  0  0
  -13.9866   -4.2967    5.4593 C   0  0  0  0  0  0  0  0  0  0  0  0
  -10.9814   -4.8819    4.5872 C   0  0  0  0  0  0  0  0  0  0  0  0
   -9.1056   -2.8143    3.4229 C   0  0  0  0  0  0  0  0  0  0  0  0
   -7.8759   -2.2159    2.3256 S   0  0  0  0  0  0  0  0  0  0  0  0
   -6.8353   -3.5301    2.7413 C   0  0  0  0  0  0  0  0  0  0  0  0
   -5.5444   -3.9558    2.4009 C   0  0  0  0  0  0  0  0  0  0  0  0
   -4.4930   -3.5123    1.6429 N   0  0  0  0  0  0  0  0  0  0  0  0
   -3.4361   -4.3797    1.8433 C   0  0  0  0  0  0  0  0  0  0  0  0
   -2.1060   -4.3875    1.3555 C   0  0  0  0  0  0  0  0  0  0  0  0
   -1.4771   -3.6303    0.3790 N   0  0  0  0  0  0  0  0  0  0  0  0
   -0.1366   -3.9173    0.4461 C   0  0  0  0  0  0  0  0  0  0  0  0
    1.0394   -3.4985   -0.1855 C   0  0  0  0  0  0  0  0  0  0  0  0
    1.4651   -2.3893   -1.4386 S   0  0  0  0  0  0  0  0  0  0  0  0
   -2.0234   -3.1743   -0.8812 C   0  0  0  0  0  0  0  0  0  0  0  0
   -1.8258   -4.2203   -1.9788 C   0  0  0  0  0  0  0  0  0  0  0  0
   -4.4990   -2.1736    1.0976 C   0  0  0  0  0  0  0  0  0  0  0  0
   -5.3685   -2.0654   -0.1554 C   0  0  0  0  0  0  0  0  0  0  0  0
  -10.2994   -2.0174    3.6001 C   0  0  0  0  0  0  0  0  0  0  0  0
  -10.8544   -1.7671    4.8632 C   0  0  0  0  0  0  0  0  0  0  0  0
  -10.2612   -2.2730    5.9583 F   0  0  0  0  0  0  0  0  0  0  0  0
  -11.9731   -0.9855    5.0392 C   0  0  0  0  0  0  0  0  0  0  0  0
  -12.6105   -0.4055    3.9397 C   0  0  0  0  0  0  0  0  0  0  0  0
  -12.0613   -0.6667    2.6775 C   0  0  0  0  0  0  0  0  0  0  0  0
  -12.6441   -0.1226    1.5914 F   0  0  0  0  0  0  0  0  0  0  0  0
  -10.9264   -1.4226    2.5022 C   0  0  0  0  0  0  0  0  0  0  0  0
  -13.8024    0.4031    4.0449 C   0  0  0  0  0  0  0  0  0  0  0  0
  -14.0628    1.3363    4.9881 C   0  0  0  0  0  0  0  0  0  0  0  0
  -13.0620    1.9391    5.9176 C   0  0  0  0  0  0  0  0  0  0  0  0
  -11.9571    1.5301    6.1935 O   0  0  0  0  0  0  0  0  0  0  0  0
  -13.6725    3.1979    6.3810 C   0  0  0  0  0  0  0  0  0  0  0  0
  -13.0720    4.1609    7.1901 C   0  0  0  0  0  0  0  0  0  0  0  0
  -13.8672    5.2507    7.4474 C   0  0  0  0  0  0  0  0  0  0  0  0
  -15.1675    5.3790    6.9368 C   0  0  0  0  0  0  0  0  0  0  0  0
  -15.7753    4.4353    6.1446 C   0  0  0  0  0  0  0  0  0  0  0  0
  -14.9823    3.3161    5.8708 C   0  0  0  0  0  0  0  0  0  0  0  0
  -15.2802    2.1326    5.0770 C   0  0  0  0  0  0  0  0  0  0  0  0
  -16.5019    1.7704    4.5812 C   0  0  0  0  0  0  0  0  0  0  0  0
  -16.7608    0.5435    3.9308 C   0  0  0  0  0  0  0  0  0  0  0  0
  -17.0447   -0.4478    3.4271 N   0  0  0  0  0  0  0  0  0  0  0  0
  -17.6739    2.5464    4.7050 C   0  0  0  0  0  0  0  0  0  0  0  0
  -18.6580    3.1333    4.7689 N   0  0  0  0  0  0  0  0  0  0  0  0
  -15.3686    6.7310    7.5728 C   0  0  0  0  0  0  0  0  0  0  0  0
  -15.2533    7.9786    6.6618 C   0  0  0  0  0  0  0  0  0  0  0  0
  -14.3414    7.5967    5.5222 C   0  0  0  0  0  0  0  0  0  0  0  0
  -13.1137    7.4747    6.0091 C   0  0  0  0  0  0  0  0  0  0  0  0
  -13.1732    7.7717    7.4873 C   0  0  0  0  0  0  0  0  0  0  0  0
  -14.2897    8.8278    7.5063 C   0  0  0  0  0  0  0  0  0  0  0  0
  -13.9231    6.5864    8.1448 C   0  0  0  0  0  0  0  0  0  0  0  0
    8.6493    3.2682   -7.4204 H   0  0  0  0  0  0  0  0  0  0  0  0
   13.7496    3.6112   -3.7734 H   0  0  0  0  0  0  0  0  0  0  0  0
   13.2673    5.9985   -8.2133 H   0  0  0  0  0  0  0  0  0  0  0  0
   15.7439    7.4425   -6.3455 H   0  0  0  0  0  0  0  0  0  0  0  0
   16.8572    5.9443   -8.2457 H   0  0  0  0  0  0  0  0  0  0  0  0
   18.7720    7.1560   -6.9150 H   0  0  0  0  0  0  0  0  0  0  0  0
   19.0702    5.9179   -4.5835 H   0  0  0  0  0  0  0  0  0  0  0  0
   17.3407    3.9428   -4.4793 H   0  0  0  0  0  0  0  0  0  0  0  0
   16.1193    3.7604   -6.8660 H   0  0  0  0  0  0  0  0  0  0  0  0
   17.8857    3.8094   -7.0658 H   0  0  0  0  0  0  0  0  0  0  0  0
   16.0368    6.2284   -4.0594 H   0  0  0  0  0  0  0  0  0  0  0  0
    9.5221    1.4077   -4.0814 H   0  0  0  0  0  0  0  0  0  0  0  0
    8.2932   -2.1381   -1.1786 H   0  0  0  0  0  0  0  0  0  0  0  0
   10.2133   -1.5839    0.4570 H   0  0  0  0  0  0  0  0  0  0  0  0
   11.9522    0.3371    0.9129 H   0  0  0  0  0  0  0  0  0  0  0  0
   11.9137    1.7198   -0.1951 H   0  0  0  0  0  0  0  0  0  0  0  0
   10.0901    1.3601    2.2328 H   0  0  0  0  0  0  0  0  0  0  0  0
   11.4773    2.4512    2.1393 H   0  0  0  0  0  0  0  0  0  0  0  0
   10.0594    2.7331    1.1231 H   0  0  0  0  0  0  0  0  0  0  0  0
    2.3243    0.8241   -4.0886 H   0  0  0  0  0  0  0  0  0  0  0  0
    0.6928    1.1751   -6.0727 H   0  0  0  0  0  0  0  0  0  0  0  0
    0.6968    1.3536   -8.6496 H   0  0  0  0  0  0  0  0  0  0  0  0
    2.2640    1.8310   -9.3200 H   0  0  0  0  0  0  0  0  0  0  0  0
    2.8482   -0.5548   -9.6992 H   0  0  0  0  0  0  0  0  0  0  0  0
    1.3542   -0.1279  -10.5400 H   0  0  0  0  0  0  0  0  0  0  0  0
    1.2891   -1.0520   -9.0351 H   0  0  0  0  0  0  0  0  0  0  0  0
    2.9562   -1.3587   -3.6362 H   0  0  0  0  0  0  0  0  0  0  0  0
    4.4850   -4.0132    2.1896 H   0  0  0  0  0  0  0  0  0  0  0  0
    6.6671   -5.0362    2.7102 H   0  0  0  0  0  0  0  0  0  0  0  0
    8.0793   -5.9277    0.9034 H   0  0  0  0  0  0  0  0  0  0  0  0
    6.9253   -6.3781   -2.5457 H   0  0  0  0  0  0  0  0  0  0  0  0
    8.2100   -6.7430   -1.3853 H   0  0  0  0  0  0  0  0  0  0  0  0
    9.0253   -5.2300   -3.1873 H   0  0  0  0  0  0  0  0  0  0  0  0
    7.7901   -4.0435   -2.7602 H   0  0  0  0  0  0  0  0  0  0  0  0
    9.0844   -4.4236   -1.6185 H   0  0  0  0  0  0  0  0  0  0  0  0
    5.1352   -4.7800   -1.9607 H   0  0  0  0  0  0  0  0  0  0  0  0
   -8.1015   -5.3151    6.3054 H   0  0  0  0  0  0  0  0  0  0  0  0
   -9.6317   -6.5952    7.7460 H   0  0  0  0  0  0  0  0  0  0  0  0
  -12.0258   -6.7389    7.1959 H   0  0  0  0  0  0  0  0  0  0  0  0
  -13.4522   -5.7864    4.0017 H   0  0  0  0  0  0  0  0  0  0  0  0
  -13.8017   -6.4376    5.6092 H   0  0  0  0  0  0  0  0  0  0  0  0
  -15.0498   -4.3250    5.2332 H   0  0  0  0  0  0  0  0  0  0  0  0
  -13.5390   -3.4693    4.9117 H   0  0  0  0  0  0  0  0  0  0  0  0
  -13.8611   -4.1087    6.5234 H   0  0  0  0  0  0  0  0  0  0  0  0
  -11.3555   -4.4249    3.6812 H   0  0  0  0  0  0  0  0  0  0  0  0
   -1.5126   -2.2462   -1.1569 H   0  0  0  0  0  0  0  0  0  0  0  0
   -3.0844   -2.9840   -0.7721 H   0  0  0  0  0  0  0  0  0  0  0  0
   -2.3024   -5.1565   -1.6954 H   0  0  0  0  0  0  0  0  0  0  0  0
   -0.7695   -4.4070   -2.1519 H   0  0  0  0  0  0  0  0  0  0  0  0
   -2.2701   -3.8666   -2.9051 H   0  0  0  0  0  0  0  0  0  0  0  0
   -4.9099   -1.5038    1.8621 H   0  0  0  0  0  0  0  0  0  0  0  0
   -3.4709   -1.8640    0.9073 H   0  0  0  0  0  0  0  0  0  0  0  0
   -6.4145   -2.2051    0.1028 H   0  0  0  0  0  0  0  0  0  0  0  0
   -5.1052   -2.8181   -0.8954 H   0  0  0  0  0  0  0  0  0  0  0  0
   -5.2528   -1.0803   -0.5986 H   0  0  0  0  0  0  0  0  0  0  0  0
  -12.3523   -0.8358    6.0358 H   0  0  0  0  0  0  0  0  0  0  0  0
  -10.5328   -1.5699    1.5081 H   0  0  0  0  0  0  0  0  0  0  0  0
  -14.5103    0.2733    3.2339 H   0  0  0  0  0  0  0  0  0  0  0  0
  -12.0680    4.0240    7.5603 H   0  0  0  0  0  0  0  0  0  0  0  0
  -16.7733    4.5470    5.7542 H   0  0  0  0  0  0  0  0  0  0  0  0
  -16.1927    6.8081    8.2790 H   0  0  0  0  0  0  0  0  0  0  0  0
  -16.2049    8.4248    6.3861 H   0  0  0  0  0  0  0  0  0  0  0  0
  -14.6815    7.4055    4.5213 H   0  0  0  0  0  0  0  0  0  0  0  0
  -12.2233    7.1608    5.4964 H   0  0  0  0  0  0  0  0  0  0  0  0
  -12.2311    8.0300    7.9636 H   0  0  0  0  0  0  0  0  0  0  0  0
  -14.0012    9.7539    7.0115 H   0  0  0  0  0  0  0  0  0  0  0  0
  -14.6645    9.0456    8.5053 H   0  0  0  0  0  0  0  0  0  0  0  0
  -13.8021    6.5664    9.2260 H   0  0  0  0  0  0  0  0  0  0  0  0
  1  2  2  0  0  0  0
  2  3  1  0  0  0  0
  3  4  2  0  0  0  0
  3  5  1  0  0  0  0
  5  6  2  0  0  0  0
  6  7  1  0  0  0  0
  7  8  2  0  0  0  0
  8  9  1  0  0  0  0
  9 10  2  0  0  0  0
 10 11  1  0  0  0  0
 11 12  2  0  0  0  0
 12 13  1  0  0  0  0
 13 14  3  0  0  0  0
 12 15  1  0  0  0  0
 15 16  3  0  0  0  0
  8 17  1  0  0  0  0
 17 18  1  0  0  0  0
 18 19  1  0  0  0  0
 19 20  2  0  0  0  0
 20 21  1  0  0  0  0
 21 22  1  0  0  0  0
 21 23  1  0  0  0  0
  1 24  1  0  0  0  0
 24 25  2  0  0  0  0
 25 26  1  0  0  0  0
 26 27  2  0  0  0  0
 27 28  1  0  0  0  0
 28 29  2  0  0  0  0
 29 30  1  0  0  0  0
 30 31  2  0  0  0  0
 31 32  1  0  0  0  0
 32 33  1  0  0  0  0
 31 34  1  0  0  0  0
 27 35  1  0  0  0  0
 35 36  2  0  0  0  0
 36 37  1  0  0  0  0
 37 38  1  0  0  0  0
 38 39  2  0  0  0  0
 39 40  1  0  0  0  0
 40 41  2  0  0  0  0
 41 42  1  0  0  0  0
 42 43  1  0  0  0  0
 41 44  1  0  0  0  0
 37 45  2  0  0  0  0
 45 46  1  0  0  0  0
 36 47  1  0  0  0  0
 47 48  2  0  0  0  0
 48 49  1  0  0  0  0
 48 50  1  0  0  0  0
 50 51  2  0  0  0  0
 51 52  1  0  0  0  0
 52 53  2  0  0  0  0
 53 54  1  0  0  0  0
 54 55  2  0  0  0  0
 55 56  1  0  0  0  0
 56 57  1  0  0  0  0
 57 58  1  0  0  0  0
 56 59  2  0  0  0  0
 51 60  1  0  0  0  0
 60 61  1  0  0  0  0
 61 62  1  0  0  0  0
 62 63  1  0  0  0  0
 63 64  1  0  0  0  0
 64 65  1  0  0  0  0
 65 66  2  0  0  0  0
 66 67  1  0  0  0  0
 67 68  1  0  0  0  0
 65 69  1  0  0  0  0
 69 70  1  0  0  0  0
 70 71  1  0  0  0  0
 71 72  1  0  0  0  0
 72 73  1  0  0  0  0
 73 74  1  0  0  0  0
 74 75  2  0  0  0  0
 75 76  1  0  0  0  0
 76 77  2  0  0  0  0
 77 78  1  0  0  0  0
 78 79  1  0  0  0  0
 79 80  1  0  0  0  0
 78 81  2  0  0  0  0
 73 82  2  0  0  0  0
 82 83  1  0  0  0  0
 83 84  1  0  0  0  0
 84 85  1  0  0  0  0
 85 86  1  0  0  0  0
 86 87  1  0  0  0  0
 87 88  1  0  0  0  0
 88 89  1  0  0  0  0
 89 90  1  0  0  0  0
 90 91  1  0  0  0  0
 91 92  1  0  0  0  0
 89 93  1  0  0  0  0
 93 94  1  0  0  0  0
 86 95  1  0  0  0  0
 95 96  1  0  0  0  0
 82 97  1  0  0  0  0
 97 98  2  0  0  0  0
 98 99  1  0  0  0  0
 98100  1  0  0  0  0
100101  2  0  0  0  0
101102  1  0  0  0  0
102103  1  0  0  0  0
102104  2  0  0  0  0
101105  1  0  0  0  0
105106  2  0  0  0  0
106107  1  0  0  0  0
107108  2  0  0  0  0
107109  1  0  0  0  0
109110  2  0  0  0  0
110111  1  0  0  0  0
111112  2  0  0  0  0
112113  1  0  0  0  0
113114  2  0  0  0  0
114115  1  0  0  0  0
115116  2  0  0  0  0
116117  1  0  0  0  0
117118  3  0  0  0  0
116119  1  0  0  0  0
119120  3  0  0  0  0
112121  1  0  0  0  0
121122  1  0  0  0  0
122123  1  0  0  0  0
123124  2  0  0  0  0
124125  1  0  0  0  0
125126  1  0  0  0  0
125127  1  0  0  0  0
 11  2  1  0  0  0  0
 23 17  1  0  0  0  0
 46 24  1  0  0  0  0
 92 50  1  0  0  0  0
104 97  1  0  0  0  0
115106  1  0  0  0  0
127121  1  0  0  0  0
 10  5  1  0  0  0  0
 22 18  1  0  0  0  0
 45 26  1  0  0  0  0
 59 52  1  0  0  0  0
 91 60  2  0  0  0  0
114109  1  0  0  0  0
126122  1  0  0  0  0
 23  7  1  0  0  0  0
 34 28  1  0  0  0  0
 49 35  1  0  0  0  0
 90 62  2  0  0  0  0
127111  1  0  0  0  0
 44 38  1  0  0  0  0
 88 63  2  0  0  0  0
 68 64  2  0  0  0  0
 87 69  2  0  0  0  0
 85 70  2  0  0  0  0
 84 72  2  0  0  0  0
 81 74  1  0  0  0  0
  1128  1  0  0  0  0
  6129  1  0  0  0  0
  9130  1  0  0  0  0
 17131  1  0  0  0  0
 18132  1  0  0  0  0
 19133  1  0  0  0  0
 20134  1  0  0  0  0
 21135  1  0  0  0  0
 22136  1  0  0  0  0
 22137  1  0  0  0  0
 23138  1  0  0  0  0
 25139  1  0  0  0  0
 29140  1  0  0  0  0
 30141  1  0  0  0  0
 32142  1  0  0  0  0
 32143  1  0  0  0  0
 33144  1  0  0  0  0
 33145  1  0  0  0  0
 33146  1  0  0  0  0
 39147  1  0  0  0  0
 40148  1  0  0  0  0
 42149  1  0  0  0  0
 42150  1  0  0  0  0
 43151  1  0  0  0  0
 43152  1  0  0  0  0
 43153  1  0  0  0  0
 47154  1  0  0  0  0
 53155  1  0  0  0  0
 54156  1  0  0  0  0
 55157  1  0  0  0  0
 57158  1  0  0  0  0
 57159  1  0  0  0  0
 58160  1  0  0  0  0
 58161  1  0  0  0  0
 58162  1  0  0  0  0
 59163  1  0  0  0  0
 75164  1  0  0  0  0
 76165  1  0  0  0  0
 77166  1  0  0  0  0
 79167  1  0  0  0  0
 79168  1  0  0  0  0
 80169  1  0  0  0  0
 80170  1  0  0  0  0
 80171  1  0  0  0  0
 81172  1  0  0  0  0
 93173  1  0  0  0  0
 93174  1  0  0  0  0
 94175  1  0  0  0  0
 94176  1  0  0  0  0
 94177  1  0  0  0  0
 95178  1  0  0  0  0
 95179  1  0  0  0  0
 96180  1  0  0  0  0
 96181  1  0  0  0  0
 96182  1  0  0  0  0
100183  1  0  0  0  0
104184  1  0  0  0  0
105185  1  0  0  0  0
110186  1  0  0  0  0
113187  1  0  0  0  0
121188  1  0  0  0  0
122189  1  0  0  0  0
123190  1  0  0  0  0
124191  1  0  0  0  0
125192  1  0  0  0  0
126193  1  0  0  0  0
126194  1  0  0  0  0
127195  1  0  0  0  0
M  END
