
  xtb     02232202163D
 energy: -350.449817404378 gnorm: 0.000763429615 xtb: 6.4.1 (unknown)
211236  0     0  0            999 V2000
   -3.5110   -2.4392  -12.2647 C   0  0  0  0  0  0  0  0  0  0  0  0
   -4.3731   -3.4191  -11.8933 C   0  0  0  0  0  0  0  0  0  0  0  0
   -4.6398   -3.8303  -10.4886 C   0  0  0  0  0  0  0  0  0  0  0  0
   -4.1542   -3.3803   -9.4737 O   0  0  0  0  0  0  0  0  0  0  0  0
   -5.5394   -4.9958  -10.5784 C   0  0  0  0  0  0  0  0  0  0  0  0
   -6.0731   -5.7171   -9.5127 C   0  0  0  0  0  0  0  0  0  0  0  0
   -6.8773   -6.7645   -9.8908 C   0  0  0  0  0  0  0  0  0  0  0  0
   -7.1282   -7.0776  -11.2338 C   0  0  0  0  0  0  0  0  0  0  0  0
   -6.6051   -6.3780  -12.2943 C   0  0  0  0  0  0  0  0  0  0  0  0
   -5.7843   -5.3048  -11.9311 C   0  0  0  0  0  0  0  0  0  0  0  0
   -5.0675   -4.3476  -12.7685 C   0  0  0  0  0  0  0  0  0  0  0  0
   -5.0960   -4.3095  -14.1382 C   0  0  0  0  0  0  0  0  0  0  0  0
   -4.4391   -3.3562  -14.9445 C   0  0  0  0  0  0  0  0  0  0  0  0
   -3.9434   -2.6256  -15.6796 N   0  0  0  0  0  0  0  0  0  0  0  0
   -5.7944   -5.2259  -14.9520 C   0  0  0  0  0  0  0  0  0  0  0  0
   -6.3346   -5.9316  -15.6793 N   0  0  0  0  0  0  0  0  0  0  0  0
   -8.0056   -8.2519  -10.8787 C   0  0  0  0  0  0  0  0  0  0  0  0
   -7.4020   -9.6714  -11.0170 C   0  0  0  0  0  0  0  0  0  0  0  0
   -5.9104   -9.5219  -10.8485 C   0  0  0  0  0  0  0  0  0  0  0  0
   -5.6741   -9.2250   -9.5777 C   0  0  0  0  0  0  0  0  0  0  0  0
   -7.0020   -9.1682   -8.8637 C   0  0  0  0  0  0  0  0  0  0  0  0
   -7.7736  -10.2467   -9.6409 C   0  0  0  0  0  0  0  0  0  0  0  0
   -7.7275   -7.9020   -9.3828 C   0  0  0  0  0  0  0  0  0  0  0  0
   -2.9322   -1.4478  -11.3960 C   0  0  0  0  0  0  0  0  0  0  0  0
   -1.5860   -1.1105  -11.5738 C   0  0  0  0  0  0  0  0  0  0  0  0
   -0.9332   -0.2276  -10.7351 C   0  0  0  0  0  0  0  0  0  0  0  0
    0.3910    0.0595  -10.7932 O   0  0  0  0  0  0  0  0  0  0  0  0
    1.1732   -0.5239  -11.8168 C   0  0  0  0  0  0  0  0  0  0  0  0
    2.6020   -0.0350  -11.6448 C   0  0  0  0  0  0  0  0  0  0  0  0
   -1.6747    0.3911   -9.7038 C   0  0  0  0  0  0  0  0  0  0  0  0
   -3.0285    0.1009   -9.5629 C   0  0  0  0  0  0  0  0  0  0  0  0
   -3.6840   -0.7926  -10.3961 C   0  0  0  0  0  0  0  0  0  0  0  0
   -5.0118   -1.0373  -10.3798 O   0  0  0  0  0  0  0  0  0  0  0  0
   -5.8327   -0.4603   -9.3838 C   0  0  0  0  0  0  0  0  0  0  0  0
   -6.2344    0.9751   -9.7120 C   0  0  0  0  0  0  0  0  0  0  0  0
   -1.0495    1.2913   -8.7559 C   0  0  0  0  0  0  0  0  0  0  0  0
   -0.1223    2.2914   -8.9459 C   0  0  0  0  0  0  0  0  0  0  0  0
    0.3351    2.7818  -10.2444 C   0  0  0  0  0  0  0  0  0  0  0  0
   -0.5415    2.8764  -11.3231 C   0  0  0  0  0  0  0  0  0  0  0  0
   -0.0942    3.3631  -12.5354 C   0  0  0  0  0  0  0  0  0  0  0  0
    1.2200    3.7736  -12.6841 C   0  0  0  0  0  0  0  0  0  0  0  0
    2.1049    3.6979  -11.6168 C   0  0  0  0  0  0  0  0  0  0  0  0
    3.5193    4.1876  -11.7430 C   0  0  0  0  0  0  0  0  0  0  0  0
    3.6382    5.6069  -11.1844 C   0  0  0  0  0  0  0  0  0  0  0  0
    1.6510    3.2006  -10.4038 C   0  0  0  0  0  0  0  0  0  0  0  0
    0.2737    2.8632   -7.7126 C   0  0  0  0  0  0  0  0  0  0  0  0
    1.3950    4.1393   -7.2958 S   0  0  0  0  0  0  0  0  0  0  0  0
    1.0077    3.9101   -5.6237 C   0  0  0  0  0  0  0  0  0  0  0  0
    1.4118    4.3729   -4.3605 C   0  0  0  0  0  0  0  0  0  0  0  0
    2.4395    5.2658   -3.9879 C   0  0  0  0  0  0  0  0  0  0  0  0
    2.7596    5.4118   -2.5968 C   0  0  0  0  0  0  0  0  0  0  0  0
    3.7851    6.2245   -2.3953 N   0  0  0  0  0  0  0  0  0  0  0  0
    4.2986    6.7666   -3.8327 S   0  0  0  0  0  0  0  0  0  0  0  0
    3.2356    5.9801   -4.7680 N   0  0  0  0  0  0  0  0  0  0  0  0
    1.9687    4.7396   -1.6403 C   0  0  0  0  0  0  0  0  0  0  0  0
    2.0226    4.7331   -0.2370 C   0  0  0  0  0  0  0  0  0  0  0  0
    3.0245    5.3307    1.0432 S   0  0  0  0  0  0  0  0  0  0  0  0
    1.9888    4.5217    2.1948 C   0  0  0  0  0  0  0  0  0  0  0  0
    2.0539    4.3784    3.5930 C   0  0  0  0  0  0  0  0  0  0  0  0
    3.0969    4.9933    4.4206 C   0  0  0  0  0  0  0  0  0  0  0  0
    2.7636    5.8367    5.4775 C   0  0  0  0  0  0  0  0  0  0  0  0
    3.7631    6.4036    6.2443 C   0  0  0  0  0  0  0  0  0  0  0  0
    5.0932    6.1457    5.9588 C   0  0  0  0  0  0  0  0  0  0  0  0
    5.4420    5.3216    4.8968 C   0  0  0  0  0  0  0  0  0  0  0  0
    6.8795    5.0936    4.5278 C   0  0  0  0  0  0  0  0  0  0  0  0
    7.2833    6.0267    3.3842 C   0  0  0  0  0  0  0  0  0  0  0  0
    4.4340    4.7518    4.1328 C   0  0  0  0  0  0  0  0  0  0  0  0
    1.0291    3.5807    4.0668 C   0  0  0  0  0  0  0  0  0  0  0  0
   -0.0550    3.0501    2.7849 S   0  0  0  0  0  0  0  0  0  0  0  0
    0.9137    3.8571    1.6020 C   0  0  0  0  0  0  0  0  0  0  0  0
    0.9389    3.9732    0.2071 C   0  0  0  0  0  0  0  0  0  0  0  0
    0.2282    3.4940   -0.8609 N   0  0  0  0  0  0  0  0  0  0  0  0
    0.8591    3.9312   -2.0160 C   0  0  0  0  0  0  0  0  0  0  0  0
    0.6481    3.6598   -3.3940 C   0  0  0  0  0  0  0  0  0  0  0  0
   -0.1813    2.7746   -4.0649 N   0  0  0  0  0  0  0  0  0  0  0  0
    0.0526    2.9177   -5.4054 C   0  0  0  0  0  0  0  0  0  0  0  0
   -0.3666    2.3184   -6.6022 C   0  0  0  0  0  0  0  0  0  0  0  0
   -1.4749    1.0777   -7.0666 S   0  0  0  0  0  0  0  0  0  0  0  0
   -0.8730    1.5998   -3.5861 C   0  0  0  0  0  0  0  0  0  0  0  0
    0.0869    0.6121   -2.9271 C   0  0  0  0  0  0  0  0  0  0  0  0
   -1.1274    3.0315   -0.6592 C   0  0  0  0  0  0  0  0  0  0  0  0
   -2.1444    3.9930   -1.2684 C   0  0  0  0  0  0  0  0  0  0  0  0
    0.8678    3.0171    5.3618 C   0  0  0  0  0  0  0  0  0  0  0  0
   -0.1560    2.2280    5.8071 C   0  0  0  0  0  0  0  0  0  0  0  0
    0.0696    1.6609    7.0841 C   0  0  0  0  0  0  0  0  0  0  0  0
   -0.7712    0.7850    7.8054 C   0  0  0  0  0  0  0  0  0  0  0  0
   -2.1353    0.5289    7.4028 C   0  0  0  0  0  0  0  0  0  0  0  0
   -2.8484   -0.6325    7.5099 C   0  0  0  0  0  0  0  0  0  0  0  0
   -4.2068   -0.5633    7.1442 C   0  0  0  0  0  0  0  0  0  0  0  0
   -4.6400    0.6681    6.7464 C   0  0  0  0  0  0  0  0  0  0  0  0
   -6.2522    0.9894    6.1517 S   0  0  0  0  0  0  0  0  0  0  0  0
   -6.4009    2.7816    6.4795 C   0  0  0  0  0  0  0  0  0  0  0  0
   -6.5054    3.0850    7.9598 C   0  0  0  0  0  0  0  0  0  0  0  0
   -3.2362    1.9252    6.7616 Se  0  0  0  0  0  2  0  0  0  0  0  0
   -0.2084    0.2016    8.9386 C   0  0  0  0  0  0  0  0  0  0  0  0
    1.0902    0.5201    9.4232 C   0  0  0  0  0  0  0  0  0  0  0  0
    1.8580    1.5374    8.7959 C   0  0  0  0  0  0  0  0  0  0  0  0
    3.0871    2.0267    9.3573 C   0  0  0  0  0  0  0  0  0  0  0  0
    3.4468    2.0661   10.6833 C   0  0  0  0  0  0  0  0  0  0  0  0
    4.7149    2.5917   10.9711 C   0  0  0  0  0  0  0  0  0  0  0  0
    5.4325    3.0044    9.8801 C   0  0  0  0  0  0  0  0  0  0  0  0
    7.0064    3.7509    9.9929 S   0  0  0  0  0  0  0  0  0  0  0  0
    7.4656    3.9249    8.2333 C   0  0  0  0  0  0  0  0  0  0  0  0
    7.9285    2.6159    7.6267 C   0  0  0  0  0  0  0  0  0  0  0  0
    4.4561    2.7696    8.2881 Se  0  0  0  0  0  2  0  0  0  0  0  0
    1.3352    2.0224    7.6012 C   0  0  0  0  0  0  0  0  0  0  0  0
    2.1560    3.1346    6.5432 S   0  0  0  0  0  0  0  0  0  0  0  0
    1.4730   -0.3009   10.4985 C   0  0  0  0  0  0  0  0  0  0  0  0
    0.5051   -1.1912   10.8958 C   0  0  0  0  0  0  0  0  0  0  0  0
   -0.9601   -1.0096    9.9322 S   0  0  0  0  0  0  0  0  0  0  0  0
    0.4856   -2.1944   11.8896 C   0  0  0  0  0  0  0  0  0  0  0  0
    1.4958   -2.7448   12.6264 C   0  0  0  0  0  0  0  0  0  0  0  0
    2.9583   -2.5302   12.5109 C   0  0  0  0  0  0  0  0  0  0  0  0
    3.5571   -1.6278   11.9614 O   0  0  0  0  0  0  0  0  0  0  0  0
    3.5846   -3.6621   13.2193 C   0  0  0  0  0  0  0  0  0  0  0  0
    4.9449   -3.9568   13.2743 C   0  0  0  0  0  0  0  0  0  0  0  0
    5.2417   -5.0938   13.9857 C   0  0  0  0  0  0  0  0  0  0  0  0
    4.2576   -5.8834   14.5965 C   0  0  0  0  0  0  0  0  0  0  0  0
    2.9133   -5.6009   14.5544 C   0  0  0  0  0  0  0  0  0  0  0  0
    2.5907   -4.4438   13.8392 C   0  0  0  0  0  0  0  0  0  0  0  0
    1.2930   -3.8323   13.5724 C   0  0  0  0  0  0  0  0  0  0  0  0
    0.1134   -4.1792   14.1762 C   0  0  0  0  0  0  0  0  0  0  0  0
   -0.0201   -5.2225   15.1164 C   0  0  0  0  0  0  0  0  0  0  0  0
   -0.2030   -6.0583   15.8820 N   0  0  0  0  0  0  0  0  0  0  0  0
   -1.1218   -3.5176   14.0040 C   0  0  0  0  0  0  0  0  0  0  0  0
   -2.1574   -3.0247   13.9445 N   0  0  0  0  0  0  0  0  0  0  0  0
    5.2670   -6.8687   15.1303 C   0  0  0  0  0  0  0  0  0  0  0  0
    5.6355   -6.7813   16.6318 C   0  0  0  0  0  0  0  0  0  0  0  0
    5.3972   -5.3511   17.0486 C   0  0  0  0  0  0  0  0  0  0  0  0
    6.3280   -4.6015   16.4734 C   0  0  0  0  0  0  0  0  0  0  0  0
    7.2125   -5.5113   15.6571 C   0  0  0  0  0  0  0  0  0  0  0  0
    7.1688   -6.7802   16.5233 C   0  0  0  0  0  0  0  0  0  0  0  0
    6.3632   -5.9873   14.4526 C   0  0  0  0  0  0  0  0  0  0  0  0
   -3.1749   -2.4030  -13.2938 H   0  0  0  0  0  0  0  0  0  0  0  0
   -5.8522   -5.4412   -8.4933 H   0  0  0  0  0  0  0  0  0  0  0  0
   -6.8059   -6.6349  -13.3209 H   0  0  0  0  0  0  0  0  0  0  0  0
   -9.0339   -8.2027  -11.2314 H   0  0  0  0  0  0  0  0  0  0  0  0
   -7.7333  -10.2188  -11.8953 H   0  0  0  0  0  0  0  0  0  0  0  0
   -5.2070   -9.5885  -11.6578 H   0  0  0  0  0  0  0  0  0  0  0  0
   -4.7336   -8.9935   -9.1128 H   0  0  0  0  0  0  0  0  0  0  0  0
   -6.9694   -9.2583   -7.7810 H   0  0  0  0  0  0  0  0  0  0  0  0
   -8.8446  -10.2415   -9.4431 H   0  0  0  0  0  0  0  0  0  0  0  0
   -7.3748  -11.2473   -9.4811 H   0  0  0  0  0  0  0  0  0  0  0  0
   -8.5746   -7.6240   -8.7586 H   0  0  0  0  0  0  0  0  0  0  0  0
   -1.0479   -1.6171  -12.3593 H   0  0  0  0  0  0  0  0  0  0  0  0
    1.1367   -1.6197  -11.7393 H   0  0  0  0  0  0  0  0  0  0  0  0
    0.7860   -0.2241  -12.8001 H   0  0  0  0  0  0  0  0  0  0  0  0
    3.2391   -0.4912  -12.3969 H   0  0  0  0  0  0  0  0  0  0  0  0
    2.6374    1.0455  -11.7493 H   0  0  0  0  0  0  0  0  0  0  0  0
    2.9670   -0.3016  -10.6568 H   0  0  0  0  0  0  0  0  0  0  0  0
   -3.5613    0.6016   -8.7697 H   0  0  0  0  0  0  0  0  0  0  0  0
   -6.7229   -1.0964   -9.3675 H   0  0  0  0  0  0  0  0  0  0  0  0
   -5.3483   -0.5250   -8.4033 H   0  0  0  0  0  0  0  0  0  0  0  0
   -6.9145    1.3463   -8.9503 H   0  0  0  0  0  0  0  0  0  0  0  0
   -6.7348    1.0049  -10.6766 H   0  0  0  0  0  0  0  0  0  0  0  0
   -5.3658    1.6269   -9.7573 H   0  0  0  0  0  0  0  0  0  0  0  0
   -1.5721    2.5749  -11.2060 H   0  0  0  0  0  0  0  0  0  0  0  0
   -0.7763    3.4293  -13.3708 H   0  0  0  0  0  0  0  0  0  0  0  0
    1.5605    4.1562  -13.6358 H   0  0  0  0  0  0  0  0  0  0  0  0
    4.1909    3.5280  -11.1888 H   0  0  0  0  0  0  0  0  0  0  0  0
    3.8234    4.1832  -12.7917 H   0  0  0  0  0  0  0  0  0  0  0  0
    4.6605    5.9667  -11.2737 H   0  0  0  0  0  0  0  0  0  0  0  0
    2.9828    6.2828  -11.7292 H   0  0  0  0  0  0  0  0  0  0  0  0
    3.3526    5.6250  -10.1351 H   0  0  0  0  0  0  0  0  0  0  0  0
    2.3408    3.1173   -9.5771 H   0  0  0  0  0  0  0  0  0  0  0  0
    1.7251    6.0448    5.6896 H   0  0  0  0  0  0  0  0  0  0  0  0
    3.5050    7.0538    7.0671 H   0  0  0  0  0  0  0  0  0  0  0  0
    5.8682    6.5999    6.5604 H   0  0  0  0  0  0  0  0  0  0  0  0
    7.0193    4.0572    4.2129 H   0  0  0  0  0  0  0  0  0  0  0  0
    7.5221    5.2811    5.3904 H   0  0  0  0  0  0  0  0  0  0  0  0
    8.3203    5.8584    3.1033 H   0  0  0  0  0  0  0  0  0  0  0  0
    7.1692    7.0650    3.6873 H   0  0  0  0  0  0  0  0  0  0  0  0
    6.6539    5.8550    2.5142 H   0  0  0  0  0  0  0  0  0  0  0  0
    4.6894    4.1006    3.3092 H   0  0  0  0  0  0  0  0  0  0  0  0
   -1.6866    1.8792   -2.9162 H   0  0  0  0  0  0  0  0  0  0  0  0
   -1.3262    1.1288   -4.4619 H   0  0  0  0  0  0  0  0  0  0  0  0
    0.6124    1.0695   -2.0922 H   0  0  0  0  0  0  0  0  0  0  0  0
    0.8266    0.2777   -3.6508 H   0  0  0  0  0  0  0  0  0  0  0  0
   -0.4614   -0.2544   -2.5674 H   0  0  0  0  0  0  0  0  0  0  0  0
   -1.2794    2.9840    0.4221 H   0  0  0  0  0  0  0  0  0  0  0  0
   -1.2538    2.0182   -1.0425 H   0  0  0  0  0  0  0  0  0  0  0  0
   -3.1515    3.6180   -1.1072 H   0  0  0  0  0  0  0  0  0  0  0  0
   -2.0589    4.9704   -0.7988 H   0  0  0  0  0  0  0  0  0  0  0  0
   -1.9801    4.1156   -2.3363 H   0  0  0  0  0  0  0  0  0  0  0  0
   -1.0155    2.0119    5.1939 H   0  0  0  0  0  0  0  0  0  0  0  0
   -2.3990   -1.5569    7.8294 H   0  0  0  0  0  0  0  0  0  0  0  0
   -4.8647   -1.4139    7.1855 H   0  0  0  0  0  0  0  0  0  0  0  0
   -7.2998    3.0871    5.9452 H   0  0  0  0  0  0  0  0  0  0  0  0
   -5.5303    3.2660    6.0257 H   0  0  0  0  0  0  0  0  0  0  0  0
   -6.6239    4.1561    8.1101 H   0  0  0  0  0  0  0  0  0  0  0  0
   -5.6062    2.7608    8.4828 H   0  0  0  0  0  0  0  0  0  0  0  0
   -7.3610    2.5723    8.3930 H   0  0  0  0  0  0  0  0  0  0  0  0
    2.7779    1.7607   11.4689 H   0  0  0  0  0  0  0  0  0  0  0  0
    5.0985    2.6704   11.9736 H   0  0  0  0  0  0  0  0  0  0  0  0
    8.2634    4.6673    8.2279 H   0  0  0  0  0  0  0  0  0  0  0  0
    6.5903    4.3246    7.7111 H   0  0  0  0  0  0  0  0  0  0  0  0
    8.2095    2.7707    6.5873 H   0  0  0  0  0  0  0  0  0  0  0  0
    7.1290    1.8751    7.6601 H   0  0  0  0  0  0  0  0  0  0  0  0
    8.7860    2.2262    8.1702 H   0  0  0  0  0  0  0  0  0  0  0  0
    2.4502   -0.2894   10.9422 H   0  0  0  0  0  0  0  0  0  0  0  0
   -0.4990   -2.6257   12.0331 H   0  0  0  0  0  0  0  0  0  0  0  0
    5.6687   -3.3250   12.7834 H   0  0  0  0  0  0  0  0  0  0  0  0
    2.1673   -6.2220   15.0215 H   0  0  0  0  0  0  0  0  0  0  0  0
    5.1560   -7.8961   14.7890 H   0  0  0  0  0  0  0  0  0  0  0  0
    5.1773   -7.5453   17.2539 H   0  0  0  0  0  0  0  0  0  0  0  0
    4.5675   -5.0345   17.6529 H   0  0  0  0  0  0  0  0  0  0  0  0
    6.4314   -3.5325   16.5007 H   0  0  0  0  0  0  0  0  0  0  0  0
    8.1910   -5.1190   15.3923 H   0  0  0  0  0  0  0  0  0  0  0  0
    7.6591   -6.6495   17.4867 H   0  0  0  0  0  0  0  0  0  0  0  0
    7.5692   -7.6611   16.0230 H   0  0  0  0  0  0  0  0  0  0  0  0
    6.9698   -6.4399   13.6704 H   0  0  0  0  0  0  0  0  0  0  0  0
  1  2  2  0  0  0  0
  2  3  1  0  0  0  0
  3  4  2  0  0  0  0
  3  5  1  0  0  0  0
  5  6  2  0  0  0  0
  6  7  1  0  0  0  0
  7  8  2  0  0  0  0
  8  9  1  0  0  0  0
  9 10  2  0  0  0  0
 10 11  1  0  0  0  0
 11 12  2  0  0  0  0
 12 13  1  0  0  0  0
 13 14  3  0  0  0  0
 12 15  1  0  0  0  0
 15 16  3  0  0  0  0
  8 17  1  0  0  0  0
 17 18  1  0  0  0  0
 18 19  1  0  0  0  0
 19 20  2  0  0  0  0
 20 21  1  0  0  0  0
 21 22  1  0  0  0  0
 21 23  1  0  0  0  0
  1 24  1  0  0  0  0
 24 25  2  0  0  0  0
 25 26  1  0  0  0  0
 26 27  1  0  0  0  0
 27 28  1  0  0  0  0
 28 29  1  0  0  0  0
 26 30  2  0  0  0  0
 30 31  1  0  0  0  0
 31 32  2  0  0  0  0
 32 33  1  0  0  0  0
 33 34  1  0  0  0  0
 34 35  1  0  0  0  0
 30 36  1  0  0  0  0
 36 37  2  0  0  0  0
 37 38  1  0  0  0  0
 38 39  2  0  0  0  0
 39 40  1  0  0  0  0
 40 41  2  0  0  0  0
 41 42  1  0  0  0  0
 42 43  1  0  0  0  0
 43 44  1  0  0  0  0
 42 45  2  0  0  0  0
 37 46  1  0  0  0  0
 46 47  1  0  0  0  0
 47 48  1  0  0  0  0
 48 49  1  0  0  0  0
 49 50  1  0  0  0  0
 50 51  1  0  0  0  0
 51 52  2  0  0  0  0
 52 53  1  0  0  0  0
 53 54  1  0  0  0  0
 51 55  1  0  0  0  0
 55 56  1  0  0  0  0
 56 57  1  0  0  0  0
 57 58  1  0  0  0  0
 58 59  1  0  0  0  0
 59 60  1  0  0  0  0
 60 61  2  0  0  0  0
 61 62  1  0  0  0  0
 62 63  2  0  0  0  0
 63 64  1  0  0  0  0
 64 65  1  0  0  0  0
 65 66  1  0  0  0  0
 64 67  2  0  0  0  0
 59 68  2  0  0  0  0
 68 69  1  0  0  0  0
 69 70  1  0  0  0  0
 70 71  1  0  0  0  0
 71 72  1  0  0  0  0
 72 73  1  0  0  0  0
 73 74  1  0  0  0  0
 74 75  1  0  0  0  0
 75 76  1  0  0  0  0
 76 77  1  0  0  0  0
 77 78  1  0  0  0  0
 75 79  1  0  0  0  0
 79 80  1  0  0  0  0
 72 81  1  0  0  0  0
 81 82  1  0  0  0  0
 68 83  1  0  0  0  0
 83 84  2  0  0  0  0
 84 85  1  0  0  0  0
 85 86  2  0  0  0  0
 86 87  1  0  0  0  0
 87 88  2  0  0  0  0
 88 89  1  0  0  0  0
 89 90  2  0  0  0  0
 90 91  1  0  0  0  0
 91 92  1  0  0  0  0
 92 93  1  0  0  0  0
 90 94  1  0  0  0  0
 86 95  1  0  0  0  0
 95 96  2  0  0  0  0
 96 97  1  0  0  0  0
 97 98  1  0  0  0  0
 98 99  2  0  0  0  0
 99100  1  0  0  0  0
100101  2  0  0  0  0
101102  1  0  0  0  0
102103  1  0  0  0  0
103104  1  0  0  0  0
101105  1  0  0  0  0
 97106  2  0  0  0  0
106107  1  0  0  0  0
 96108  1  0  0  0  0
108109  2  0  0  0  0
109110  1  0  0  0  0
109111  1  0  0  0  0
111112  2  0  0  0  0
112113  1  0  0  0  0
113114  2  0  0  0  0
113115  1  0  0  0  0
115116  2  0  0  0  0
116117  1  0  0  0  0
117118  2  0  0  0  0
118119  1  0  0  0  0
119120  2  0  0  0  0
120121  1  0  0  0  0
121122  2  0  0  0  0
122123  1  0  0  0  0
123124  3  0  0  0  0
122125  1  0  0  0  0
125126  3  0  0  0  0
118127  1  0  0  0  0
127128  1  0  0  0  0
128129  1  0  0  0  0
129130  2  0  0  0  0
130131  1  0  0  0  0
131132  1  0  0  0  0
131133  1  0  0  0  0
 11  2  1  0  0  0  0
 23 17  1  0  0  0  0
 32 24  1  0  0  0  0
 78 36  1  0  0  0  0
107 83  1  0  0  0  0
121112  1  0  0  0  0
133127  1  0  0  0  0
 10  5  1  0  0  0  0
 22 18  1  0  0  0  0
 45 38  1  0  0  0  0
 77 46  2  0  0  0  0
106 85  1  0  0  0  0
120115  1  0  0  0  0
132128  1  0  0  0  0
 23  7  1  0  0  0  0
 76 48  2  0  0  0  0
 94 87  1  0  0  0  0
110 95  1  0  0  0  0
133117  1  0  0  0  0
 74 49  2  0  0  0  0
105 98  1  0  0  0  0
 54 50  2  0  0  0  0
 73 55  2  0  0  0  0
 71 56  2  0  0  0  0
 70 58  2  0  0  0  0
 67 60  1  0  0  0  0
  1134  1  0  0  0  0
  6135  1  0  0  0  0
  9136  1  0  0  0  0
 17137  1  0  0  0  0
 18138  1  0  0  0  0
 19139  1  0  0  0  0
 20140  1  0  0  0  0
 21141  1  0  0  0  0
 22142  1  0  0  0  0
 22143  1  0  0  0  0
 23144  1  0  0  0  0
 25145  1  0  0  0  0
 28146  1  0  0  0  0
 28147  1  0  0  0  0
 29148  1  0  0  0  0
 29149  1  0  0  0  0
 29150  1  0  0  0  0
 31151  1  0  0  0  0
 34152  1  0  0  0  0
 34153  1  0  0  0  0
 35154  1  0  0  0  0
 35155  1  0  0  0  0
 35156  1  0  0  0  0
 39157  1  0  0  0  0
 40158  1  0  0  0  0
 41159  1  0  0  0  0
 43160  1  0  0  0  0
 43161  1  0  0  0  0
 44162  1  0  0  0  0
 44163  1  0  0  0  0
 44164  1  0  0  0  0
 45165  1  0  0  0  0
 61166  1  0  0  0  0
 62167  1  0  0  0  0
 63168  1  0  0  0  0
 65169  1  0  0  0  0
 65170  1  0  0  0  0
 66171  1  0  0  0  0
 66172  1  0  0  0  0
 66173  1  0  0  0  0
 67174  1  0  0  0  0
 79175  1  0  0  0  0
 79176  1  0  0  0  0
 80177  1  0  0  0  0
 80178  1  0  0  0  0
 80179  1  0  0  0  0
 81180  1  0  0  0  0
 81181  1  0  0  0  0
 82182  1  0  0  0  0
 82183  1  0  0  0  0
 82184  1  0  0  0  0
 84185  1  0  0  0  0
 88186  1  0  0  0  0
 89187  1  0  0  0  0
 92188  1  0  0  0  0
 92189  1  0  0  0  0
 93190  1  0  0  0  0
 93191  1  0  0  0  0
 93192  1  0  0  0  0
 99193  1  0  0  0  0
100194  1  0  0  0  0
103195  1  0  0  0  0
103196  1  0  0  0  0
104197  1  0  0  0  0
104198  1  0  0  0  0
104199  1  0  0  0  0
108200  1  0  0  0  0
111201  1  0  0  0  0
116202  1  0  0  0  0
119203  1  0  0  0  0
127204  1  0  0  0  0
128205  1  0  0  0  0
129206  1  0  0  0  0
130207  1  0  0  0  0
131208  1  0  0  0  0
132209  1  0  0  0  0
132210  1  0  0  0  0
133211  1  0  0  0  0
M  END
