278

C         -8.52700       -5.73980        6.76800
C         -9.63160       -5.01250        6.44760
C        -10.07750       -4.69070        5.06950
O         -9.70300       -5.17430        4.01870
C        -11.04370       -3.58880        5.21290
C        -11.66350       -2.88510        4.18080
C        -12.52190       -1.90260        4.60980
C        -12.74430       -1.63070        5.96680
C        -12.13530       -2.31110        6.99430
C        -11.26030       -3.32030        6.57960
C        -10.43350       -4.22840        7.36800
C        -10.46020       -4.36390        8.73000
C         -9.68750       -5.28950        9.46450
N         -9.09960       -6.01190       10.13570
C        -11.28510       -3.60880        9.58960
N        -11.92610       -3.02670       10.34370
C        -13.71570       -0.51650        5.66610
C        -15.21460       -0.84160        5.83900
C        -15.91170        0.23240        5.03520
C        -15.70170       -0.02460        3.75050
C        -14.85890       -1.27670        3.66420
C        -15.38550       -2.03470        4.88960
C        -13.46810       -0.82020        4.15340
C         -7.76340       -6.51980        5.85970
S         -6.02860       -6.49930        5.98630
C         -5.84170       -7.42640        4.52410
C         -7.08960       -7.80360        4.01380
C         -7.34390       -8.62760        2.82210
O         -6.48200       -9.24860        2.21750
C         -8.74090       -8.62560        2.39150
C         -9.16170       -9.11400        1.17770
C         -8.33330       -9.73840        0.11380
C         -9.10240      -10.01410       -1.16990
S        -10.87010       -8.91380        0.99340
C        -11.03360       -8.22100        2.57340
C        -12.35050       -7.72240        3.04650
C        -12.61160       -6.32070        2.48680
C         -9.81560       -8.12250        3.18970
C         -9.58340       -7.62840        4.54460
O        -10.43280       -7.57050        5.41300
C         -8.16240       -7.28960        4.78380
C         -4.52050       -7.53640        4.01610
C         -4.07180       -7.87470        2.75480
C         -2.71280       -7.62220        2.60040
S         -1.64270       -7.66100        1.22990
C         -0.38450       -6.94160        2.19080
C          0.87170       -6.29540        1.92030
C          1.58740       -6.03850        0.75920
O          1.39840       -6.63770       -0.44000
C          1.00020       -7.99760       -0.48900
C          1.87000       -8.71450       -1.51340
C          2.55360       -4.98970        0.77770
C          2.89000       -4.35420        2.00250
C          2.29660       -4.79510        3.20730
C          1.27760       -5.68880        3.15010
C          0.31770       -6.02810        4.27710
C          0.86670       -6.99930        5.30430
C          0.09570       -7.30200        6.42050
C          0.54560       -8.21260        7.35590
C          1.77420       -8.84370        7.20220
C          2.24250       -9.86470        8.19870
C          1.75120      -11.25950        7.80590
C          2.53570       -8.54200        6.08190
C          2.08910       -7.63250        5.13960
C         -0.12860       -4.72120        4.90350
C         -1.15570       -3.97890        4.33680
C         -1.50250       -2.74720        4.85840
C         -0.82460       -2.21670        5.94780
C         -1.17210       -0.85240        6.47050
C         -0.45210        0.22910        5.66270
C          0.21060       -2.95620        6.50330
C          0.55490       -4.19340        5.99110
C         -0.76550       -6.72710        3.50600
C         -2.08220       -7.10920        3.74460
S         -3.20070       -6.96350        5.04560
C          3.71380       -3.20080        1.99900
O          4.03120       -2.58730        3.18920
C          3.11070       -1.59280        3.62140
C          3.56300       -1.10850        4.98740
C          4.12950       -2.69050        0.78770
C          4.72430       -1.43770        0.42820
C          4.71940       -1.27800       -0.94480
C          4.37820       -2.58520       -1.61580
C          3.84120       -3.37250       -0.43120
C          3.09520       -4.50830       -0.43780
C          5.71080       -3.12350       -2.12380
C          6.38460       -4.15930       -1.49570
C          7.60790       -4.58960       -1.97940
C          8.18670       -3.99670       -3.09220
C          9.53520       -4.43570       -3.58640
C         10.63970       -3.59590       -2.94140
C          7.51020       -2.95200       -3.71070
C          6.28890       -2.51910       -3.23430
C          3.36830       -2.53840       -2.73630
C          3.30460       -3.58290       -3.65160
C          2.36100       -3.57320       -4.66000
C          1.46070       -2.52240       -4.78370
C          0.40760       -2.53640       -5.85440
C         -0.84210       -3.26950       -5.36250
C          1.52680       -1.48610       -3.86370
C          2.46610       -1.49330       -2.84870
C          5.08650        0.02180       -1.30610
C          5.43190        0.80730       -0.20090
S          5.26870       -0.04600        1.30040
C          5.69080        2.14810       -0.51230
C          5.47020        2.41490       -1.83590
S          5.04180        0.97360       -2.74770
C          5.41080        3.70870       -2.45910
C          4.29780        4.26440       -3.06400
N          3.04620        3.67890       -3.14970
C          2.24880        4.02230       -4.25780
C          2.80550        4.02720       -5.53320
C          2.04940        4.42390       -6.61810
C          0.72560        4.81370       -6.46310
C         -0.07560        5.29300       -7.63410
C          0.17140        4.78120       -5.18900
C          0.91810        4.39420       -4.09520
C          2.50260        2.94760       -2.08920
C          1.58560        1.93050       -2.34900
C          1.06660        1.17940       -1.31490
C          1.46090        1.39510        0.00190
C          0.93800        0.51860        1.09920
C          2.34770        2.43100        0.25750
C          2.85040        3.21150       -0.76630
C          4.56990        5.57280       -3.53540
S          3.58230        6.78000       -4.26960
C          4.93640        7.91350       -4.23590
C          6.07930        7.35840       -3.60450
N          7.24840        8.02230       -3.34250
C          7.27810        9.37940       -2.97010
C          6.27140        9.91960       -2.17320
C          6.29860       11.25860       -1.83920
C          7.33160       12.08470       -2.26680
C          7.34670       13.54490       -1.93500
C          8.35210       11.52610       -3.02740
C          8.33030       10.19240       -3.38350
C          8.44940        7.28770       -3.32350
C          9.38900        7.48680       -2.31740
C         10.56180        6.75790       -2.31400
C         10.82590        5.81670       -3.30140
C         12.08480        5.00650       -3.28140
C          9.88250        5.62930       -4.30560
C          8.70940        6.35510       -4.32450
C          5.85180        6.01750       -3.24560
S          6.77430        4.81460       -2.39460
C          4.92130        9.17570       -4.82780
C          3.88310        9.89090       -5.38100
C          2.47230        9.50030       -5.40860
O          1.98390        8.42530       -5.10220
C          1.72560       10.68160       -5.87840
C          0.34620       10.79610       -6.02510
C         -0.06750       12.02830       -6.47170
C          0.82660       13.06900       -6.75150
C          2.19110       12.96750       -6.61050
C          2.63310       11.72210       -6.15730
C          3.98900       11.23410       -5.89980
C          5.14410       11.93960       -6.14000
C          6.45130       11.42820       -6.03410
N          7.54950       11.08710       -6.01160
C          5.18660       13.28080       -6.56790
N          5.30440       14.37640       -6.89370
C         -0.27640       14.01270       -7.16230
C         -0.49530       14.25320       -8.67640
C          0.00040       13.01640       -9.38350
C         -0.84680       12.03110       -9.11780
C         -1.93050       12.58400       -8.22580
C         -2.01280       14.02290       -8.75970
C         -1.27310       12.85240       -6.84950
H         -8.12050       -5.66110        7.76930
H        -11.45740       -3.11590        3.14720
H        -12.30430       -2.08120        8.03300
H        -13.44590        0.46460        6.05210
H        -15.53630       -0.96970        6.86870
H        -16.42150        1.07170        5.47050
H        -16.00100        0.55710        2.89840
H        -14.85730       -1.80090        2.71220
H        -14.79260       -2.90610        5.16130
H        -16.42890       -2.32430        4.77720
H        -13.03220       -0.04130        3.53030
H         -7.47740       -9.08580       -0.08490
H         -7.91350      -10.66880        0.50980
H         -9.50960       -9.09150       -1.57830
H         -9.92640      -10.69930       -0.98260
H         -8.44480      -10.46000       -1.91160
H        -13.14380       -8.40080        2.72530
H        -12.33330       -7.68380        4.13620
H        -12.67370       -6.34830        1.40050
H        -11.79840       -5.65900        2.77380
H        -13.54450       -5.92640        2.88200
H         -4.70990       -8.26540        1.98610
H          1.11060       -8.46430        0.49570
H         -0.05230       -8.05290       -0.79160
H          2.91360       -8.68030       -1.21050
H          1.77370       -8.23080       -2.48140
H          1.55700       -9.75100       -1.59960
H          2.60280       -4.35180        4.14110
H         -0.85850       -6.81340        6.55800
H         -0.06460       -8.43480        8.21960
H          1.86080       -9.61570        9.19080
H          3.33360       -9.86670        8.24240
H          2.13210      -11.53210        6.82410
H          0.66430      -11.28080        7.76850
H          2.08890      -11.99960        8.52770
H          3.49390       -9.02260        5.94340
H          2.69920       -7.41040        4.27620
H         -1.68770       -4.36040        3.47730
H         -2.31100       -2.18780        4.40930
H         -2.25030       -0.69440        6.40060
H         -0.88250       -0.77130        7.51980
H         -0.71580        1.21850        6.02930
H          0.62530        0.10370        5.74350
H         -0.72440        0.16270        4.61160
H          0.75500       -2.56000        7.34880
H          1.36010       -4.75550        6.44170
H          3.10060       -0.75920        2.90650
H          2.09530       -2.01380        3.67490
H          3.53000       -1.92500        5.70350
H          4.58330       -0.74060        4.92410
H          2.91450       -0.30690        5.32910
H          2.83960       -5.01140       -1.35630
H          5.95450       -4.63660       -0.62770
H          8.11840       -5.40220       -1.48190
H          9.69490       -5.48800       -3.34300
H          9.58610       -4.32400       -4.67150
H         11.61710       -3.91190       -3.29860
H         10.50410       -2.54390       -3.18260
H         10.61290       -3.70380       -1.85940
H          7.94460       -2.47360       -4.57690
H          5.77250       -1.70830       -3.72830
H          4.00570       -4.40200       -3.57880
H          2.32560       -4.39130       -5.36580
H          0.14160       -1.51290       -6.12640
H          0.79120       -3.03800       -6.74530
H         -1.24620       -2.77710       -4.48080
H         -0.59830       -4.29580       -5.09730
H         -1.60700       -3.28200       -6.13570
H          0.83430       -0.66040       -3.94340
H          2.49850       -0.67880       -2.14150
H          5.96300        2.90030        0.20510
H          3.83470        3.72510       -5.66450
H          2.49700        4.43340       -7.60150
H          0.02790        6.37470       -7.72650
H          0.27430        4.84010       -8.55900
H         -1.13140        5.06530       -7.50460
H         -0.85660        5.08190       -5.04800
H          0.48130        4.39340       -3.10730
H          1.29610        1.73260       -3.37010
H          0.35220        0.39720       -1.52930
H          1.23920        0.89250        2.07500
H         -0.14930        0.46750        1.06490
H          1.31930       -0.49740        0.98390
H          2.64880        2.63830        1.27460
H          3.51180        4.03450       -0.54120
H          5.46460        9.28930       -1.82850
H          5.50490       11.66640       -1.22960
H          7.15770       14.13250       -2.83360
H          8.31900       13.84040       -1.54500
H          6.58370       13.78700       -1.19930
H          9.16520       12.14950       -3.36670
H          9.11610        9.77940       -3.99610
H          9.19240        8.20960       -1.53950
H         11.28160        6.91930       -1.52480
H         12.48160        4.88470       -4.28720
H         12.84110        5.47600       -2.65770
H         11.88060        4.01330       -2.88040
H         10.07370        4.90920       -5.08770
H          7.99090        6.21180       -5.11830
H          5.88220        9.67370       -4.82430
H         -0.30570        9.96750       -5.79550
H          2.86420       13.78020       -6.82690
H         -0.36200       14.92870       -6.58090
H         -0.11150       15.20160       -9.04280
H          0.91910       12.97190       -9.93850
H         -0.77720       10.99870       -9.40670
H         -2.85440       12.01290       -8.18170
H         -2.58870       14.69060       -8.12010
H         -2.39160       14.07310       -9.77950
H         -2.00840       13.01150       -6.06270
