
  xtb     02132212143D
 energy: -285.868414592341 gnorm: 0.000540647128 xtb: 6.4.1 (unknown)
172194  0     0  0            999 V2000
    1.8470  -11.2320    2.9221 C   0  0  0  0  0  0  0  0  0  0  0  0
    1.7523  -11.4770    1.5682 C   0  0  0  0  0  0  0  0  0  0  0  0
    1.4822  -10.4656    0.5615 C   0  0  0  0  0  0  0  0  0  0  0  0
    1.2644   -9.2708    0.7510 O   0  0  0  0  0  0  0  0  0  0  0  0
    1.5205  -11.1391   -0.7439 C   0  0  0  0  0  0  0  0  0  0  0  0
    1.3424  -10.5622   -1.9984 C   0  0  0  0  0  0  0  0  0  0  0  0
    1.4513  -11.4506   -3.0416 C   0  0  0  0  0  0  0  0  0  0  0  0
    1.7188  -12.8116   -2.8499 C   0  0  0  0  0  0  0  0  0  0  0  0
    1.8973  -13.3928   -1.6154 C   0  0  0  0  0  0  0  0  0  0  0  0
    1.7890  -12.5086   -0.5402 C   0  0  0  0  0  0  0  0  0  0  0  0
    1.9254  -12.7470    0.8996 C   0  0  0  0  0  0  0  0  0  0  0  0
    2.1729  -13.9658    1.4798 C   0  0  0  0  0  0  0  0  0  0  0  0
    2.3102  -14.2061    2.8627 C   0  0  0  0  0  0  0  0  0  0  0  0
    2.4331  -14.4940    3.9685 N   0  0  0  0  0  0  0  0  0  0  0  0
    2.3237  -15.1737    0.7684 C   0  0  0  0  0  0  0  0  0  0  0  0
    2.4567  -16.1966    0.2630 N   0  0  0  0  0  0  0  0  0  0  0  0
    1.6897  -13.1075   -4.3287 C   0  0  0  0  0  0  0  0  0  0  0  0
    0.4252  -13.7910   -4.9047 C   0  0  0  0  0  0  0  0  0  0  0  0
   -0.7175  -13.4152   -3.9945 C   0  0  0  0  0  0  0  0  0  0  0  0
   -0.9722  -12.1262   -4.1753 C   0  0  0  0  0  0  0  0  0  0  0  0
   -0.0060  -11.6069   -5.2112 C   0  0  0  0  0  0  0  0  0  0  0  0
    0.1436  -12.8571   -6.0927 C   0  0  0  0  0  0  0  0  0  0  0  0
    1.3906  -11.5901   -4.5421 C   0  0  0  0  0  0  0  0  0  0  0  0
    1.7288  -10.0327    3.6222 C   0  0  0  0  0  0  0  0  0  0  0  0
    1.3498   -8.2842    2.9870 Se  0  0  0  0  0  2  0  0  0  0  0  0
    1.4937   -7.6649    4.7631 C   0  0  0  0  0  0  0  0  0  0  0  0
    1.8202   -8.6986    5.6416 C   0  0  0  0  0  0  0  0  0  0  0  0
    2.1237   -8.7820    7.0317 C   0  0  0  0  0  0  0  0  0  0  0  0
    2.3862  -10.0421    7.4430 C   0  0  0  0  0  0  0  0  0  0  0  0
    2.7137  -10.5423    8.8078 C   0  0  0  0  0  0  0  0  0  0  0  0
    2.5995   -9.4693    9.8840 C   0  0  0  0  0  0  0  0  0  0  0  0
    2.3071  -11.2124    6.1304 S   0  0  0  0  0  0  0  0  0  0  0  0
    1.9158   -9.9581    5.0078 C   0  0  0  0  0  0  0  0  0  0  0  0
    1.2790   -6.2898    5.0250 C   0  0  0  0  0  0  0  0  0  0  0  0
    0.8608   -5.6125    6.1612 C   0  0  0  0  0  0  0  0  0  0  0  0
    0.3793   -6.2218    7.4003 C   0  0  0  0  0  0  0  0  0  0  0  0
   -0.5024   -7.3005    7.3633 C   0  0  0  0  0  0  0  0  0  0  0  0
   -0.9812   -7.8367    8.5422 C   0  0  0  0  0  0  0  0  0  0  0  0
   -0.5943   -7.3046    9.7611 C   0  0  0  0  0  0  0  0  0  0  0  0
    0.2756   -6.2231    9.8161 C   0  0  0  0  0  0  0  0  0  0  0  0
    0.6567   -5.5974   11.1261 C   0  0  0  0  0  0  0  0  0  0  0  0
   -0.2209   -4.3745   11.4009 C   0  0  0  0  0  0  0  0  0  0  0  0
    0.7531   -5.6879    8.6287 C   0  0  0  0  0  0  0  0  0  0  0  0
    0.8070   -4.2232    5.9346 C   0  0  0  0  0  0  0  0  0  0  0  0
    0.3614   -2.8797    6.9621 S   0  0  0  0  0  0  0  0  0  0  0  0
    0.5826   -1.8108    5.6195 C   0  0  0  0  0  0  0  0  0  0  0  0
    0.5072   -0.4421    5.3249 C   0  0  0  0  0  0  0  0  0  0  0  0
    0.2717    0.6638    6.1694 C   0  0  0  0  0  0  0  0  0  0  0  0
    0.3367    1.9826    5.6135 C   0  0  0  0  0  0  0  0  0  0  0  0
    0.1390    2.9262    6.5207 N   0  0  0  0  0  0  0  0  0  0  0  0
   -0.1093    2.2129    7.9537 S   0  0  0  0  0  0  0  0  0  0  0  0
    0.0254    0.6730    7.4701 N   0  0  0  0  0  0  0  0  0  0  0  0
    0.5320    2.1242    4.2229 C   0  0  0  0  0  0  0  0  0  0  0  0
    0.4746    3.2670    3.4124 C   0  0  0  0  0  0  0  0  0  0  0  0
    0.2276    4.9732    3.5636 S   0  0  0  0  0  0  0  0  0  0  0  0
    0.2142    5.1027    1.8190 C   0  0  0  0  0  0  0  0  0  0  0  0
    0.0315    6.1941    0.9464 C   0  0  0  0  0  0  0  0  0  0  0  0
   -0.0780    7.5742    1.4196 C   0  0  0  0  0  0  0  0  0  0  0  0
    0.6662    8.5925    0.8262 C   0  0  0  0  0  0  0  0  0  0  0  0
    0.5944    9.8774    1.3268 C   0  0  0  0  0  0  0  0  0  0  0  0
   -0.2057   10.1587    2.4220 C   0  0  0  0  0  0  0  0  0  0  0  0
   -0.9491    9.1552    3.0292 C   0  0  0  0  0  0  0  0  0  0  0  0
   -1.7682    9.4283    4.2571 C   0  0  0  0  0  0  0  0  0  0  0  0
   -0.9775    9.0456    5.5100 C   0  0  0  0  0  0  0  0  0  0  0  0
   -0.8776    7.8673    2.5188 C   0  0  0  0  0  0  0  0  0  0  0  0
    0.0497    5.7823   -0.3775 C   0  0  0  0  0  0  0  0  0  0  0  0
    0.3613    4.0597   -0.5401 S   0  0  0  0  0  0  0  0  0  0  0  0
    0.4152    3.8785    1.1763 C   0  0  0  0  0  0  0  0  0  0  0  0
    0.5766    2.8305    2.0904 C   0  0  0  0  0  0  0  0  0  0  0  0
    0.7231    1.4717    2.0569 N   0  0  0  0  0  0  0  0  0  0  0  0
    0.7132    1.0035    3.3588 C   0  0  0  0  0  0  0  0  0  0  0  0
    0.8030   -0.2944    3.9372 C   0  0  0  0  0  0  0  0  0  0  0  0
    1.1079   -1.5470    3.4337 N   0  0  0  0  0  0  0  0  0  0  0  0
    0.9677   -2.4583    4.4439 C   0  0  0  0  0  0  0  0  0  0  0  0
    1.1171   -3.8381    4.6277 C   0  0  0  0  0  0  0  0  0  0  0  0
    1.5515   -5.2057    3.6648 S   0  0  0  0  0  0  0  0  0  0  0  0
    1.6796   -1.9775    2.1790 C   0  0  0  0  0  0  0  0  0  0  0  0
    0.6633   -2.7163    1.3071 C   0  0  0  0  0  0  0  0  0  0  0  0
    0.7039    0.8051    0.7766 C   0  0  0  0  0  0  0  0  0  0  0  0
    2.0495    0.9142    0.0592 C   0  0  0  0  0  0  0  0  0  0  0  0
   -0.2660    6.5056   -1.5610 C   0  0  0  0  0  0  0  0  0  0  0  0
   -1.0051    7.6679   -1.6639 C   0  0  0  0  0  0  0  0  0  0  0  0
   -1.2501    8.1606   -2.9520 C   0  0  0  0  0  0  0  0  0  0  0  0
   -2.1729    9.3209   -3.1299 C   0  0  0  0  0  0  0  0  0  0  0  0
   -3.3790    9.0013   -4.0121 C   0  0  0  0  0  0  0  0  0  0  0  0
   -0.6731    7.4030   -3.9735 C   0  0  0  0  0  0  0  0  0  0  0  0
    0.1981    5.8691   -3.2583 Se  0  0  0  0  0  2  0  0  0  0  0  0
   -0.6850    7.4638   -5.3808 C   0  0  0  0  0  0  0  0  0  0  0  0
   -0.8083    8.5175   -6.2499 C   0  0  0  0  0  0  0  0  0  0  0  0
   -0.5730    9.9413   -5.9561 C   0  0  0  0  0  0  0  0  0  0  0  0
   -0.2176   10.4341   -4.9010 O   0  0  0  0  0  0  0  0  0  0  0  0
   -0.7344   10.6551   -7.2372 C   0  0  0  0  0  0  0  0  0  0  0  0
   -0.6454   12.0288   -7.4456 C   0  0  0  0  0  0  0  0  0  0  0  0
   -0.8459   12.4111   -8.7503 C   0  0  0  0  0  0  0  0  0  0  0  0
   -1.0971   11.4917   -9.7769 C   0  0  0  0  0  0  0  0  0  0  0  0
   -1.1764   10.1329   -9.5867 C   0  0  0  0  0  0  0  0  0  0  0  0
   -0.9910    9.7243   -8.2628 C   0  0  0  0  0  0  0  0  0  0  0  0
   -1.0366    8.3871   -7.6761 C   0  0  0  0  0  0  0  0  0  0  0  0
   -1.3272    7.2320   -8.3580 C   0  0  0  0  0  0  0  0  0  0  0  0
   -1.5425    7.1575   -9.7497 C   0  0  0  0  0  0  0  0  0  0  0  0
   -1.7224    7.0128  -10.8748 N   0  0  0  0  0  0  0  0  0  0  0  0
   -1.4768    5.9506   -7.7875 C   0  0  0  0  0  0  0  0  0  0  0  0
   -1.6439    4.8765   -7.4139 N   0  0  0  0  0  0  0  0  0  0  0  0
   -1.2113   12.5705  -10.8246 C   0  0  0  0  0  0  0  0  0  0  0  0
   -2.6324   12.9587  -11.3022 C   0  0  0  0  0  0  0  0  0  0  0  0
   -3.5695   12.6357  -10.1650 C   0  0  0  0  0  0  0  0  0  0  0  0
   -3.3384   13.5055   -9.1908 C   0  0  0  0  0  0  0  0  0  0  0  0
   -2.2411   14.4326   -9.6519 C   0  0  0  0  0  0  0  0  0  0  0  0
   -2.5475   14.4865  -11.1571 C   0  0  0  0  0  0  0  0  0  0  0  0
   -0.9376   13.5957   -9.6794 C   0  0  0  0  0  0  0  0  0  0  0  0
    2.0610  -12.0807    3.5637 H   0  0  0  0  0  0  0  0  0  0  0  0
    1.1418   -9.5072   -2.1003 H   0  0  0  0  0  0  0  0  0  0  0  0
    2.1065  -14.4417   -1.4883 H   0  0  0  0  0  0  0  0  0  0  0  0
    2.6078  -13.5105   -4.7518 H   0  0  0  0  0  0  0  0  0  0  0  0
    0.5417  -14.8505   -5.1166 H   0  0  0  0  0  0  0  0  0  0  0  0
   -1.1704  -14.0905   -3.2925 H   0  0  0  0  0  0  0  0  0  0  0  0
   -1.6805  -11.5090   -3.6542 H   0  0  0  0  0  0  0  0  0  0  0  0
   -0.2825  -10.6778   -5.7028 H   0  0  0  0  0  0  0  0  0  0  0  0
    0.9698  -12.7931   -6.7996 H   0  0  0  0  0  0  0  0  0  0  0  0
   -0.7737  -13.1123   -6.6212 H   0  0  0  0  0  0  0  0  0  0  0  0
    2.1134  -11.0029   -5.1057 H   0  0  0  0  0  0  0  0  0  0  0  0
    2.1532   -7.9288    7.6806 H   0  0  0  0  0  0  0  0  0  0  0  0
    3.7287  -10.9530    8.8011 H   0  0  0  0  0  0  0  0  0  0  0  0
    2.0394  -11.3713    9.0431 H   0  0  0  0  0  0  0  0  0  0  0  0
    2.8059   -9.9030   10.8592 H   0  0  0  0  0  0  0  0  0  0  0  0
    3.3130   -8.6683    9.7075 H   0  0  0  0  0  0  0  0  0  0  0  0
    1.5984   -9.0444    9.8965 H   0  0  0  0  0  0  0  0  0  0  0  0
   -0.8166   -7.7033    6.4121 H   0  0  0  0  0  0  0  0  0  0  0  0
   -1.6644   -8.6726    8.5118 H   0  0  0  0  0  0  0  0  0  0  0  0
   -0.9755   -7.7295   10.6788 H   0  0  0  0  0  0  0  0  0  0  0  0
    0.5356   -6.3213   11.9343 H   0  0  0  0  0  0  0  0  0  0  0  0
    1.7036   -5.2881   11.0976 H   0  0  0  0  0  0  0  0  0  0  0  0
    0.0595   -3.9096   12.3430 H   0  0  0  0  0  0  0  0  0  0  0  0
   -0.1106   -3.6424   10.6041 H   0  0  0  0  0  0  0  0  0  0  0  0
   -1.2676   -4.6656   11.4547 H   0  0  0  0  0  0  0  0  0  0  0  0
    1.4395   -4.8540    8.6587 H   0  0  0  0  0  0  0  0  0  0  0  0
    1.3043    8.3695   -0.0157 H   0  0  0  0  0  0  0  0  0  0  0  0
    1.1718   10.6641    0.8646 H   0  0  0  0  0  0  0  0  0  0  0  0
   -0.2505   11.1659    2.8105 H   0  0  0  0  0  0  0  0  0  0  0  0
   -2.6912    8.8457    4.2240 H   0  0  0  0  0  0  0  0  0  0  0  0
   -2.0318   10.4866    4.3025 H   0  0  0  0  0  0  0  0  0  0  0  0
   -0.7137    7.9907    5.4836 H   0  0  0  0  0  0  0  0  0  0  0  0
   -0.0593    9.6259    5.5683 H   0  0  0  0  0  0  0  0  0  0  0  0
   -1.5662    9.2356    6.4041 H   0  0  0  0  0  0  0  0  0  0  0  0
   -1.4623    7.0823    2.9757 H   0  0  0  0  0  0  0  0  0  0  0  0
    2.4984   -2.6669    2.4137 H   0  0  0  0  0  0  0  0  0  0  0  0
    2.1080   -1.1213    1.6653 H   0  0  0  0  0  0  0  0  0  0  0  0
    1.0895   -2.9055    0.3259 H   0  0  0  0  0  0  0  0  0  0  0  0
   -0.2557   -2.1457    1.1900 H   0  0  0  0  0  0  0  0  0  0  0  0
    0.4063   -3.6714    1.7565 H   0  0  0  0  0  0  0  0  0  0  0  0
   -0.0566    1.3010    0.1631 H   0  0  0  0  0  0  0  0  0  0  0  0
    0.3984   -0.2280    0.9076 H   0  0  0  0  0  0  0  0  0  0  0  0
    2.0268    0.3302   -0.8564 H   0  0  0  0  0  0  0  0  0  0  0  0
    2.2520    1.9501   -0.1994 H   0  0  0  0  0  0  0  0  0  0  0  0
    2.8661    0.5592    0.6847 H   0  0  0  0  0  0  0  0  0  0  0  0
   -1.4088    8.1505   -0.7895 H   0  0  0  0  0  0  0  0  0  0  0  0
   -2.5237    9.6340   -2.1445 H   0  0  0  0  0  0  0  0  0  0  0  0
   -1.6120   10.1535   -3.5637 H   0  0  0  0  0  0  0  0  0  0  0  0
   -3.9256    8.1495   -3.6119 H   0  0  0  0  0  0  0  0  0  0  0  0
   -4.0484    9.8574   -4.0450 H   0  0  0  0  0  0  0  0  0  0  0  0
   -3.0760    8.7660   -5.0287 H   0  0  0  0  0  0  0  0  0  0  0  0
   -0.5425    6.4919   -5.8461 H   0  0  0  0  0  0  0  0  0  0  0  0
   -0.4437   12.7017   -6.6267 H   0  0  0  0  0  0  0  0  0  0  0  0
   -1.3660    9.4398  -10.3890 H   0  0  0  0  0  0  0  0  0  0  0  0
   -0.4972   12.5189  -11.6440 H   0  0  0  0  0  0  0  0  0  0  0  0
   -2.9055   12.5618  -12.2763 H   0  0  0  0  0  0  0  0  0  0  0  0
   -4.2423   11.7980  -10.1631 H   0  0  0  0  0  0  0  0  0  0  0  0
   -3.7796   13.5397   -8.2118 H   0  0  0  0  0  0  0  0  0  0  0  0
   -2.1589   15.3790   -9.1236 H   0  0  0  0  0  0  0  0  0  0  0  0
   -3.4911   14.9836  -11.3774 H   0  0  0  0  0  0  0  0  0  0  0  0
   -1.7490   14.9345  -11.7469 H   0  0  0  0  0  0  0  0  0  0  0  0
   -0.0475   14.2177   -9.7530 H   0  0  0  0  0  0  0  0  0  0  0  0
  1  2  2  0  0  0  0
  2  3  1  0  0  0  0
  3  4  2  0  0  0  0
  3  5  1  0  0  0  0
  5  6  2  0  0  0  0
  6  7  1  0  0  0  0
  7  8  2  0  0  0  0
  8  9  1  0  0  0  0
  9 10  2  0  0  0  0
 10 11  1  0  0  0  0
 11 12  2  0  0  0  0
 12 13  1  0  0  0  0
 13 14  3  0  0  0  0
 12 15  1  0  0  0  0
 15 16  3  0  0  0  0
  8 17  1  0  0  0  0
 17 18  1  0  0  0  0
 18 19  1  0  0  0  0
 19 20  2  0  0  0  0
 20 21  1  0  0  0  0
 21 22  1  0  0  0  0
 21 23  1  0  0  0  0
  1 24  1  0  0  0  0
 24 25  1  0  0  0  0
 25 26  1  0  0  0  0
 26 27  2  0  0  0  0
 27 28  1  0  0  0  0
 28 29  2  0  0  0  0
 29 30  1  0  0  0  0
 30 31  1  0  0  0  0
 29 32  1  0  0  0  0
 32 33  1  0  0  0  0
 26 34  1  0  0  0  0
 34 35  2  0  0  0  0
 35 36  1  0  0  0  0
 36 37  2  0  0  0  0
 37 38  1  0  0  0  0
 38 39  2  0  0  0  0
 39 40  1  0  0  0  0
 40 41  1  0  0  0  0
 41 42  1  0  0  0  0
 40 43  2  0  0  0  0
 35 44  1  0  0  0  0
 44 45  1  0  0  0  0
 45 46  1  0  0  0  0
 46 47  1  0  0  0  0
 47 48  1  0  0  0  0
 48 49  1  0  0  0  0
 49 50  2  0  0  0  0
 50 51  1  0  0  0  0
 51 52  1  0  0  0  0
 49 53  1  0  0  0  0
 53 54  1  0  0  0  0
 54 55  1  0  0  0  0
 55 56  1  0  0  0  0
 56 57  1  0  0  0  0
 57 58  1  0  0  0  0
 58 59  2  0  0  0  0
 59 60  1  0  0  0  0
 60 61  2  0  0  0  0
 61 62  1  0  0  0  0
 62 63  1  0  0  0  0
 63 64  1  0  0  0  0
 62 65  2  0  0  0  0
 57 66  2  0  0  0  0
 66 67  1  0  0  0  0
 67 68  1  0  0  0  0
 68 69  1  0  0  0  0
 69 70  1  0  0  0  0
 70 71  1  0  0  0  0
 71 72  1  0  0  0  0
 72 73  1  0  0  0  0
 73 74  1  0  0  0  0
 74 75  1  0  0  0  0
 75 76  1  0  0  0  0
 73 77  1  0  0  0  0
 77 78  1  0  0  0  0
 70 79  1  0  0  0  0
 79 80  1  0  0  0  0
 66 81  1  0  0  0  0
 81 82  2  0  0  0  0
 82 83  1  0  0  0  0
 83 84  1  0  0  0  0
 84 85  1  0  0  0  0
 83 86  2  0  0  0  0
 86 87  1  0  0  0  0
 86 88  1  0  0  0  0
 88 89  2  0  0  0  0
 89 90  1  0  0  0  0
 90 91  2  0  0  0  0
 90 92  1  0  0  0  0
 92 93  2  0  0  0  0
 93 94  1  0  0  0  0
 94 95  2  0  0  0  0
 95 96  1  0  0  0  0
 96 97  2  0  0  0  0
 97 98  1  0  0  0  0
 98 99  2  0  0  0  0
 99100  1  0  0  0  0
100101  3  0  0  0  0
 99102  1  0  0  0  0
102103  3  0  0  0  0
 95104  1  0  0  0  0
104105  1  0  0  0  0
105106  1  0  0  0  0
106107  2  0  0  0  0
107108  1  0  0  0  0
108109  1  0  0  0  0
108110  1  0  0  0  0
 11  2  1  0  0  0  0
 23 17  1  0  0  0  0
 33 24  2  0  0  0  0
 76 34  1  0  0  0  0
 87 81  1  0  0  0  0
 98 89  1  0  0  0  0
110104  1  0  0  0  0
 10  5  1  0  0  0  0
 22 18  1  0  0  0  0
 33 27  1  0  0  0  0
 43 36  1  0  0  0  0
 75 44  2  0  0  0  0
 97 92  1  0  0  0  0
109105  1  0  0  0  0
 23  7  1  0  0  0  0
 74 46  2  0  0  0  0
110 94  1  0  0  0  0
 72 47  2  0  0  0  0
 52 48  2  0  0  0  0
 71 53  2  0  0  0  0
 69 54  2  0  0  0  0
 68 56  2  0  0  0  0
 65 58  1  0  0  0  0
  1111  1  0  0  0  0
  6112  1  0  0  0  0
  9113  1  0  0  0  0
 17114  1  0  0  0  0
 18115  1  0  0  0  0
 19116  1  0  0  0  0
 20117  1  0  0  0  0
 21118  1  0  0  0  0
 22119  1  0  0  0  0
 22120  1  0  0  0  0
 23121  1  0  0  0  0
 28122  1  0  0  0  0
 30123  1  0  0  0  0
 30124  1  0  0  0  0
 31125  1  0  0  0  0
 31126  1  0  0  0  0
 31127  1  0  0  0  0
 37128  1  0  0  0  0
 38129  1  0  0  0  0
 39130  1  0  0  0  0
 41131  1  0  0  0  0
 41132  1  0  0  0  0
 42133  1  0  0  0  0
 42134  1  0  0  0  0
 42135  1  0  0  0  0
 43136  1  0  0  0  0
 59137  1  0  0  0  0
 60138  1  0  0  0  0
 61139  1  0  0  0  0
 63140  1  0  0  0  0
 63141  1  0  0  0  0
 64142  1  0  0  0  0
 64143  1  0  0  0  0
 64144  1  0  0  0  0
 65145  1  0  0  0  0
 77146  1  0  0  0  0
 77147  1  0  0  0  0
 78148  1  0  0  0  0
 78149  1  0  0  0  0
 78150  1  0  0  0  0
 79151  1  0  0  0  0
 79152  1  0  0  0  0
 80153  1  0  0  0  0
 80154  1  0  0  0  0
 80155  1  0  0  0  0
 82156  1  0  0  0  0
 84157  1  0  0  0  0
 84158  1  0  0  0  0
 85159  1  0  0  0  0
 85160  1  0  0  0  0
 85161  1  0  0  0  0
 88162  1  0  0  0  0
 93163  1  0  0  0  0
 96164  1  0  0  0  0
104165  1  0  0  0  0
105166  1  0  0  0  0
106167  1  0  0  0  0
107168  1  0  0  0  0
108169  1  0  0  0  0
109170  1  0  0  0  0
109171  1  0  0  0  0
110172  1  0  0  0  0
M  END
