216

C          7.88360        5.91280        8.49310
C          7.74580        4.55350        8.39640
C          7.06750        3.78660        7.32240
O          6.41550        4.19200        6.38370
C          7.35340        2.36460        7.60960
C          6.95690        1.27040        6.84390
C          7.37650        0.05930        7.33830
C          8.13410       -0.05500        8.51140
C          8.52640        1.01520        9.27860
C          8.11020        2.25900        8.79090
C          8.33290        3.60240        9.32150
C          8.95990        3.88210       10.51030
C          9.50640        2.91070       11.37460
N          9.98050        2.18560       12.12890
C          9.14140        5.16100       11.07610
N          9.32790        6.15510       11.62200
C          8.21690       -1.55790        8.40700
C          9.55180       -2.14050        7.89650
C          9.18870       -3.53720        7.44690
C          8.47090       -3.42980        6.33610
C          8.33680       -1.95840        6.01640
C          9.68980       -1.45200        6.53240
C          7.37160       -1.43060        7.09930
C          7.38130        6.93050        7.66430
C          7.63450        8.30210        7.75510
C          6.94640        8.91280        6.71540
C          6.29040        7.88880        6.03290
O          6.56230        6.71200        6.61360
C          5.47910        7.84450        4.86960
C          4.98690        8.85890        4.05990
C          5.05830       10.29400        4.33750
C          5.45430       11.18100        3.34120
C          5.49220       12.53780        3.60330
C          5.12800       13.01970        4.84790
C          4.71370       12.14940        5.84970
C          4.26280       12.67380        7.18290
C          2.77200       13.01540        7.14490
C          4.67910       10.78990        5.58160
C          4.34050        8.32270        2.93310
S          3.53700        9.06680        1.56850
C          3.14950        7.48930        0.97050
C          2.52580        6.89550       -0.13650
C          2.00000        7.46910       -1.31410
C          1.50970        6.60330       -2.34640
N          1.09080        7.26980       -3.41050
S          1.29420        8.85310       -3.13520
N          1.92480        8.74820       -1.64680
C          1.47430        5.21200       -2.10930
C          0.91840        4.17140       -2.86900
S          0.05620        3.93980       -4.35650
C         -0.19720        2.26510       -3.91800
C         -0.91720        1.22140       -4.52120
C         -1.52380        1.36580       -5.85040
C         -1.02440        0.62660       -6.91910
C         -1.53850        0.82000       -8.18530
C         -2.54870        1.74170       -8.39410
C         -3.05460        2.48870       -7.33910
C         -4.10460        3.53590       -7.57180
C         -3.44730        4.89270       -7.83310
C         -2.52650        2.29960       -6.07040
C         -0.91750        0.07630       -3.73530
S          0.08140        0.27240       -2.30150
C          0.39500        1.91810       -2.70250
C          1.03310        3.00950       -2.10330
N          1.64960        3.28580       -0.91460
C          1.94750        4.63800       -0.89220
C          2.57390        5.48430        0.06410
N          3.25970        5.24470        1.24110
C          3.60140        6.45140        1.78890
C          4.30040        6.92340        2.90680
S          5.11220        6.23810        4.26720
C          3.81050        4.03190        1.79860
C          3.09050        3.60270        3.07780
C          1.61920        2.28620        0.12870
C          2.66690        1.19520       -0.08660
C         -1.67540       -1.11140       -3.92240
C         -1.74010       -2.25580       -3.13040
N         -1.01350       -2.53150       -1.96780
C         -0.45860       -3.82420       -1.90720
C          0.23090       -4.31440       -3.01210
C          0.74760       -5.59500       -2.99850
C          0.59770       -6.41400       -1.88770
C          1.13300       -7.81310       -1.87720
C         -0.08870       -5.91400       -0.78650
C         -0.61670       -4.63980       -0.79040
C         -1.17090       -1.76510       -0.81520
C         -0.18000       -1.77180        0.16800
C         -0.28540       -0.94780        1.26870
C         -1.36690       -0.08910        1.42630
C         -1.47100        0.81910        2.61440
C         -2.36060       -0.10140        0.45480
C         -2.27410       -0.92790       -0.64700
C         -2.65100       -3.20040       -3.65240
S         -3.21090       -4.72590       -3.06850
C         -4.35450       -4.82150       -4.41140
C         -4.32100       -3.65700       -5.22310
N         -5.16970       -3.38740       -6.26570
C         -4.69270       -2.66570       -7.37510
C         -5.48140       -1.68830       -7.97430
C         -5.04360       -1.05010       -9.11700
C         -3.81610       -1.36150       -9.68830
C         -3.38850       -0.73900      -10.98150
C         -3.01530       -2.30540       -9.05570
C         -3.44170       -2.95340       -7.91440
C         -6.52860       -3.75430       -6.23060
C         -7.17530       -4.16570       -7.39370
C         -8.50160       -4.54550       -7.34770
C         -9.21260       -4.53710       -6.15320
C        -10.63610       -5.00080       -6.11710
C         -8.56510       -4.10070       -5.00330
C         -7.24370       -3.70250       -5.03640
C         -3.32050       -2.77440       -4.79050
S         -2.79670       -1.19510       -5.28450
C         -5.14900       -5.92840       -4.70090
C         -5.38460       -7.07630       -3.97770
C         -4.88770       -7.37410       -2.63370
O         -4.06240       -6.75210       -1.98510
C         -5.59730       -8.58930       -2.19170
C         -5.47870       -9.23080       -0.96220
C         -6.28530      -10.33580       -0.82800
C         -7.14180      -10.77370       -1.84540
C         -7.26090      -10.15400       -3.06750
C         -6.45510       -9.02360       -3.22160
C         -6.30290       -8.12010       -4.36270
C         -6.91930       -8.27190       -5.58250
C         -7.88500       -9.25440       -5.87390
N         -8.70120      -10.00450       -6.17710
C         -6.65900       -7.50030       -6.73040
N         -6.48430       -6.94850       -7.72440
C         -7.66210      -11.92520       -1.02170
C         -9.06300      -11.77600       -0.37830
C         -9.29220      -10.29740       -0.18730
C         -8.48090       -9.88310        0.77660
C         -7.68820      -11.07430        1.25460
C         -8.73130      -12.18710        1.06510
C         -6.70680      -11.43730        0.11260
H          8.48260        6.30030        9.30600
H          6.37190        1.40730        5.94770
H          9.10810        0.90740       10.17830
H          7.80140       -2.11610        9.24390
H         10.38280       -2.04990        8.59050
H          9.43570       -4.42730        7.99530
H          7.99820       -4.21210        5.77140
H          8.06180       -1.70250        4.99650
H          9.76590       -0.36770        6.58830
H         10.52450       -1.84640        5.95510
H          6.39220       -1.90460        7.06450
H          8.25280        8.77500        8.49130
H          6.92490        9.95370        6.46790
H          5.74420       10.80390        2.37240
H          5.80750       13.22360        2.83110
H          5.16150       14.08120        5.04610
H          4.44080       11.92340        7.95600
H          4.83080       13.57050        7.43890
H          2.18800       12.13130        6.89850
H          2.44330       13.39160        8.11080
H          2.57660       13.77450        6.39090
H          4.34060       10.10190        6.34340
H         -0.23090       -0.08660       -6.75050
H         -1.14020        0.25460       -9.01360
H         -2.94470        1.88940       -9.38790
H         -4.75210        3.61220       -6.69610
H         -4.72060        3.25990       -8.43000
H         -2.82950        5.18240       -6.98620
H         -2.81290        4.84140       -8.71510
H         -4.20300        5.65840       -7.99220
H         -2.90210        2.87920       -5.23920
H          3.78780        3.25250        1.04170
H          4.86000        4.22880        2.04420
H          3.32100        4.28870        3.88790
H          2.01040        3.59090        2.94510
H          3.42160        2.60970        3.36870
H          1.73440        2.77010        1.09370
H          0.62920        1.81520        0.10800
H          2.66320        0.51510        0.76010
H          2.43300        0.62550       -0.98170
H          3.66560        1.61100       -0.20280
H          0.35350       -3.68610       -3.88290
H          1.27600       -5.96240       -3.86670
H          0.31560       -8.52360       -2.00240
H          1.84440       -7.96530       -2.68520
H          1.62280       -8.03250       -0.93020
H         -0.22750       -6.54160        0.08160
H         -1.17090       -4.27780        0.06230
H          0.68210       -2.40970        0.04600
H          0.49610       -0.96150        2.01550
H         -2.21270        0.43770        3.31660
H         -1.78460        1.81680        2.31170
H         -0.51800        0.89110        3.13360
H         -3.21720        0.54880        0.56260
H         -3.05650       -0.92020       -1.39170
H         -6.44260       -1.44390       -7.54710
H         -5.67330       -0.30330       -9.57850
H         -3.58220       -1.43020      -11.80320
H         -2.32350       -0.51830      -10.97980
H         -3.94130        0.17690      -11.17560
H         -2.05290       -2.55650       -9.47740
H         -2.82250       -3.70810       -7.45170
H         -6.63060       -4.20510       -8.32360
H         -8.98640       -4.87800       -8.25300
H        -11.08240       -4.81870       -5.14260
H        -11.22550       -4.48780       -6.87520
H        -10.68590       -6.06950       -6.32620
H         -9.10310       -4.06620       -4.06680
H         -6.75620       -3.36200       -4.13460
H         -5.68370       -5.84960       -5.63860
H         -4.80330       -8.86030       -0.20680
H         -7.92300      -10.50580       -3.84080
H         -7.49910      -12.91950       -1.43320
H         -9.85340      -12.32240       -0.88610
H         -9.95730       -9.71140       -0.79430
H         -8.33250       -8.88140        1.13580
H         -7.22700      -10.98220        2.23470
H         -9.58170      -12.08660        1.73800
H         -8.31490      -13.19040        1.14570
H         -5.92000      -12.11380        0.44140
