166

C         -3.03170        8.20260       -4.36150
C         -3.93360        8.40460       -3.36700
C         -4.36860        7.36770       -2.39150
O         -4.03660        6.20330       -2.33270
C         -5.19020        8.07830       -1.39450
C         -5.80220        7.51790       -0.27550
C         -6.46750        8.42450        0.51270
C         -6.51390        9.79380        0.21550
C         -5.91640       10.35930       -0.88510
C         -5.23710        9.45170       -1.70500
C         -4.48700        9.67790       -2.93640
C         -4.38140       10.87140       -3.60020
C         -4.94860       12.08570       -3.16010
N         -5.37510       13.10930       -2.86190
C         -3.70780       11.06330       -4.82530
N         -3.19220       11.30630       -5.82240
C         -7.32240       10.11390        1.44800
C         -6.58080       10.74470        2.65280
C         -5.14400       10.29500        2.55760
C         -5.10570        8.99890        2.83650
C         -6.51660        8.54860        3.12490
C         -7.07900        9.82180        3.77660
C         -7.27560        8.58810        1.77530
C         -2.60310        6.90960       -4.81580
C         -3.49580        5.82670       -4.96260
N         -4.83120        5.76510       -4.87140
N         -5.10390        4.50720       -5.06690
C         -6.44450        4.00580       -4.99060
C         -6.71050        3.45320       -3.59390
N         -4.10180        3.71070       -5.28900
C         -3.02920        4.51340       -5.25990
C         -1.65290        4.24740       -5.43500
C         -0.81060        5.35030       -5.36600
C         -1.27020        6.63680       -5.09710
C         -1.15320        2.90320       -5.54540
C         -1.76270        1.77400       -6.05990
C         -2.97190        1.80100       -6.87860
C         -3.96410        0.83950       -6.71540
C         -5.12120        0.91100       -7.46700
C         -5.30110        1.93470       -8.38090
C         -4.30930        2.88830       -8.57520
C         -4.51230        4.03660       -9.52200
C         -5.01030        5.26690       -8.76010
C         -3.14580        2.80310       -7.82860
C         -1.04200        0.60740       -5.72380
S         -1.34770       -1.09790       -5.96790
C          0.04960       -1.46630       -5.01250
C          0.69310       -2.57720       -4.44250
C          0.43670       -3.96030       -4.56100
C          1.22500       -4.88130       -3.79420
N          0.88530       -6.14200       -4.01180
S         -0.32300       -6.16800       -5.09000
N         -0.46260       -4.57110       -5.31630
C          2.17460       -4.36990       -2.88290
C          2.90070       -5.00520       -1.86430
S          3.07930       -6.57930       -1.16410
C          4.01950       -5.87180        0.13320
C          4.57590       -6.39990        1.31280
C          4.56530       -7.82490        1.64320
C          5.71640       -8.44800        2.12280
C          5.70460       -9.80220        2.39280
C          4.55490      -10.54630        2.18740
C          3.40130       -9.94400        1.70150
C          2.13960      -10.73530        1.51210
C          1.28290      -10.68640        2.77890
C          3.41840       -8.58340        1.43290
C          5.18890       -5.40660        2.06420
S          5.14870       -3.84010        1.27550
C          4.21540       -4.49500       -0.01880
C          3.56830       -4.00230       -1.15730
N          3.31700       -2.78170       -1.72170
C          2.43830       -2.97290       -2.77390
C          1.74980       -2.07420       -3.63050
N          1.78010       -0.69240       -3.76380
C          0.73810       -0.33400       -4.57620
C          0.11780        0.85190       -4.98710
S          0.35590        2.54030       -4.72200
C          2.86860        0.24120       -3.56900
C          4.14010       -0.22850       -4.27120
C          3.67460       -1.58500       -0.99650
C          2.46380       -0.97020       -0.29820
C          5.67070       -5.42640        3.40970
C          6.58200       -4.44130        3.84980
N          7.22840       -3.48610        3.16770
N          7.93390       -2.86880        4.07080
C          8.74980       -1.73650        3.73910
C          7.86980       -0.52680        3.44190
N          7.83220       -3.30330        5.29670
C          6.97310       -4.32670        5.21310
C          6.38610       -5.13990        6.20840
C          5.52050       -6.12980        5.73840
C          5.19870       -6.28940        4.39880
C          6.67920       -4.92260        7.58510
C          5.84790       -5.12020        8.64730
C          6.39900       -5.23090       10.01990
O          7.52760       -4.99700       10.37420
C          5.26640       -5.73480       10.84320
C          4.10380       -5.80540       10.05340
C          2.91370       -6.27290       10.58320
C          2.90220       -6.66260       11.91460
F          1.76830       -7.12610       12.44660
C          4.03920       -6.58730       12.71580
F          3.98450       -6.96410       13.99640
C          5.23780       -6.11780       12.17230
F          6.31920       -6.05120       12.94220
C          4.41570       -5.29390        8.71720
C          3.48650       -4.81870        7.82700
C          2.09330       -4.94680        7.99730
N          0.95190       -5.04430        8.07410
C          3.79530       -4.05090        6.68430
N          3.95150       -3.35590        5.78390
H         -2.55100        9.05410       -4.82730
H         -5.73290        6.45910       -0.07940
H         -5.95690       11.41490       -1.09600
H         -8.29540       10.56980        1.27600
H         -6.74220       11.81250        2.77280
H         -4.33590       10.93310        2.25120
H         -4.25950        8.33750        2.80910
H         -6.62030        7.61670        3.67460
H         -8.16300        9.81260        3.88250
H         -6.61730       10.04170        4.73800
H         -8.21870        8.04620        1.81330
H         -7.11590        4.83710       -5.21310
H         -6.54580        3.21890       -5.74180
H         -6.53810        4.22750       -2.85000
H         -6.04140        2.62050       -3.39280
H         -7.73800        3.10920       -3.51760
H          0.25050        5.19790       -5.50630
H         -0.55070        7.43990       -5.02760
H         -3.84050        0.05690       -5.98310
H         -5.89410        0.16810       -7.33230
H         -6.21590        1.99250       -8.95400
H         -3.57010        4.28000      -10.01720
H         -5.24190        3.76640      -10.28770
H         -4.29170        5.55870       -7.99680
H         -5.95920        5.05280       -8.27210
H         -5.15090        6.10550       -9.43780
H         -2.36220        3.53280       -7.97990
H          6.61640       -7.86890        2.26850
H          6.59930      -10.28310        2.76010
H          4.55510      -11.60580        2.39900
H          2.38540      -11.77400        1.28350
H          1.57030      -10.32530        0.67590
H          1.01410       -9.65920        3.01550
H          1.83010      -11.10020        3.62330
H          0.36980      -11.26070        2.64230
H          2.52330       -8.10320        1.06570
H          3.03970        0.42860       -2.50850
H          2.54390        1.18740       -4.00920
H          4.94120        0.48700       -4.10500
H          4.45620       -1.20300       -3.90610
H          3.96480       -0.31010       -5.34150
H          4.40730       -1.88640       -0.24380
H          4.16740       -0.87330       -1.65770
H          1.67460       -0.73800       -1.00940
H          2.06660       -1.66950        0.43360
H          2.75400       -0.05930        0.21820
H          9.40000       -1.55040        4.59500
H          9.34820       -1.99190        2.86100
H          8.48900        0.32370        3.17190
H          7.19800       -0.75390        2.61780
H          7.27730       -0.26730        4.31570
H          5.08850       -6.81660        6.45270
H          4.51010       -7.07230        4.12160
H          7.68320       -4.58500        7.81830
H          2.00630       -6.35220       10.00750
