
  xtb     02192209473D
 energy: -433.032190670961 gnorm: 0.000467750233 xtb: 6.4.1 (unknown)
281311  0     0  0            999 V2000
   -0.6864   -9.9050   -7.3333 C   0  0  0  0  0  0  0  0  0  0  0  0
   -1.8127  -10.4281   -6.7616 C   0  0  0  0  0  0  0  0  0  0  0  0
   -2.1181  -10.2746   -5.3215 C   0  0  0  0  0  0  0  0  0  0  0  0
   -1.4634   -9.6714   -4.4967 O   0  0  0  0  0  0  0  0  0  0  0  0
   -3.2725  -11.1550   -5.0631 C   0  0  0  0  0  0  0  0  0  0  0  0
   -3.9237  -11.3444   -3.8473 C   0  0  0  0  0  0  0  0  0  0  0  0
   -4.9576  -12.2482   -3.8999 C   0  0  0  0  0  0  0  0  0  0  0  0
   -5.3013  -12.9367   -5.0712 C   0  0  0  0  0  0  0  0  0  0  0  0
   -4.6628  -12.7650   -6.2761 C   0  0  0  0  0  0  0  0  0  0  0  0
   -3.6217  -11.8328   -6.2483 C   0  0  0  0  0  0  0  0  0  0  0  0
   -2.7368  -11.3844   -7.3199 C   0  0  0  0  0  0  0  0  0  0  0  0
   -2.8335  -11.7119   -8.6493 C   0  0  0  0  0  0  0  0  0  0  0  0
   -2.0248  -11.1413   -9.6534 C   0  0  0  0  0  0  0  0  0  0  0  0
   -1.4161  -10.6913  -10.5173 N   0  0  0  0  0  0  0  0  0  0  0  0
   -3.7657  -12.6225   -9.1829 C   0  0  0  0  0  0  0  0  0  0  0  0
   -4.4968  -13.3600   -9.6738 N   0  0  0  0  0  0  0  0  0  0  0  0
   -6.4022  -13.7107   -4.3894 C   0  0  0  0  0  0  0  0  0  0  0  0
   -7.8650  -13.2747   -4.6460 C   0  0  0  0  0  0  0  0  0  0  0  0
   -7.8196  -11.8066   -4.9889 C   0  0  0  0  0  0  0  0  0  0  0  0
   -7.5050  -11.1436   -3.8845 C   0  0  0  0  0  0  0  0  0  0  0  0
   -7.3285  -12.1502   -2.7757 C   0  0  0  0  0  0  0  0  0  0  0  0
   -8.3709  -13.1989   -3.1963 C   0  0  0  0  0  0  0  0  0  0  0  0
   -6.0290  -12.9337   -3.0876 C   0  0  0  0  0  0  0  0  0  0  0  0
   -0.0697   -8.7151   -6.8797 C   0  0  0  0  0  0  0  0  0  0  0  0
   -0.7072   -7.5094   -6.5846 C   0  0  0  0  0  0  0  0  0  0  0  0
   -2.0805   -7.2654   -6.6821 N   0  0  0  0  0  0  0  0  0  0  0  0
   -2.4682   -6.4090   -7.7239 C   0  0  0  0  0  0  0  0  0  0  0  0
   -3.4417   -5.4299   -7.5389 C   0  0  0  0  0  0  0  0  0  0  0  0
   -3.8040   -4.6068   -8.5859 C   0  0  0  0  0  0  0  0  0  0  0  0
   -3.2067   -4.7226   -9.8356 C   0  0  0  0  0  0  0  0  0  0  0  0
   -3.6200   -3.8371  -10.9713 C   0  0  0  0  0  0  0  0  0  0  0  0
   -2.2309   -5.6964  -10.0094 C   0  0  0  0  0  0  0  0  0  0  0  0
   -1.8631   -6.5315   -8.9736 C   0  0  0  0  0  0  0  0  0  0  0  0
   -2.9339   -7.4693   -5.5880 C   0  0  0  0  0  0  0  0  0  0  0  0
   -4.2429   -7.8876   -5.8085 C   0  0  0  0  0  0  0  0  0  0  0  0
   -5.0936   -8.0912   -4.7416 C   0  0  0  0  0  0  0  0  0  0  0  0
   -4.6623   -7.8964   -3.4336 C   0  0  0  0  0  0  0  0  0  0  0  0
   -5.5862   -8.1413   -2.2784 C   0  0  0  0  0  0  0  0  0  0  0  0
   -3.3515   -7.4895   -3.2247 C   0  0  0  0  0  0  0  0  0  0  0  0
   -2.4917   -7.2728   -4.2843 C   0  0  0  0  0  0  0  0  0  0  0  0
    0.2316   -6.4814   -6.3951 C   0  0  0  0  0  0  0  0  0  0  0  0
    0.0705   -4.8169   -5.9807 S   0  0  0  0  0  0  0  0  0  0  0  0
    1.8203   -4.6601   -5.8695 C   0  0  0  0  0  0  0  0  0  0  0  0
    2.4871   -5.8324   -6.2214 C   0  0  0  0  0  0  0  0  0  0  0  0
    3.8569   -5.9862   -6.3212 N   0  0  0  0  0  0  0  0  0  0  0  0
    4.4101   -7.2363   -5.9897 C   0  0  0  0  0  0  0  0  0  0  0  0
    5.3969   -7.8132   -6.7835 C   0  0  0  0  0  0  0  0  0  0  0  0
    5.9192   -9.0466   -6.4496 C   0  0  0  0  0  0  0  0  0  0  0  0
    5.4713   -9.7390   -5.3307 C   0  0  0  0  0  0  0  0  0  0  0  0
    6.0158  -11.0926   -4.9928 C   0  0  0  0  0  0  0  0  0  0  0  0
    4.4863   -9.1549   -4.5437 C   0  0  0  0  0  0  0  0  0  0  0  0
    3.9625   -7.9177   -4.8607 C   0  0  0  0  0  0  0  0  0  0  0  0
    4.6683   -4.9612   -6.8232 C   0  0  0  0  0  0  0  0  0  0  0  0
    4.1836   -4.0558   -7.7636 C   0  0  0  0  0  0  0  0  0  0  0  0
    4.9838   -3.0257   -8.2147 C   0  0  0  0  0  0  0  0  0  0  0  0
    6.2858   -2.8702   -7.7553 C   0  0  0  0  0  0  0  0  0  0  0  0
    7.1353   -1.7289   -8.2235 C   0  0  0  0  0  0  0  0  0  0  0  0
    6.7698   -3.7888   -6.8317 C   0  0  0  0  0  0  0  0  0  0  0  0
    5.9775   -4.8185   -6.3658 C   0  0  0  0  0  0  0  0  0  0  0  0
    1.5613   -6.8679   -6.4988 C   0  0  0  0  0  0  0  0  0  0  0  0
    1.6790   -8.5415   -6.9210 S   0  0  0  0  0  0  0  0  0  0  0  0
    2.3013   -3.4280   -5.3483 C   0  0  0  0  0  0  0  0  0  0  0  0
    3.4788   -3.1194   -4.7004 C   0  0  0  0  0  0  0  0  0  0  0  0
    3.4353   -1.8460   -4.1237 C   0  0  0  0  0  0  0  0  0  0  0  0
    4.4752   -0.9868   -3.0179 S   0  0  0  0  0  0  0  0  0  0  0  0
    3.2238    0.1967   -2.7723 C   0  0  0  0  0  0  0  0  0  0  0  0
    2.9459    1.2036   -1.7909 C   0  0  0  0  0  0  0  0  0  0  0  0
    3.7225    1.7186   -0.7567 C   0  0  0  0  0  0  0  0  0  0  0  0
    3.1113    2.5854    0.1199 C   0  0  0  0  0  0  0  0  0  0  0  0
    3.7143    3.2800    1.3376 C   0  0  0  0  0  0  0  0  0  0  0  0
    4.6916    4.3654    0.9165 C   0  0  0  0  0  0  0  0  0  0  0  0
    5.7400    4.7536    1.7392 C   0  0  0  0  0  0  0  0  0  0  0  0
    6.5971    5.7684    1.3590 C   0  0  0  0  0  0  0  0  0  0  0  0
    6.4245    6.4357    0.1538 C   0  0  0  0  0  0  0  0  0  0  0  0
    7.3791    7.5128   -0.2748 C   0  0  0  0  0  0  0  0  0  0  0  0
    8.6407    6.9041   -0.8895 C   0  0  0  0  0  0  0  0  0  0  0  0
    5.3665    6.0558   -0.6601 C   0  0  0  0  0  0  0  0  0  0  0  0
    4.5091    5.0387   -0.2850 C   0  0  0  0  0  0  0  0  0  0  0  0
    4.3309    2.2023    2.2020 C   0  0  0  0  0  0  0  0  0  0  0  0
    3.5925    1.5614    3.1848 C   0  0  0  0  0  0  0  0  0  0  0  0
    4.1413    0.5194    3.9109 C   0  0  0  0  0  0  0  0  0  0  0  0
    5.4317    0.0749    3.6632 C   0  0  0  0  0  0  0  0  0  0  0  0
    6.0323   -1.0580    4.4484 C   0  0  0  0  0  0  0  0  0  0  0  0
    7.3149   -0.6454    5.1703 C   0  0  0  0  0  0  0  0  0  0  0  0
    6.1566    0.6989    2.6550 C   0  0  0  0  0  0  0  0  0  0  0  0
    5.6169    1.7451    1.9346 C   0  0  0  0  0  0  0  0  0  0  0  0
    2.4930    3.9541    1.9291 C   0  0  0  0  0  0  0  0  0  0  0  0
    1.4005    3.7339    1.0939 C   0  0  0  0  0  0  0  0  0  0  0  0
    1.7430    2.9050   -0.0138 C   0  0  0  0  0  0  0  0  0  0  0  0
    0.9728    2.4233   -1.0699 C   0  0  0  0  0  0  0  0  0  0  0  0
    1.5926    1.5863   -1.9657 C   0  0  0  0  0  0  0  0  0  0  0  0
    0.9933    0.9260   -3.1924 C   0  0  0  0  0  0  0  0  0  0  0  0
    0.7854    1.9019   -4.3394 C   0  0  0  0  0  0  0  0  0  0  0  0
    0.9993    3.2663   -4.2120 C   0  0  0  0  0  0  0  0  0  0  0  0
    0.8135    4.1105   -5.2929 C   0  0  0  0  0  0  0  0  0  0  0  0
    0.4153    3.6188   -6.5273 C   0  0  0  0  0  0  0  0  0  0  0  0
    0.2527    4.5350   -7.7059 C   0  0  0  0  0  0  0  0  0  0  0  0
    1.5776    4.6821   -8.4568 C   0  0  0  0  0  0  0  0  0  0  0  0
    0.2152    2.2499   -6.6548 C   0  0  0  0  0  0  0  0  0  0  0  0
    0.3975    1.4037   -5.5792 C   0  0  0  0  0  0  0  0  0  0  0  0
   -0.2498    0.1059   -2.8893 C   0  0  0  0  0  0  0  0  0  0  0  0
   -0.1115   -1.0665   -2.1531 C   0  0  0  0  0  0  0  0  0  0  0  0
   -1.1749   -1.9325   -1.9996 C   0  0  0  0  0  0  0  0  0  0  0  0
   -2.4117   -1.6484   -2.5651 C   0  0  0  0  0  0  0  0  0  0  0  0
   -3.5205   -2.6597   -2.5205 C   0  0  0  0  0  0  0  0  0  0  0  0
   -3.3761   -3.6444   -3.6844 C   0  0  0  0  0  0  0  0  0  0  0  0
   -2.5674   -0.4383   -3.2255 C   0  0  0  0  0  0  0  0  0  0  0  0
   -1.5033    0.4326   -3.3838 C   0  0  0  0  0  0  0  0  0  0  0  0
    2.1099   -0.0173   -3.5594 C   0  0  0  0  0  0  0  0  0  0  0  0
    2.2266   -1.1698   -4.3305 C   0  0  0  0  0  0  0  0  0  0  0  0
    1.1516   -2.0969   -5.3037 S   0  0  0  0  0  0  0  0  0  0  0  0
   -0.0677    4.4662    1.6238 S   0  0  0  0  0  0  0  0  0  0  0  0
    0.7857    5.0815    2.9887 C   0  0  0  0  0  0  0  0  0  0  0  0
    0.4473    5.8317    4.1342 C   0  0  0  0  0  0  0  0  0  0  0  0
    1.5855    5.9906    4.9233 C   0  0  0  0  0  0  0  0  0  0  0  0
    2.7834    5.3145    4.2793 C   0  0  0  0  0  0  0  0  0  0  0  0
    2.1462    4.7474    3.0227 C   0  0  0  0  0  0  0  0  0  0  0  0
    3.7987    6.4106    4.0289 C   0  0  0  0  0  0  0  0  0  0  0  0
    4.5597    6.8932    5.0891 C   0  0  0  0  0  0  0  0  0  0  0  0
    5.4285    7.9494    4.9074 C   0  0  0  0  0  0  0  0  0  0  0  0
    5.5566    8.5646    3.6670 C   0  0  0  0  0  0  0  0  0  0  0  0
    6.5252    9.6980    3.4799 C   0  0  0  0  0  0  0  0  0  0  0  0
    7.9733    9.2130    3.5617 C   0  0  0  0  0  0  0  0  0  0  0  0
    4.7771    8.0972    2.6203 C   0  0  0  0  0  0  0  0  0  0  0  0
    3.9027    7.0390    2.7980 C   0  0  0  0  0  0  0  0  0  0  0  0
    3.2833    4.1765    5.1532 C   0  0  0  0  0  0  0  0  0  0  0  0
    2.3584    3.3996    5.8419 C   0  0  0  0  0  0  0  0  0  0  0  0
    2.7724    2.3629    6.6542 C   0  0  0  0  0  0  0  0  0  0  0  0
    4.1207    2.0631    6.7969 C   0  0  0  0  0  0  0  0  0  0  0  0
    4.5671    0.9809    7.7365 C   0  0  0  0  0  0  0  0  0  0  0  0
    4.8228    1.5574    9.1305 C   0  0  0  0  0  0  0  0  0  0  0  0
    5.0395    2.8239    6.0883 C   0  0  0  0  0  0  0  0  0  0  0  0
    4.6289    3.8633    5.2737 C   0  0  0  0  0  0  0  0  0  0  0  0
    1.3404    6.6998    6.0889 C   0  0  0  0  0  0  0  0  0  0  0  0
    0.0070    7.0674    6.2088 C   0  0  0  0  0  0  0  0  0  0  0  0
   -0.9479    6.5399    4.8334 S   0  0  0  0  0  0  0  0  0  0  0  0
   -0.6161    7.7424    7.2846 C   0  0  0  0  0  0  0  0  0  0  0  0
    0.0085    8.3779    8.3492 C   0  0  0  0  0  0  0  0  0  0  0  0
   -0.8932    8.9303    9.2424 C   0  0  0  0  0  0  0  0  0  0  0  0
   -0.3706    9.8267   10.6744 S   0  0  0  0  0  0  0  0  0  0  0  0
   -0.8622   11.5252   10.1881 C   0  0  0  0  0  0  0  0  0  0  0  0
   -0.0255   12.0349    9.0329 C   0  0  0  0  0  0  0  0  0  0  0  0
   -2.2409    8.6920    8.9218 C   0  0  0  0  0  0  0  0  0  0  0  0
   -2.3457    7.8195    7.4110 S   0  0  0  0  0  0  0  0  0  0  0  0
   -3.3015    9.0537    9.7585 C   0  0  0  0  0  0  0  0  0  0  0  0
   -4.6447    8.7958    9.6430 C   0  0  0  0  0  0  0  0  0  0  0  0
   -5.2783    7.9854    8.5983 C   0  0  0  0  0  0  0  0  0  0  0  0
   -4.7729    7.5726    7.5684 O   0  0  0  0  0  0  0  0  0  0  0  0
   -6.6618    7.7461    9.0462 C   0  0  0  0  0  0  0  0  0  0  0  0
   -7.6236    6.9603    8.4172 C   0  0  0  0  0  0  0  0  0  0  0  0
   -8.8209    6.8991    9.0893 C   0  0  0  0  0  0  0  0  0  0  0  0
   -9.0432    7.5655   10.3013 C   0  0  0  0  0  0  0  0  0  0  0  0
   -8.1032    8.3475   10.9305 C   0  0  0  0  0  0  0  0  0  0  0  0
   -6.8807    8.4293   10.2594 C   0  0  0  0  0  0  0  0  0  0  0  0
   -5.6617    9.1587   10.6060 C   0  0  0  0  0  0  0  0  0  0  0  0
   -5.5467   10.0854   11.6117 C   0  0  0  0  0  0  0  0  0  0  0  0
   -6.5763   10.4114   12.5172 C   0  0  0  0  0  0  0  0  0  0  0  0
   -7.3659   10.7243   13.2904 N   0  0  0  0  0  0  0  0  0  0  0  0
   -4.4146   10.8946   11.8357 C   0  0  0  0  0  0  0  0  0  0  0  0
   -3.5494   11.6206   12.0479 N   0  0  0  0  0  0  0  0  0  0  0  0
  -10.4591    7.0577   10.4126 C   0  0  0  0  0  0  0  0  0  0  0  0
  -11.6063    8.0380   10.0649 C   0  0  0  0  0  0  0  0  0  0  0  0
  -11.0337    9.0396    9.0930 C   0  0  0  0  0  0  0  0  0  0  0  0
  -10.8236    8.4131    7.9430 C   0  0  0  0  0  0  0  0  0  0  0  0
  -11.2504    6.9765    8.1165 C   0  0  0  0  0  0  0  0  0  0  0  0
  -12.4173    7.1577    9.1005 C   0  0  0  0  0  0  0  0  0  0  0  0
  -10.2127    6.3187    9.0595 C   0  0  0  0  0  0  0  0  0  0  0  0
   -0.2304  -10.3903   -8.1875 H   0  0  0  0  0  0  0  0  0  0  0  0
   -3.6101  -10.8060   -2.9669 H   0  0  0  0  0  0  0  0  0  0  0  0
   -4.9298  -13.3097   -7.1667 H   0  0  0  0  0  0  0  0  0  0  0  0
   -6.2867  -14.7928   -4.3847 H   0  0  0  0  0  0  0  0  0  0  0  0
   -8.4125  -13.9120   -5.3351 H   0  0  0  0  0  0  0  0  0  0  0  0
   -7.9611  -11.4187   -5.9807 H   0  0  0  0  0  0  0  0  0  0  0  0
   -7.3348  -10.0905   -3.7670 H   0  0  0  0  0  0  0  0  0  0  0  0
   -7.3907  -11.7637   -1.7612 H   0  0  0  0  0  0  0  0  0  0  0  0
   -8.2824  -14.1404   -2.6559 H   0  0  0  0  0  0  0  0  0  0  0  0
   -9.3927  -12.8289   -3.1252 H   0  0  0  0  0  0  0  0  0  0  0  0
   -5.6810  -13.5106   -2.2324 H   0  0  0  0  0  0  0  0  0  0  0  0
   -3.9024   -5.3113   -6.5697 H   0  0  0  0  0  0  0  0  0  0  0  0
   -4.5586   -3.8501   -8.4248 H   0  0  0  0  0  0  0  0  0  0  0  0
   -4.4336   -4.3017  -11.5296 H   0  0  0  0  0  0  0  0  0  0  0  0
   -3.9701   -2.8747  -10.6051 H   0  0  0  0  0  0  0  0  0  0  0  0
   -2.7923   -3.6753  -11.6578 H   0  0  0  0  0  0  0  0  0  0  0  0
   -1.7546   -5.8098  -10.9723 H   0  0  0  0  0  0  0  0  0  0  0  0
   -1.1128   -7.2915   -9.1350 H   0  0  0  0  0  0  0  0  0  0  0  0
   -4.5838   -8.0480   -6.8213 H   0  0  0  0  0  0  0  0  0  0  0  0
   -6.1070   -8.4148   -4.9317 H   0  0  0  0  0  0  0  0  0  0  0  0
   -5.6412   -9.2088   -2.0609 H   0  0  0  0  0  0  0  0  0  0  0  0
   -5.2327   -7.6317   -1.3851 H   0  0  0  0  0  0  0  0  0  0  0  0
   -6.5919   -7.7921   -2.5054 H   0  0  0  0  0  0  0  0  0  0  0  0
   -2.9950   -7.3352   -2.2166 H   0  0  0  0  0  0  0  0  0  0  0  0
   -1.4766   -6.9549   -4.1050 H   0  0  0  0  0  0  0  0  0  0  0  0
    5.7461   -7.2915   -7.6623 H   0  0  0  0  0  0  0  0  0  0  0  0
    6.6826   -9.4843   -7.0764 H   0  0  0  0  0  0  0  0  0  0  0  0
    5.3713  -11.8664   -5.4114 H   0  0  0  0  0  0  0  0  0  0  0  0
    6.0547  -11.2371   -3.9153 H   0  0  0  0  0  0  0  0  0  0  0  0
    7.0135  -11.2254   -5.4042 H   0  0  0  0  0  0  0  0  0  0  0  0
    4.1265   -9.6733   -3.6669 H   0  0  0  0  0  0  0  0  0  0  0  0
    3.2052   -7.4705   -4.2330 H   0  0  0  0  0  0  0  0  0  0  0  0
    3.1797   -4.1645   -8.1459 H   0  0  0  0  0  0  0  0  0  0  0  0
    4.5891   -2.3312   -8.9422 H   0  0  0  0  0  0  0  0  0  0  0  0
    6.8715   -1.4394   -9.2381 H   0  0  0  0  0  0  0  0  0  0  0  0
    8.1901   -1.9913   -8.1930 H   0  0  0  0  0  0  0  0  0  0  0  0
    6.9840   -0.8638   -7.5765 H   0  0  0  0  0  0  0  0  0  0  0  0
    7.7800   -3.6909   -6.4612 H   0  0  0  0  0  0  0  0  0  0  0  0
    6.3663   -5.5152   -5.6371 H   0  0  0  0  0  0  0  0  0  0  0  0
    4.3010   -3.7993   -4.5882 H   0  0  0  0  0  0  0  0  0  0  0  0
    4.7555    1.4275   -0.6471 H   0  0  0  0  0  0  0  0  0  0  0  0
    5.8918    4.2513    2.6816 H   0  0  0  0  0  0  0  0  0  0  0  0
    7.4066    6.0511    2.0168 H   0  0  0  0  0  0  0  0  0  0  0  0
    6.8985    8.1620   -1.0096 H   0  0  0  0  0  0  0  0  0  0  0  0
    7.6585    8.1229    0.5864 H   0  0  0  0  0  0  0  0  0  0  0  0
    9.3288    7.6868   -1.2008 H   0  0  0  0  0  0  0  0  0  0  0  0
    8.3844    6.3012   -1.7579 H   0  0  0  0  0  0  0  0  0  0  0  0
    9.1446    6.2656   -0.1674 H   0  0  0  0  0  0  0  0  0  0  0  0
    5.2079    6.5633   -1.6014 H   0  0  0  0  0  0  0  0  0  0  0  0
    3.6916    4.7662   -0.9368 H   0  0  0  0  0  0  0  0  0  0  0  0
    2.5797    1.8747    3.3895 H   0  0  0  0  0  0  0  0  0  0  0  0
    3.5483    0.0409    4.6767 H   0  0  0  0  0  0  0  0  0  0  0  0
    5.3043   -1.4152    5.1795 H   0  0  0  0  0  0  0  0  0  0  0  0
    6.2590   -1.8857    3.7701 H   0  0  0  0  0  0  0  0  0  0  0  0
    7.1284    0.2109    5.8143 H   0  0  0  0  0  0  0  0  0  0  0  0
    7.6853   -1.4655    5.7815 H   0  0  0  0  0  0  0  0  0  0  0  0
    8.0903   -0.3709    4.4599 H   0  0  0  0  0  0  0  0  0  0  0  0
    7.1540    0.3561    2.4202 H   0  0  0  0  0  0  0  0  0  0  0  0
    6.2033    2.2128    1.1568 H   0  0  0  0  0  0  0  0  0  0  0  0
   -0.0697    2.6878   -1.1659 H   0  0  0  0  0  0  0  0  0  0  0  0
    1.3101    3.6825   -3.2659 H   0  0  0  0  0  0  0  0  0  0  0  0
    0.9784    5.1717   -5.1698 H   0  0  0  0  0  0  0  0  0  0  0  0
   -0.0797    5.5184   -7.3672 H   0  0  0  0  0  0  0  0  0  0  0  0
   -0.5026    4.1337   -8.3847 H   0  0  0  0  0  0  0  0  0  0  0  0
    1.4599    5.3448   -9.3111 H   0  0  0  0  0  0  0  0  0  0  0  0
    1.9197    3.7128   -8.8126 H   0  0  0  0  0  0  0  0  0  0  0  0
    2.3407    5.0934   -7.7999 H   0  0  0  0  0  0  0  0  0  0  0  0
   -0.0917    1.8408   -7.6069 H   0  0  0  0  0  0  0  0  0  0  0  0
    0.2235    0.3444   -5.6987 H   0  0  0  0  0  0  0  0  0  0  0  0
    0.8458   -1.3143   -1.7160 H   0  0  0  0  0  0  0  0  0  0  0  0
   -1.0377   -2.8529   -1.4501 H   0  0  0  0  0  0  0  0  0  0  0  0
   -3.4852   -3.2106   -1.5782 H   0  0  0  0  0  0  0  0  0  0  0  0
   -4.4881   -2.1587   -2.5885 H   0  0  0  0  0  0  0  0  0  0  0  0
   -2.4176   -4.1556   -3.6341 H   0  0  0  0  0  0  0  0  0  0  0  0
   -3.4262   -3.1168   -4.6345 H   0  0  0  0  0  0  0  0  0  0  0  0
   -4.1661   -4.3921   -3.6556 H   0  0  0  0  0  0  0  0  0  0  0  0
   -3.5300   -0.1784   -3.6428 H   0  0  0  0  0  0  0  0  0  0  0  0
   -1.6500    1.3591   -3.9192 H   0  0  0  0  0  0  0  0  0  0  0  0
    4.4702    6.4359    6.0639 H   0  0  0  0  0  0  0  0  0  0  0  0
    6.0085    8.3106    5.7449 H   0  0  0  0  0  0  0  0  0  0  0  0
    6.3594   10.4504    4.2553 H   0  0  0  0  0  0  0  0  0  0  0  0
    6.3547   10.1693    2.5100 H   0  0  0  0  0  0  0  0  0  0  0  0
    8.1755    8.7705    4.5342 H   0  0  0  0  0  0  0  0  0  0  0  0
    8.6609   10.0418    3.4093 H   0  0  0  0  0  0  0  0  0  0  0  0
    8.1646    8.4600    2.8005 H   0  0  0  0  0  0  0  0  0  0  0  0
    4.8455    8.5661    1.6493 H   0  0  0  0  0  0  0  0  0  0  0  0
    3.3016    6.7050    1.9659 H   0  0  0  0  0  0  0  0  0  0  0  0
    1.3028    3.6107    5.7477 H   0  0  0  0  0  0  0  0  0  0  0  0
    2.0357    1.7786    7.1876 H   0  0  0  0  0  0  0  0  0  0  0  0
    3.7987    0.2079    7.8038 H   0  0  0  0  0  0  0  0  0  0  0  0
    5.4836    0.5195    7.3658 H   0  0  0  0  0  0  0  0  0  0  0  0
    3.9139    2.0034    9.5283 H   0  0  0  0  0  0  0  0  0  0  0  0
    5.5897    2.3276    9.0860 H   0  0  0  0  0  0  0  0  0  0  0  0
    5.1536    0.7765    9.8114 H   0  0  0  0  0  0  0  0  0  0  0  0
    6.0944    2.6046    6.1724 H   0  0  0  0  0  0  0  0  0  0  0  0
    5.3668    4.4447    4.7429 H   0  0  0  0  0  0  0  0  0  0  0  0
    2.0740    6.9262    6.8398 H   0  0  0  0  0  0  0  0  0  0  0  0
    1.0737    8.4607    8.4636 H   0  0  0  0  0  0  0  0  0  0  0  0
   -0.7059   12.1143   11.0900 H   0  0  0  0  0  0  0  0  0  0  0  0
   -1.9239   11.5224    9.9490 H   0  0  0  0  0  0  0  0  0  0  0  0
   -0.3082   13.0593    8.7991 H   0  0  0  0  0  0  0  0  0  0  0  0
    1.0315   12.0138    9.2891 H   0  0  0  0  0  0  0  0  0  0  0  0
   -0.1789   11.4219    8.1460 H   0  0  0  0  0  0  0  0  0  0  0  0
   -2.9786    9.5561   10.6641 H   0  0  0  0  0  0  0  0  0  0  0  0
   -7.4072    6.4579    7.4873 H   0  0  0  0  0  0  0  0  0  0  0  0
   -8.2872    8.8483   11.8664 H   0  0  0  0  0  0  0  0  0  0  0  0
  -10.6811    6.4533   11.2900 H   0  0  0  0  0  0  0  0  0  0  0  0
  -12.1259    8.4484   10.9266 H   0  0  0  0  0  0  0  0  0  0  0  0
  -10.7932   10.0541    9.3516 H   0  0  0  0  0  0  0  0  0  0  0  0
  -10.3721    8.7997    7.0480 H   0  0  0  0  0  0  0  0  0  0  0  0
  -11.4471    6.4204    7.2035 H   0  0  0  0  0  0  0  0  0  0  0  0
  -12.7572    6.2241    9.5470 H   0  0  0  0  0  0  0  0  0  0  0  0
  -13.2626    7.6838    8.6595 H   0  0  0  0  0  0  0  0  0  0  0  0
  -10.2768    5.2322    9.0529 H   0  0  0  0  0  0  0  0  0  0  0  0
  1  2  2  0  0  0  0
  2  3  1  0  0  0  0
  3  4  2  0  0  0  0
  3  5  1  0  0  0  0
  5  6  2  0  0  0  0
  6  7  1  0  0  0  0
  7  8  2  0  0  0  0
  8  9  1  0  0  0  0
  9 10  2  0  0  0  0
 10 11  1  0  0  0  0
 11 12  2  0  0  0  0
 12 13  1  0  0  0  0
 13 14  3  0  0  0  0
 12 15  1  0  0  0  0
 15 16  3  0  0  0  0
  8 17  1  0  0  0  0
 17 18  1  0  0  0  0
 18 19  1  0  0  0  0
 19 20  2  0  0  0  0
 20 21  1  0  0  0  0
 21 22  1  0  0  0  0
 21 23  1  0  0  0  0
  1 24  1  0  0  0  0
 24 25  2  0  0  0  0
 25 26  1  0  0  0  0
 26 27  1  0  0  0  0
 27 28  2  0  0  0  0
 28 29  1  0  0  0  0
 29 30  2  0  0  0  0
 30 31  1  0  0  0  0
 30 32  1  0  0  0  0
 32 33  2  0  0  0  0
 26 34  1  0  0  0  0
 34 35  2  0  0  0  0
 35 36  1  0  0  0  0
 36 37  2  0  0  0  0
 37 38  1  0  0  0  0
 37 39  1  0  0  0  0
 39 40  2  0  0  0  0
 25 41  1  0  0  0  0
 41 42  1  0  0  0  0
 42 43  1  0  0  0  0
 43 44  2  0  0  0  0
 44 45  1  0  0  0  0
 45 46  1  0  0  0  0
 46 47  2  0  0  0  0
 47 48  1  0  0  0  0
 48 49  2  0  0  0  0
 49 50  1  0  0  0  0
 49 51  1  0  0  0  0
 51 52  2  0  0  0  0
 45 53  1  0  0  0  0
 53 54  2  0  0  0  0
 54 55  1  0  0  0  0
 55 56  2  0  0  0  0
 56 57  1  0  0  0  0
 56 58  1  0  0  0  0
 58 59  2  0  0  0  0
 44 60  1  0  0  0  0
 60 61  1  0  0  0  0
 43 62  1  0  0  0  0
 62 63  2  0  0  0  0
 63 64  1  0  0  0  0
 64 65  1  0  0  0  0
 65 66  1  0  0  0  0
 66 67  1  0  0  0  0
 67 68  2  0  0  0  0
 68 69  1  0  0  0  0
 69 70  1  0  0  0  0
 70 71  1  0  0  0  0
 71 72  2  0  0  0  0
 72 73  1  0  0  0  0
 73 74  2  0  0  0  0
 74 75  1  0  0  0  0
 75 76  1  0  0  0  0
 74 77  1  0  0  0  0
 77 78  2  0  0  0  0
 70 79  1  0  0  0  0
 79 80  2  0  0  0  0
 80 81  1  0  0  0  0
 81 82  2  0  0  0  0
 82 83  1  0  0  0  0
 83 84  1  0  0  0  0
 82 85  1  0  0  0  0
 85 86  2  0  0  0  0
 70 87  1  0  0  0  0
 87 88  2  0  0  0  0
 88 89  1  0  0  0  0
 89 90  1  0  0  0  0
 90 91  2  0  0  0  0
 91 92  1  0  0  0  0
 92 93  1  0  0  0  0
 93 94  2  0  0  0  0
 94 95  1  0  0  0  0
 95 96  2  0  0  0  0
 96 97  1  0  0  0  0
 97 98  1  0  0  0  0
 96 99  1  0  0  0  0
 99100  2  0  0  0  0
 92101  1  0  0  0  0
101102  2  0  0  0  0
102103  1  0  0  0  0
103104  2  0  0  0  0
104105  1  0  0  0  0
105106  1  0  0  0  0
104107  1  0  0  0  0
107108  2  0  0  0  0
 92109  1  0  0  0  0
109110  1  0  0  0  0
110111  1  0  0  0  0
 88112  1  0  0  0  0
112113  1  0  0  0  0
113114  1  0  0  0  0
114115  2  0  0  0  0
115116  1  0  0  0  0
116117  1  0  0  0  0
116118  1  0  0  0  0
118119  2  0  0  0  0
119120  1  0  0  0  0
120121  2  0  0  0  0
121122  1  0  0  0  0
122123  1  0  0  0  0
121124  1  0  0  0  0
124125  2  0  0  0  0
116126  1  0  0  0  0
126127  2  0  0  0  0
127128  1  0  0  0  0
128129  2  0  0  0  0
129130  1  0  0  0  0
130131  1  0  0  0  0
129132  1  0  0  0  0
132133  2  0  0  0  0
115134  1  0  0  0  0
134135  2  0  0  0  0
135136  1  0  0  0  0
135137  1  0  0  0  0
137138  2  0  0  0  0
138139  1  0  0  0  0
139140  1  0  0  0  0
140141  1  0  0  0  0
141142  1  0  0  0  0
139143  2  0  0  0  0
143144  1  0  0  0  0
143145  1  0  0  0  0
145146  2  0  0  0  0
146147  1  0  0  0  0
147148  2  0  0  0  0
147149  1  0  0  0  0
149150  2  0  0  0  0
150151  1  0  0  0  0
151152  2  0  0  0  0
152153  1  0  0  0  0
153154  2  0  0  0  0
154155  1  0  0  0  0
155156  2  0  0  0  0
156157  1  0  0  0  0
157158  3  0  0  0  0
156159  1  0  0  0  0
159160  3  0  0  0  0
152161  1  0  0  0  0
161162  1  0  0  0  0
162163  1  0  0  0  0
163164  2  0  0  0  0
164165  1  0  0  0  0
165166  1  0  0  0  0
165167  1  0  0  0  0
 11  2  1  0  0  0  0
 23 17  1  0  0  0  0
 61 24  1  0  0  0  0
111 62  1  0  0  0  0
117113  2  0  0  0  0
125118  1  0  0  0  0
133126  1  0  0  0  0
144137  1  0  0  0  0
155146  1  0  0  0  0
167161  1  0  0  0  0
 10  5  1  0  0  0  0
 22 18  1  0  0  0  0
 33 27  1  0  0  0  0
 40 34  1  0  0  0  0
 60 41  2  0  0  0  0
110 64  2  0  0  0  0
136114  1  0  0  0  0
154149  1  0  0  0  0
166162  1  0  0  0  0
 23  7  1  0  0  0  0
 52 46  1  0  0  0  0
 59 53  1  0  0  0  0
109 66  2  0  0  0  0
167151  1  0  0  0  0
 91 67  1  0  0  0  0
100 93  1  0  0  0  0
108101  1  0  0  0  0
 89 69  2  0  0  0  0
 78 71  1  0  0  0  0
 86 79  1  0  0  0  0
117 87  1  0  0  0  0
  1168  1  0  0  0  0
  6169  1  0  0  0  0
  9170  1  0  0  0  0
 17171  1  0  0  0  0
 18172  1  0  0  0  0
 19173  1  0  0  0  0
 20174  1  0  0  0  0
 21175  1  0  0  0  0
 22176  1  0  0  0  0
 22177  1  0  0  0  0
 23178  1  0  0  0  0
 28179  1  0  0  0  0
 29180  1  0  0  0  0
 31181  1  0  0  0  0
 31182  1  0  0  0  0
 31183  1  0  0  0  0
 32184  1  0  0  0  0
 33185  1  0  0  0  0
 35186  1  0  0  0  0
 36187  1  0  0  0  0
 38188  1  0  0  0  0
 38189  1  0  0  0  0
 38190  1  0  0  0  0
 39191  1  0  0  0  0
 40192  1  0  0  0  0
 47193  1  0  0  0  0
 48194  1  0  0  0  0
 50195  1  0  0  0  0
 50196  1  0  0  0  0
 50197  1  0  0  0  0
 51198  1  0  0  0  0
 52199  1  0  0  0  0
 54200  1  0  0  0  0
 55201  1  0  0  0  0
 57202  1  0  0  0  0
 57203  1  0  0  0  0
 57204  1  0  0  0  0
 58205  1  0  0  0  0
 59206  1  0  0  0  0
 63207  1  0  0  0  0
 68208  1  0  0  0  0
 72209  1  0  0  0  0
 73210  1  0  0  0  0
 75211  1  0  0  0  0
 75212  1  0  0  0  0
 76213  1  0  0  0  0
 76214  1  0  0  0  0
 76215  1  0  0  0  0
 77216  1  0  0  0  0
 78217  1  0  0  0  0
 80218  1  0  0  0  0
 81219  1  0  0  0  0
 83220  1  0  0  0  0
 83221  1  0  0  0  0
 84222  1  0  0  0  0
 84223  1  0  0  0  0
 84224  1  0  0  0  0
 85225  1  0  0  0  0
 86226  1  0  0  0  0
 90227  1  0  0  0  0
 94228  1  0  0  0  0
 95229  1  0  0  0  0
 97230  1  0  0  0  0
 97231  1  0  0  0  0
 98232  1  0  0  0  0
 98233  1  0  0  0  0
 98234  1  0  0  0  0
 99235  1  0  0  0  0
100236  1  0  0  0  0
102237  1  0  0  0  0
103238  1  0  0  0  0
105239  1  0  0  0  0
105240  1  0  0  0  0
106241  1  0  0  0  0
106242  1  0  0  0  0
106243  1  0  0  0  0
107244  1  0  0  0  0
108245  1  0  0  0  0
119246  1  0  0  0  0
120247  1  0  0  0  0
122248  1  0  0  0  0
122249  1  0  0  0  0
123250  1  0  0  0  0
123251  1  0  0  0  0
123252  1  0  0  0  0
124253  1  0  0  0  0
125254  1  0  0  0  0
127255  1  0  0  0  0
128256  1  0  0  0  0
130257  1  0  0  0  0
130258  1  0  0  0  0
131259  1  0  0  0  0
131260  1  0  0  0  0
131261  1  0  0  0  0
132262  1  0  0  0  0
133263  1  0  0  0  0
134264  1  0  0  0  0
138265  1  0  0  0  0
141266  1  0  0  0  0
141267  1  0  0  0  0
142268  1  0  0  0  0
142269  1  0  0  0  0
142270  1  0  0  0  0
145271  1  0  0  0  0
150272  1  0  0  0  0
153273  1  0  0  0  0
161274  1  0  0  0  0
162275  1  0  0  0  0
163276  1  0  0  0  0
164277  1  0  0  0  0
165278  1  0  0  0  0
166279  1  0  0  0  0
166280  1  0  0  0  0
167281  1  0  0  0  0
M  END
