203

C          5.44930       -4.89620        3.93130
C          5.84570       -5.93560        3.11820
C          5.05690       -6.55540        2.05270
O          3.96050       -6.21910        1.63560
C          5.83930       -7.70990        1.57550
C          5.48220       -8.60600        0.57220
C          6.41800       -9.58510        0.33910
C          7.61850       -9.66740        1.05510
C          7.98010       -8.79030        2.05100
C          7.04370       -7.78450        2.30180
C          7.08160       -6.66900        3.24930
C          8.13850       -6.37120        4.07700
C          9.29540       -7.16350        4.21180
N         10.25970       -7.76210        4.39120
C          8.25130       -5.22300        4.88320
N          8.45070       -4.29880        5.53850
C          8.08460      -10.88070        0.28920
C          9.15410      -10.67170       -0.81120
C          9.00180       -9.25070       -1.29370
C          7.86450       -9.17300       -1.97170
C          7.22720      -10.54030       -1.95960
C          8.48400      -11.42480       -1.97170
C          6.74570      -10.78890       -0.50870
C          4.31510       -4.08920        3.87360
C          4.06180       -3.03210        4.78690
N          4.75250       -2.80030        5.94680
C          5.22720       -3.84710        6.75980
C          6.42640       -3.70170        7.45310
C          6.88810       -4.72660        8.25400
C          6.18090       -5.91680        8.37920
C          6.71780       -7.02980        9.22510
C          4.97780       -6.04520        7.69510
C          4.49610       -5.02380        6.90100
C          4.89310       -1.47490        6.39970
C          4.72890       -1.16330        7.74520
C          4.85160        0.14450        8.17210
C          5.13650        1.16850        7.27830
C          5.26740        2.58740        7.73880
C          5.31800        0.84410        5.93820
C          5.20420       -0.45860        5.49920
C          3.00270       -2.22620        4.33380
S          2.20240       -0.81680        4.95120
C          1.11780       -0.80020        3.56920
C          1.32870       -1.87890        2.71890
N          0.59050       -2.19320        1.59230
C          1.25200       -2.87360        0.54910
C          2.49500       -2.43390        0.10500
C          3.17400       -3.14430       -0.86470
C          2.63090       -4.29620       -1.41880
C          3.40230       -5.10000       -2.41900
C          1.37170       -4.70460       -0.99590
C          0.68500       -4.00690       -0.02340
C         -0.77560       -1.92040        1.47460
C         -1.30450       -1.58390        0.22840
C         -2.63070       -1.22270        0.10700
C         -3.47130       -1.19240        1.21250
C         -4.89010       -0.72600        1.09590
C         -2.95220       -1.58820        2.43920
C         -1.62700       -1.94980        2.57770
C          2.41670       -2.67390        3.15800
S          3.13670       -4.12350        2.55920
C          0.15480        0.23940        3.34630
C         -0.89110        0.67960        4.12920
C         -1.11510        0.33780        5.53580
C         -2.35190       -0.15290        5.94360
C         -2.56870       -0.45870        7.27340
C         -1.55970       -0.28120        8.20320
C         -0.32400        0.22250        7.81660
C          0.78690        0.36180        8.81630
C          1.47640       -0.98900        9.01360
C         -0.11690        0.53850        6.48270
C         -1.78930        1.47060        3.37920
S         -3.34360        2.16170        3.77000
C         -3.48810        2.70000        2.13160
C         -4.39430        3.40380        1.32110
C         -5.59490        4.08160        1.62580
C         -6.24200        4.84620        0.59620
N         -7.31750        5.47950        1.03680
S         -7.50440        5.13980        2.60970
N         -6.21980        4.17060        2.78920
C         -5.73450        4.78520       -0.72030
C         -6.23930        5.27660       -1.93490
S         -7.55010        6.24720       -2.51250
C         -7.01330        5.94800       -4.15080
C         -7.49360        6.37950       -5.39920
C         -8.61680        7.31130       -5.52790
C         -8.48650        8.48090       -6.27370
C         -9.54150        9.37030       -6.34770
C        -10.72670        9.10440       -5.68330
C        -10.86790        7.95050       -4.92270
C        -12.16080        7.63950       -4.22610
C        -13.05740        6.78130       -5.12110
C         -9.80460        7.06260       -4.84970
C         -6.72350        5.85890       -6.42710
S         -5.38130        4.88100       -5.85880
C         -5.87280        5.13910       -4.22450
C         -5.42780        4.76490       -2.95140
N         -4.41550        4.01170       -2.41450
C         -4.57790        4.01980       -1.03900
C         -3.82890        3.44110        0.01700
N         -2.58800        2.82890        0.05550
C         -2.38930        2.37350        1.33230
C         -1.41190        1.67450        2.05340
S          0.10380        0.92170        1.72150
C         -1.46170        3.01320       -0.83440
C         -1.01710        1.71780       -1.50790
C         -3.77300        3.00920       -3.23840
C         -4.38680        1.63210       -2.99670
C         -6.84790        5.90550       -7.84900
C         -7.96990        6.38050       -8.56970
C         -7.92070        6.32580       -9.93610
C         -6.76040        5.78940      -10.53300
N         -5.76370        5.33350       -9.76920
N         -5.79570        5.38340       -8.49280
C         -6.53960        5.65110      -11.93790
C         -5.39240        5.06670      -12.35460
S         -4.19050        4.48670      -11.24840
C         -3.21100        3.92750      -12.63060
C         -2.01910        3.29530      -12.40070
C         -1.58740        3.09070      -11.07140
N         -1.20610        2.90270      -10.00620
C         -1.12290        2.79480      -13.36220
N         -0.34860        2.36970      -14.09690
N         -3.79980        4.19550      -13.82500
C         -3.23690        3.90420      -15.13150
C         -2.23890        4.97260      -15.56160
C         -5.02360        4.83940      -13.75310
O         -5.67790        5.14690      -14.72340
H          6.12680       -4.64660        4.73780
H          4.54470       -8.50510        0.04740
H          8.90730       -8.87070        2.59340
H          8.26630      -11.77720        0.87880
H         10.15790      -10.97740       -0.52870
H          9.68620       -8.45930       -1.05010
H          7.40910       -8.30330       -2.40820
H          6.47640      -10.72700       -2.72320
H          9.04390      -11.34890       -2.90270
H          8.28010      -12.47140       -1.74940
H          6.05330      -11.62590       -0.43910
H          6.99710       -2.79250        7.34980
H          7.82520       -4.60660        8.77620
H          7.61250       -7.44980        8.76550
H          6.99460       -6.66200       10.21160
H          5.98410       -7.82380        9.33910
H          4.40290       -6.95520        7.79020
H          3.55530       -5.13610        6.38200
H          4.49940       -1.94850        8.44980
H          4.71500        0.37350        9.21900
H          4.89330        2.70470        8.75260
H          4.71660        3.25660        7.08020
H          6.31390        2.89240        7.72240
H          5.55670        1.62410        5.22990
H          5.36100       -0.69910        4.45790
H          2.92730       -1.54100        0.53390
H          4.14540       -2.80190       -1.19130
H          4.03200       -5.81940       -1.89410
H          4.04750       -4.46270       -3.01970
H          2.73470       -5.65120       -3.07730
H          0.93010       -5.59460       -1.42010
H         -0.28510       -4.34300        0.31240
H         -0.65880       -1.58790       -0.63750
H         -3.01670       -0.94900       -0.86470
H         -5.54210       -1.29980        1.75090
H         -4.96380        0.32270        1.38960
H         -5.24880       -0.81760        0.07310
H         -3.59980       -1.61420        3.30340
H         -1.24680       -2.25430        3.54190
H         -3.13570       -0.29790        5.21680
H         -3.53000       -0.83930        7.58600
H         -1.73420       -0.52620        9.24110
H          1.51960        1.08920        8.46250
H          0.38700        0.70790        9.77190
H          1.90110       -1.32920        8.07190
H          2.27530       -0.90600        9.74600
H          0.76250       -1.73290        9.36040
H          0.82470        0.97240        6.17880
H         -7.55430        8.69270       -6.77730
H         -9.43730       10.27840       -6.92310
H        -11.54700        9.80460       -5.74760
H        -12.68040        8.56710       -3.97940
H        -11.95810        7.10250       -3.29780
H        -13.27900        7.30400       -6.04920
H        -13.99440        6.55770       -4.61700
H        -12.56300        5.84360       -5.36570
H         -9.90110        6.15970       -4.26460
H         -1.71810        3.78590       -1.56070
H         -0.62640        3.39290       -0.23390
H         -0.20550        1.92780       -2.19930
H         -0.65960        1.01540       -0.76060
H         -1.82990        1.24670       -2.05090
H         -3.93390        3.30760       -4.27700
H         -2.69960        2.98570       -3.06590
H         -3.91380        0.89720       -3.64270
H         -4.25860        1.33160       -1.95860
H         -5.45170        1.65260       -3.21810
H         -8.83630        6.75380       -8.04870
H         -8.74140        6.66310      -10.55080
H         -7.27040        5.99700      -12.65130
H         -4.08220        3.88790      -15.82510
H         -2.76790        2.91920      -15.10950
H         -1.39690        5.02020      -14.87510
H         -1.85970        4.73280      -16.55040
H         -2.72390        5.94550      -15.59840
