291

C          9.34150       -6.60850        2.32090
C          9.87300       -7.76500        1.80750
C         10.49910       -8.75340        2.71450
O         10.71480       -8.62280        3.90080
C         10.75880       -9.94700        1.88200
C         11.32640      -11.15170        2.28820
C         11.50250      -12.06240        1.27330
C         11.14120      -11.79540       -0.05310
C         10.57890      -10.61100       -0.46800
C         10.38830       -9.67530        0.55040
C          9.90160       -8.29730        0.47700
C          9.74280       -7.56380       -0.68040
C          9.71950       -6.16060       -0.69400
N          9.75140       -5.01290       -0.76200
C          9.66800       -8.11630       -1.96980
N          9.54030       -8.51000       -3.04250
C         11.66090      -13.12350       -0.54670
C         10.64860      -14.25070       -0.86280
C          9.43850      -14.00120        0.00110
C          9.77870      -14.25360        1.25770
C         11.22500      -14.67970        1.26650
C         11.29970      -15.40690       -0.08610
C         12.06280      -13.42200        0.93200
C          8.36870       -5.73920        1.80530
C          7.34790       -5.91790        0.85200
N          6.98360       -7.11900        0.29350
C          7.06680       -8.30890        1.03890
C          6.85880       -8.30870        2.41560
C          6.99160       -9.47480        3.13960
C          7.31570      -10.67400        2.51540
C          7.51150      -11.92370        3.31320
C          7.46940      -10.67760        1.13520
C          7.35140       -9.51400        0.40000
C          6.26510       -7.14120       -0.92250
C          5.15040       -7.96150       -1.06150
C          4.46460       -8.00310       -2.25970
C          4.86400       -7.23080       -3.34210
C          4.12590       -7.27000       -4.64410
C          5.97460       -6.40810       -3.19070
C          6.67070       -6.35870       -2.00080
C          6.65450       -4.70810        0.62950
S          5.29090       -4.26090       -0.33670
C          5.33930       -2.62050        0.30450
C          6.33350       -2.45680        1.25460
N          6.56230       -1.30890        1.99690
C          5.47550       -0.54900        2.45560
C          5.56230        0.83870        2.52950
C          4.47240        1.57860        2.94350
C          3.26290        0.96920        3.25950
C          2.05840        1.79190        3.59770
C          3.19640       -0.41630        3.21690
C          4.29040       -1.17020        2.84010
C          7.87390       -0.99430        2.38630
C          8.94900       -1.24840        1.53560
C         10.23640       -0.94470        1.93100
C         10.49300       -0.37480        3.17130
C         11.89620       -0.06940        3.59710
C          9.41630       -0.12270        4.01290
C          8.12500       -0.43040        3.63480
C          7.08460       -3.64740        1.41300
S          8.35620       -4.10670        2.47800
C          4.28590       -1.71230       -0.08200
C          4.29900       -0.48330       -0.71650
O          5.34080        0.19800       -1.23520
C          6.59840       -0.43490       -1.37590
C          7.41330        0.37580       -2.37080
C          3.00040        0.07180       -0.80850
C          2.36270        1.27300       -1.46880
C          2.94780        2.62700       -1.15280
C          3.79140        2.81780       -0.07120
C          4.30450        4.07280        0.20340
C          3.97600        5.16830       -0.58210
C          4.56800        6.52140       -0.30880
C          5.86010        6.71080       -1.10600
C          3.12500        4.97270       -1.66270
C          2.62010        3.71950       -1.94870
C          2.45080        0.99550       -2.96810
C          3.64110        1.27130       -3.63060
C          3.77570        0.99030       -4.97630
C          2.73090        0.42490       -5.69670
C          2.86320        0.16380       -7.16980
C          2.40560        1.38310       -7.97270
C          1.54620        0.14880       -5.02910
C          1.40670        0.42350       -3.68020
C          0.93290        1.14510       -0.96720
C          0.74410       -0.09850       -0.32230
C          2.02740       -0.72990       -0.26060
S          2.64520       -2.20910        0.33680
C         -0.49890       -0.50560        0.14740
C         -1.54780        0.37120       -0.01430
C         -3.00150        0.17370        0.38060
C         -3.08300       -0.14170        1.86410
C         -3.12260       -1.45650        2.30940
C         -3.19020       -1.74010        3.66060
C         -3.21120       -0.72250        4.60480
C         -3.35690       -1.03190        6.06700
C         -4.83600       -1.06960        6.45780
C         -3.14260        0.59010        4.15730
C         -3.07130        0.87790        2.80690
C         -3.69800       -0.89820       -0.44140
C         -3.06510       -1.57960       -1.47000
C         -3.73250       -2.56940       -2.17110
C         -5.04790       -2.89540       -1.87420
C         -5.75760       -3.99520       -2.61100
C         -5.59260       -5.32690       -1.87640
C         -5.68160       -2.19990       -0.85090
C         -5.01900       -1.21580       -0.14480
C         -3.56430        1.53610        0.05960
C         -4.78370        2.20410        0.27740
O         -5.83180        1.59100        0.87920
C         -6.57420        2.31630        1.84690
C         -6.92990        1.36150        2.97780
C         -4.72270        3.53080       -0.12210
S         -3.13120        3.95550       -0.73170
C         -2.59340        2.34410       -0.48870
C         -1.34220        1.64980       -0.57700
C         -0.10460        2.04270       -1.07780
C         -5.79300        4.48440       -0.15660
C         -7.03120        4.31820       -0.76820
N         -7.38050        3.23060       -1.53760
C         -6.39800        2.56190       -2.29280
C         -5.39280        3.27280       -2.94390
C         -4.39620        2.60180       -3.62150
C         -4.38610        1.21350       -3.68880
C         -3.26690        0.50250       -4.38530
C         -5.42610        0.51650       -3.08930
C         -6.41880        1.17590       -2.39040
C         -8.73760        2.93380       -1.75780
C         -9.18810        2.63200       -3.04010
C        -10.52970        2.40650       -3.26830
C        -11.45820        2.47430       -2.23560
C        -12.92020        2.31120       -2.50780
C        -10.99560        2.73610       -0.95360
C         -9.65410        2.95950       -0.71080
C         -7.85740        5.44820       -0.55430
S         -9.45180        5.85840       -1.07170
C         -9.32390        7.42230       -0.25640
C         -8.02380        7.62640        0.29690
N         -7.58760        8.77200        0.89520
C         -7.98320       10.05440        0.46980
C         -8.12630       11.08000        1.40120
C         -8.50750       12.33990        0.98530
C         -8.76400       12.60850       -0.35410
C         -9.21600       13.97120       -0.77840
C         -8.59880       11.58210       -1.27740
C         -8.20420       10.32080       -0.87930
C         -6.60730        8.67800        1.90540
C         -6.75460        7.74930        2.93110
C         -5.79640        7.65550        3.92050
C         -4.67950        8.48240        3.91650
C         -3.62930        8.36140        4.97630
C         -4.54870        9.41400        2.89250
C         -5.49720        9.51600        1.89510
C         -7.23820        6.47290        0.15450
S         -5.60660        6.06620        0.58720
C        -10.38640        8.28250       -0.03520
C        -11.70610        8.21430       -0.45620
C        -12.26290        7.24010       -1.38860
O        -11.71010        6.29520       -1.91820
C        -13.67320        7.65400       -1.60340
C        -13.93400        8.81850       -0.86090
C        -15.18180        9.41480       -0.90700
C        -16.15720        8.82810       -1.70190
F        -17.36890        9.39040       -1.76400
C        -15.91730        7.66920       -2.43390
F        -16.88730        7.12830       -3.18000
C        -14.65500        7.07330       -2.38240
F        -14.43130        5.95710       -3.07530
C        -12.72500        9.16510       -0.10770
C        -12.63790       10.19990        0.79730
C        -11.55060       10.44560        1.65560
N        -10.73070       10.68930        2.42480
C        -13.65810       11.14410        1.02070
N        -14.43890       11.95830        1.23860
H          9.71090       -6.34780        3.30900
H         11.61530      -11.30870        3.31610
H         10.31430      -10.41150       -1.49370
H         12.45780      -13.06790       -1.28620
H         10.45820      -14.40330       -1.92190
H          8.50230      -13.63470       -0.37830
H          9.18710      -14.13770        2.14610
H         11.55820      -15.22440        2.14630
H         10.70380      -16.31830       -0.10820
H         12.31760      -15.62550       -0.40570
H         13.12000      -13.56290        1.15030
H          6.59210       -7.39140        2.91850
H          6.83910       -9.45290        4.20830
H          6.96990      -11.87400        4.25460
H          7.17760      -12.79530        2.75460
H          8.57170      -12.04640        3.53820
H          7.70830      -11.60110        0.63020
H          7.47880       -9.53360       -0.67280
H          4.82110       -8.56260       -0.22660
H          3.60040       -8.64520       -2.34940
H          3.31430       -7.99200       -4.61150
H          3.71040       -6.28880       -4.87090
H          4.80220       -7.53980       -5.45380
H          6.30550       -5.80190       -4.02080
H          7.53440       -5.71900       -1.90880
H          6.48280        1.33130        2.25220
H          4.55200        2.65440        3.00220
H          2.33440        2.66320        4.18820
H          1.32680        1.20500        4.14820
H          1.58650        2.14430        2.67860
H          2.27550       -0.91600        3.48070
H          4.22780       -2.24840        2.83630
H          8.78220       -1.69200        0.56490
H         11.05570       -1.15490        1.25940
H         11.91170        0.69680        4.36860
H         12.36560       -0.96700        4.00100
H         12.49260        0.26710        2.75170
H          9.59080        0.31220        4.98660
H          7.30280       -0.24130        4.30900
H          7.10700       -0.46150       -0.40590
H          6.46450       -1.46270       -1.73560
H          8.40390       -0.05740       -2.47280
H          7.50500        1.40100       -2.02220
H          6.92210        0.37930       -3.34030
H          4.05400        1.98010        0.55490
H          4.97360        4.20280        1.04240
H          3.85560        7.30040       -0.58880
H          4.78460        6.62370        0.75670
H          6.29040        7.69020       -0.90960
H          5.66200        6.62540       -2.17220
H          6.58750        5.94980       -0.83210
H          2.85800        5.81210       -2.28950
H          1.97910        3.58390       -2.80830
H          4.46320        1.70440       -3.08200
H          4.70820        1.21120       -5.47690
H          3.90400       -0.05770       -7.41470
H          2.25520       -0.69930       -7.44920
H          3.00760        2.25200       -7.71600
H          1.36510        1.61140       -7.75280
H          2.50260        1.19560       -9.03960
H          0.71970       -0.29220       -5.56870
H          0.47540        0.19020       -3.18520
H         -0.62640       -1.46820        0.61870
H         -3.11190       -2.26640        1.59480
H         -3.22830       -2.76990        3.98660
H         -2.84690       -0.27090        6.66120
H         -2.90230       -1.99970        6.28770
H         -4.94560       -1.30360        7.51410
H         -5.30390       -0.10650        6.26510
H         -5.36060       -1.82570        5.87790
H         -3.14360        1.39890        4.87510
H         -3.00870        1.90790        2.48610
H         -2.04290       -1.34990       -1.72960
H         -3.21840       -3.09540       -2.96410
H         -6.82090       -3.75920       -2.69240
H         -5.35050       -4.08910       -3.62030
H         -4.53920       -5.58640       -1.79650
H         -6.00490       -5.25820       -0.87220
H         -6.10720       -6.12290       -2.40990
H         -6.70880       -2.43230       -0.60720
H         -5.52630       -0.68350        0.64350
H         -5.97930        3.15520        2.22750
H         -7.48480        2.71810        1.38660
H         -7.50180        1.88570        3.73860
H         -7.52310        0.53700        2.59180
H         -6.02240        0.95820        3.42200
H          0.02340        3.01610       -1.52510
H         -5.39160        4.35290       -2.90830
H         -3.61010        3.16520       -4.10370
H         -3.12650        0.89620       -5.39110
H         -2.33620        0.65050       -3.83700
H         -3.46490       -0.56410       -4.44650
H         -5.45210       -0.56040       -3.15200
H         -7.20690        0.62070       -1.90520
H         -8.48120        2.59630       -3.85620
H        -10.86680        2.19510       -4.27270
H        -13.09010        1.63860       -3.34540
H        -13.44170        1.92940       -1.63300
H        -13.34830        3.28120       -2.76190
H        -11.69530        2.77700       -0.13130
H         -9.31780        3.16660        0.29520
H         -7.95130       10.88150        2.44660
H         -8.62740       13.12340        1.71790
H        -10.21450       14.17060       -0.38960
H         -8.54930       14.73590       -0.38370
H         -9.24460       14.05500       -1.86170
H         -8.77330       11.77330       -2.32640
H         -8.07140        9.53640       -1.60970
H         -7.62630        7.11150        2.95070
H         -5.92240        6.93270        4.71330
H         -2.82740        7.70890        4.62930
H         -3.19550        9.33200        5.20490
H         -4.04220        7.93460        5.88700
H         -3.68740       10.06550        2.87290
H         -5.38250       10.23900        1.10140
H        -10.14390        9.14010        0.57890
H        -15.42800       10.30840       -0.35840
