262

C         11.38530        4.50510       -1.37950
C         12.49700        4.68240       -0.58010
C         12.54530        4.33800        0.84800
O         11.66170        3.83600        1.52020
C         13.84270        4.84780        1.34090
C         14.34040        4.76340        2.63660
C         15.58760        5.32040        2.79520
C         16.28340        5.92870        1.74440
C         15.80010        6.02190        0.45990
C         14.53880        5.45300        0.27740
C         13.72470        5.33510       -0.93160
C         14.13410        5.63320       -2.21000
C         15.39590        6.15790       -2.53970
N         16.41680        6.56580       -2.87600
C         13.37080        5.36600       -3.36280
N         12.82020        5.14620       -4.34720
C         17.45650        6.28880        2.62230
C         17.57780        7.75610        3.10250
C         16.17850        8.31900        3.12170
C         15.52200        7.73820        4.11700
C         16.46590        6.77190        4.78870
C         17.79550        7.52100        4.60580
C         16.68270        5.60530        3.79360
C         10.38280        3.55680       -1.17950
C         10.38940        2.33080       -0.47900
N         11.47470        1.66450        0.00470
C         12.78010        1.86140       -0.46480
C         13.04620        2.06710       -1.81790
C         14.33720        2.29920       -2.24250
C         15.39860        2.33510       -1.34090
C         16.78200        2.65300       -1.81370
C         15.13150        2.08100       -0.00240
C         13.84260        1.84130        0.43580
C         11.27380        0.66200        0.98230
C         10.58430        0.95580        2.15450
C         10.36690       -0.03830        3.08640
C         10.82460       -1.33460        2.87330
C         10.55730       -2.40020        3.89000
C         11.52920       -1.60830        1.70860
C         11.75930       -0.62210        0.76860
C          9.09290        1.76690       -0.46440
S          8.43940        0.30940        0.20020
C          6.89120        0.62260       -0.57170
C          6.89780        1.79680       -1.31810
N          5.86300        2.27580       -2.10670
C          5.06240        1.40890       -2.85530
C          3.71740        1.70390       -3.07380
C          2.90330        0.79900       -3.72620
C          3.39460       -0.42170       -4.17050
C          2.50050       -1.43440       -4.81830
C          4.74640       -0.69210       -3.98510
C          5.57360        0.20960       -3.34940
C          5.67990        3.66680       -2.18380
C          5.38410        4.27920       -3.39830
C          5.21860        5.64790       -3.46000
C          5.35060        6.44090       -2.32560
C          5.20200        7.92880       -2.40990
C          5.64740        5.82090       -1.11850
C          5.80580        4.45160       -1.04090
C          8.15210        2.44570       -1.22450
S          8.81440        3.86480       -1.94850
C          5.82290       -0.29500       -0.35120
C          5.90690       -1.64620       -0.06410
C          7.13140       -2.45050       -0.03930
C          8.05530       -2.40070       -1.07960
C          9.18880       -3.18770       -1.03280
C          9.40030       -4.04560        0.03250
C          8.47660       -4.12890        1.06520
C          8.64360       -5.12530        2.17560
C          7.86450       -6.40250        1.85430
C          7.34980       -3.32200        1.02100
C          4.63180       -2.20580        0.14570
S          4.10330       -3.84320        0.44910
C          2.46050       -3.30420        0.35350
C          1.16530       -3.84690        0.35170
C          0.71320       -5.18320        0.40230
C         -0.67980       -5.45460        0.17950
N         -0.94960       -6.75060        0.18520
S          0.42660       -7.56000        0.45590
N          1.42250       -6.28810        0.57180
C         -1.57220       -4.37080        0.03360
C         -2.96910       -4.32540       -0.11640
S         -4.30900       -5.41070       -0.27470
C         -5.38560       -4.03440       -0.32280
C         -6.78430       -3.92600       -0.40690
C         -7.67060       -5.09030       -0.47920
C         -7.42380       -6.08770       -1.41660
C         -8.25930       -7.18590       -1.48970
C         -9.34520       -7.29380       -0.64070
C         -9.59910       -6.31470        0.31190
C        -10.74980       -6.45650        1.26580
C        -10.33700       -7.28120        2.48650
C         -8.74520       -5.22720        0.39500
C         -7.19350       -2.60020       -0.38910
S         -5.83000       -1.48860       -0.26780
C         -4.72190       -2.81030       -0.21930
C         -3.33820       -2.97920       -0.09990
N         -2.22790       -2.18310        0.04010
C         -1.12470       -3.02280        0.10430
C          0.26810       -2.76340        0.13930
N          1.00820       -1.60440       -0.01790
C          2.33180       -1.93360        0.11690
C          3.57790       -1.30260        0.00540
S          4.16480        0.28990       -0.30380
C          0.64100       -0.35630       -0.65090
C          0.75310        0.83100        0.30530
C         -2.40180       -0.88320        0.65230
C         -2.83910       -1.01700        2.11070
C         -8.49880       -2.08790       -0.61850
C         -8.98490       -0.80010       -0.38370
N         -8.35830        0.19250        0.34630
C         -8.75330        1.52490        0.08900
C         -8.68670        2.03120       -1.20500
C         -9.14640        3.30690       -1.47230
C         -9.67550        4.10290       -0.46400
C        -10.18760        5.47910       -0.75540
C         -9.70920        3.59790        0.83140
C         -9.25600        2.32520        1.11070
C         -7.66270       -0.08070        1.53120
C         -6.66860        0.80090        1.95100
C         -5.95460        0.54800        3.10490
C         -6.19580       -0.58920        3.86460
C         -5.41020       -0.88120        5.10630
C         -7.19730       -1.45850        3.44550
C         -7.92970       -1.20940        2.30330
C        -10.27140       -0.64120       -0.94440
S        -11.36750        0.68770       -1.02720
C        -12.59170       -0.33200       -1.79220
C        -12.14870       -1.66930       -1.91610
N        -12.91940       -2.71060       -2.32770
C        -14.31970       -2.73570       -2.13910
C        -15.12740       -3.29560       -3.12300
C        -16.49690       -3.34100       -2.94840
C        -17.08900       -2.83460       -1.79780
C        -18.57650       -2.85000       -1.63170
C        -16.26770       -2.29340       -0.81440
C        -14.89740       -2.24670       -0.97130
C        -12.30140       -3.88690       -2.80330
C        -11.33420       -3.81460       -3.80160
C        -10.73470       -4.96850       -4.26490
C        -11.08430       -6.21300       -3.75420
C        -10.45140       -7.45780       -4.29200
C        -12.05610       -6.27270       -2.76280
C        -12.66280       -5.12700       -2.28850
C        -10.80790       -1.79460       -1.49830
S         -9.68850       -3.11230       -1.41730
C        -13.72930        0.21370       -2.38420
C        -14.16810        1.51820       -2.34150
C        -14.96660        2.05860       -3.45530
O        -15.52950        1.44080       -4.33360
C        -14.88260        3.53550       -3.30440
C        -15.35990        4.51950       -4.14410
C        -15.11620        5.84770       -3.80990
Cl       -15.67720        7.12200       -4.82380
C        -14.40980        6.14480       -2.64500
F        -14.16490        7.42740       -2.33780
C        -13.94240        5.16150       -1.78550
C        -14.18070        3.84170       -2.12480
C        -13.85710        2.59160       -1.43930
C        -13.57940        2.47030       -0.09610
C        -13.67370        1.23600        0.57570
N        -13.82210        0.25250        1.15120
C        -13.26950        3.55450        0.74030
N        -12.97370        4.41130        1.44670
H         11.24090        5.17170       -2.22130
H         13.77130        4.28850        3.42090
H         16.34230        6.50060       -0.33870
H         18.41770        5.86830        2.33220
H         18.32410        8.34360        2.57430
H         15.80360        9.01630        2.39560
H         14.48880        7.85300        4.38810
H         16.20010        6.46300        5.79650
H         17.83900        8.44800        5.17580
H         18.67080        6.91160        4.82730
H         17.13880        4.73690        4.26590
H         12.23960        2.04990       -2.53530
H         14.52580        2.46660       -3.29310
H         17.03210        2.06470       -2.69460
H         16.85150        3.70550       -2.09070
H         17.51490        2.45570       -1.03580
H         15.93970        2.08760        0.71440
H         13.64630        1.65580        1.48110
H         10.24880        1.96720        2.32270
H          9.83320        0.19280        3.99670
H         10.92580       -2.09560        4.86850
H          9.48530       -2.57090        3.97570
H         11.03530       -3.33510        3.61120
H         11.89720       -2.60740        1.52870
H         12.30390       -0.84280       -0.13790
H          3.31080        2.63300       -2.70360
H          1.86070        1.04240       -3.87700
H          2.36460       -2.29240       -4.15870
H          2.93970       -1.79720       -5.74590
H          1.52340       -1.01030       -5.03640
H          5.15540       -1.62560       -4.34400
H          6.62250       -0.01410       -3.22280
H          5.29200        3.67710       -4.29010
H          4.99330        6.11130       -4.40960
H          4.48380        8.20480       -3.17870
H          4.87800        8.34200       -1.45760
H          6.15970        8.38310       -2.66640
H          5.75130        6.41730       -0.22360
H          6.02490        3.98170       -0.09300
H          7.87490       -1.75420       -1.92550
H          9.90730       -3.14120       -1.83810
H         10.28460       -4.66640        0.05500
H          8.27010       -4.70660        3.11210
H          9.69990       -5.36870        2.30450
H          7.97390       -7.12760        2.65740
H          8.23170       -6.84700        0.93190
H          6.80790       -6.17850        1.72740
H          6.62970       -3.36710        1.82530
H         -6.58620       -5.99230       -2.09080
H         -8.06090       -7.96140       -2.21430
H        -10.00110       -8.14970       -0.70920
H        -11.08380       -5.46960        1.59170
H        -11.58450       -6.94870        0.76250
H         -9.51240       -6.79900        3.00660
H        -10.01300       -8.27350        2.18100
H        -11.17100       -7.38440        3.17680
H         -8.91450       -4.46960        1.14750
H          1.33170       -0.19130       -1.48690
H         -0.36320       -0.45340       -1.06580
H          0.21270        0.65430        1.23280
H          1.79510        1.00970        0.55480
H          0.35670        1.72400       -0.16990
H         -1.47410       -0.32580        0.61230
H         -3.16950       -0.34790        0.08510
H         -2.93050       -0.03100        2.55660
H         -2.10480       -1.59150        2.67210
H         -3.80290       -1.51420        2.18190
H         -8.28800        1.41340       -1.99690
H         -9.10130        3.68590       -2.48320
H        -10.93600        5.76820       -0.02180
H        -10.62180        5.52990       -1.75170
H         -9.37190        6.20120       -0.70710
H        -10.12340        4.20040        1.62570
H         -9.30970        1.93410        2.11600
H         -6.46070        1.68150        1.36210
H         -5.19130        1.24660        3.41630
H         -6.07380       -0.95400        5.96690
H         -4.88570       -1.83150        5.01120
H         -4.67940       -0.09970        5.29750
H         -7.41270       -2.34100        4.03090
H         -8.71850       -1.88610        2.01050
H        -14.67710       -3.68570       -4.02400
H        -17.11540       -3.76980       -3.72300
H        -19.01710       -3.70180       -2.14460
H        -19.00360       -1.94230       -2.05930
H        -18.85000       -2.88700       -0.58000
H        -16.70410       -1.90640        0.09430
H        -14.28090       -1.82320       -0.19290
H        -11.06530       -2.85320       -4.21430
H         -9.98700       -4.90270       -5.04140
H        -10.93680       -7.74870       -5.22440
H        -10.54970       -8.27950       -3.58800
H         -9.39730       -7.29230       -4.50130
H        -12.34230       -7.23060       -2.35430
H        -13.41430       -5.18240       -1.51490
H        -14.26030       -0.42110       -3.08530
H        -15.90620        4.26430       -5.03800
H        -13.40540        5.44910       -0.89660
