241

C          6.23650       -8.10480       -0.96760
C          7.41850       -8.56840       -0.45730
C          8.13680       -9.66770       -1.13900
O          7.68650      -10.44220       -1.95680
C          9.53340       -9.57380       -0.65830
C         10.63220      -10.30620       -1.10150
C         11.81670       -9.96390       -0.49340
C         11.90890       -8.96170        0.48080
C         10.83270       -8.23720        0.93610
C          9.61890       -8.57570        0.33470
C          8.27420       -8.06220        0.58530
C          7.85380       -7.45250        1.74360
C          6.48740       -7.33400        2.06830
N          5.38200       -7.29850        2.37950
C          8.71680       -6.97320        2.74270
N          9.38800       -6.53770        3.56780
C         13.39660       -9.14910        0.64860
C         13.85460       -9.92330        1.90230
C         15.25960      -10.36520        1.56210
C         15.17120      -11.31860        0.64350
C         13.70500      -11.53680        0.34730
C         13.11090      -11.25440        1.73320
C         13.29320      -10.27100       -0.43390
C          5.67520       -6.82720       -0.83080
C          4.46650       -6.38790       -1.40000
N          3.51520       -7.20890       -1.93610
C          2.66770       -6.71520       -2.94410
C          3.19660       -5.97130       -3.99640
C          2.36680       -5.48580       -4.98650
C          0.99920       -5.73320       -4.96060
C          0.10590       -5.18300       -6.02900
C          0.48340       -6.48660       -3.91270
C          1.30110       -6.97400       -2.91290
C          3.27830       -8.50020       -1.41760
C          3.34290       -8.74060       -0.04810
C          3.10310      -10.00970        0.43760
C          2.78210      -11.05980       -0.41550
C          2.54960      -12.43910        0.11850
C          2.70450      -10.80310       -1.77890
C          2.95010       -9.54010       -2.28110
C          4.34330       -4.98330       -1.30380
S          3.13020       -3.83910       -1.77080
C          4.05910       -2.53500       -1.04610
C          5.20720       -2.98220       -0.40230
N          6.02080       -2.22170        0.40840
C          7.33200       -2.66660        0.66640
C          7.78730       -2.77490        1.97790
C          9.04300       -3.28460        2.23270
C          9.87550       -3.69480        1.19590
C         11.22490       -4.26870        1.49860
C          9.42660       -3.54970       -0.10950
C          8.16970       -3.03990       -0.37930
C          5.50590       -1.14400        1.14740
C          4.22330       -1.17960        1.68810
C          3.69910       -0.06200        2.30730
C          4.43910        1.10760        2.42500
C          3.83840        2.34620        3.01560
C          5.74930        1.10410        1.96050
C          6.28260       -0.00440        1.33390
C          5.38040       -4.36970       -0.61650
S          6.58830       -5.49320       -0.12440
C          3.59960       -1.18180       -1.10660
C          4.35960       -0.05580       -1.36540
C          5.70530       -0.09910       -1.93320
C          6.64870        0.87350       -1.61300
C          7.92260        0.80460       -2.14450
C          8.26950       -0.22110       -3.00510
C          7.33220       -1.18270       -3.36390
C          7.67870       -2.26220       -4.35030
C          7.42560       -1.78030       -5.77970
C          6.05640       -1.10580       -2.83020
C          3.63410        1.11950       -1.07150
S          4.03790        2.81850       -1.12610
C          2.44070        3.20000       -0.57420
C          1.66380        4.31820       -0.23350
C          1.98690        5.69150       -0.16940
C          0.98650        6.62270        0.26750
N          1.43950        7.86520        0.31750
S          2.99100        7.86510       -0.14700
N          3.14450        6.27800       -0.43040
C         -0.31730        6.14970        0.53420
C         -1.50530        6.83410        0.82700
S         -2.07680        8.45240        1.06230
C         -3.70700        7.82740        1.22480
C         -4.95560        8.44690        1.37260
C         -5.13540        9.89340        1.27180
C         -4.31470       10.76860        1.97630
C         -4.49790       12.13160        1.84680
C         -5.48840       12.63030        1.01830
C         -6.29990       11.77110        0.28800
C         -7.40140       12.29290       -0.59050
C         -8.76870       12.02880        0.04320
C         -6.10650       10.40520        0.41550
C         -5.98600        7.50410        1.43920
S         -5.40860        5.86770        1.18390
C         -3.77660        6.43310        1.11910
C         -2.52200        5.87270        0.87780
N         -2.00720        4.62670        0.64670
C         -0.64880        4.76440        0.43270
C          0.37760        3.83080        0.13870
N          0.40030        2.44530        0.06700
C          1.64200        2.07370       -0.36690
C          2.32720        0.88430       -0.64560
S          1.96300       -0.80180       -0.60290
C         -0.44240        1.46410        0.71690
C         -0.52930        1.71320        2.22000
C         -2.90420        3.54250        0.31580
C         -2.83480        3.18710       -1.16720
C         -7.37710        7.68900        1.67930
C         -7.95190        8.79290        2.31280
F         -7.19240        9.71510        2.92340
C         -9.32910        8.96810        2.37500
F         -9.78220       10.08520        2.96260
C        -10.25700        8.03400        1.90910
C         -9.71030        6.83480        1.37250
N        -10.51740        5.84480        0.96420
C        -10.00380        4.70540        0.54520
C        -10.94970        3.61350        0.30700
C        -12.22290        3.88560       -0.17910
C        -13.14150        2.87020       -0.35350
C        -12.85990        1.53460       -0.04380
O        -13.63160        0.44890       -0.20830
C        -15.05100        0.54660       -0.19250
C        -15.56770        0.91650        1.19130
C        -11.56580        1.30670        0.45840
C        -10.63130        2.29690        0.63880
F        -11.23490        0.04540        0.77780
F        -14.35010        3.22300       -0.85370
C         -8.59460        4.55460        0.41930
N         -7.80290        5.53550        0.79170
C         -8.30190        6.66880        1.28400
C         -7.93090        3.37810       -0.15500
C         -8.36510        2.80110       -1.34120
C         -7.67760        1.73800       -1.89520
F         -8.15410        1.24590       -3.06290
C         -6.53440        1.18950       -1.30500
O         -5.76060        0.18190       -1.74130
C         -6.10830       -0.55730       -2.90650
C         -5.06560       -1.65060       -3.06460
C         -6.14040        1.79470       -0.09890
F         -5.04800        1.29800        0.51690
C         -6.79650        2.86050        0.46660
C        -11.64750        8.37180        1.94470
C        -12.77800        7.62670        1.99680
C        -14.07160        8.30410        1.63370
O        -14.23530        9.48920        1.46610
C        -15.04100        7.21200        1.49500
C        -16.38970        7.04730        1.13710
C        -16.76350        5.73940        1.23020
S        -15.49930        4.69170        1.76200
C        -14.42230        6.01940        1.84790
C        -13.05990        6.22740        2.26020
C        -12.30010        5.29420        2.92080
C        -12.75230        3.96560        3.02820
N        -13.11910        2.87800        3.07150
C        -11.07580        5.55720        3.55910
N        -10.09400        5.73500        4.12690
H          5.75310       -8.76740       -1.67770
H         10.52300      -11.06660       -1.85890
H         10.90900       -7.46280        1.68120
H         14.01350       -8.27740        0.43710
H         13.72150       -9.39050        2.83990
H         16.14570       -9.91500        1.96980
H         15.96870      -11.82370        0.13060
H         13.43690      -12.47500       -0.13130
H         13.41750      -11.99400        2.47100
H         12.02670      -11.16030        1.74060
H         13.84320      -10.14860       -1.36540
H          4.26060       -5.78800       -4.03690
H          2.78890       -4.91160       -5.79850
H          0.59420       -5.22330       -7.00030
H         -0.12870       -4.13970       -5.81560
H         -0.82800       -5.73710       -6.07960
H         -0.57670       -6.69070       -3.87440
H          0.88760       -7.55280       -2.10060
H          3.58950       -7.94130        0.63430
H          3.16110      -10.18250        1.50190
H          1.82550      -12.97550       -0.49050
H          3.48340      -13.00220        0.10460
H          2.19350      -12.40310        1.14530
H          2.45670      -11.60410       -2.45980
H          2.89550       -9.35470       -3.34400
H          7.14030       -2.47890        2.79060
H          9.37660       -3.39310        3.25380
H         11.16820       -4.91440        2.37270
H         11.60490       -4.83950        0.65430
H         11.93330       -3.46950        1.71860
H         10.06250       -3.84840       -0.93060
H          7.82830       -2.93240       -1.39790
H          3.63510       -2.08280        1.61620
H          2.69390       -0.10300        2.70290
H          3.43930        2.98050        2.22180
H          4.58710        2.92180        3.55470
H          3.02560        2.10110        3.69600
H          6.35470        1.99170        2.07350
H          7.29650        0.00770        0.96290
H          6.38850        1.67040       -0.93460
H          8.65220        1.55620       -1.88140
H          9.27070       -0.27480       -3.40750
H          8.73040       -2.53710       -4.24380
H          7.07220       -3.15060       -4.15780
H          6.37960       -1.50990       -5.90710
H          7.67350       -2.56110       -6.49500
H          8.03310       -0.90450       -5.99610
H          5.31700       -1.83650       -3.12590
H         -3.55860       10.37770        2.63970
H         -3.86910       12.81110        2.40240
H         -5.63200       13.69790        0.93440
H         -7.35780       11.80350       -1.56700
H         -7.27460       13.36600       -0.74240
H         -8.81580       12.46530        1.03810
H         -8.94880       10.95910        0.13150
H         -9.56030       12.46080       -0.56450
H         -6.71630        9.72270       -0.16190
H         -1.43010        1.42960        0.25800
H          0.02550        0.49260        0.54070
H         -1.17120        0.96720        2.68030
H          0.46110        1.64470        2.66460
H         -0.92880        2.70140        2.43490
H         -3.91100        3.89390        0.55110
H         -2.71490        2.67500        0.94650
H         -3.46650        2.32690       -1.36860
H         -3.18350        4.02460       -1.76720
H         -1.81680        2.95300       -1.46980
H        -12.49980        4.89540       -0.43800
H        -15.40990        1.24990       -0.94890
H        -15.37900       -0.45880       -0.46780
H        -15.17450        1.88100        1.50420
H        -15.25290        0.17120        1.91710
H        -16.65250        0.96460        1.17630
H         -9.67940        2.03780        1.07200
H         -9.22970        3.17770       -1.86430
H         -7.10670       -0.99340       -2.79020
H         -6.10880        0.10100       -3.78300
H         -5.29250       -2.24710       -3.94300
H         -5.06290       -2.29190       -2.18760
H         -4.07760       -1.21220       -3.17550
H         -6.44050        3.28040        1.39220
H        -11.84340        9.44020        1.87100
H        -17.04170        7.84520        0.83380
H        -17.72630        5.31590        1.02130
