256

C         11.08630       -1.14940        0.74200
C         12.20840       -1.81940        0.32160
C         13.24790       -1.09580       -0.44550
O         13.30960        0.09810       -0.64840
C         14.15970       -2.14110       -0.95650
C         15.26870       -1.96410       -1.78040
C         15.94830       -3.12470       -2.06480
C         15.56020       -4.37220       -1.56060
C         14.47030       -4.56120       -0.74410
C         13.75960       -3.39450       -0.45430
C         12.59300       -3.19720        0.40580
C         12.10110       -4.10610        1.31900
C         12.41610       -5.47470        1.33180
N         12.58900       -6.61110        1.35250
C         11.27770       -3.72450        2.38960
N         10.64400       -3.44110        3.30630
C         16.70760       -5.09000       -2.22960
C         16.38000       -5.89160       -3.50660
C         17.72110       -6.06380       -4.18220
C         18.08560       -4.88180       -4.66250
C         16.99710       -3.89070       -4.31900
C         15.76940       -4.80610       -4.40150
C         17.13930       -3.69850       -2.79430
C          9.80500       -1.61660        1.06520
C          9.11910       -2.80730        0.74920
N          9.55870       -3.78910       -0.10860
C          8.98870       -5.08150       -0.01560
C          8.50450       -5.71890       -1.15340
C          7.96420       -6.98650       -1.06110
C          7.88770       -7.64690        0.15830
C          7.31600       -9.02670        0.26100
C          8.36750       -6.99850        1.29040
C          8.91070       -5.73220        1.21260
C         10.30180       -3.48080       -1.26080
C         11.17780       -4.42670       -1.79160
C         11.91550       -4.13710       -2.92230
C         11.82000       -2.89890       -3.54540
C         12.66140       -2.55990       -4.73560
C         10.92630       -1.97010       -3.02430
C         10.16730       -2.25520       -1.90830
C          7.83650       -2.81330        1.33520
S          6.50950       -3.93090        1.32950
C          5.51480       -2.79190        2.21950
C          6.20890       -1.63540        2.56110
N          5.68330       -0.56770        3.28950
C          5.71330        0.69780        2.68870
C          5.48900        0.81250        1.31920
C          5.50150        2.05240        0.71090
C          5.72420        3.20880        1.44600
C          5.70120        4.56110        0.80070
C          5.96110        3.08430        2.81140
C          5.96720        1.85060        3.42860
C          5.22960       -0.76470        4.59840
C          4.22430        0.04180        5.13310
C          3.73230       -0.20160        6.39900
C          4.22130       -1.24840        7.16970
C          3.68690       -1.51580        8.54370
C          5.23010       -2.04210        6.63570
C          5.73120       -1.81010        5.37040
C          7.51460       -1.65380        2.03100
S          8.79050       -0.50270        1.99050
C          4.12660       -3.02520        2.36990
C          3.39650       -4.13750        1.99520
C          2.02390       -3.91660        2.11320
S          0.58960       -4.83710        1.74260
C         -0.40110       -3.47820        2.19400
C         -1.78340       -3.11990        2.12560
C         -1.88880       -1.77800        2.51900
C         -0.54530       -1.22820        2.96170
C         -0.58420       -0.90540        4.44620
C         -1.15210        0.28940        4.87190
C         -1.17080        0.61880        6.21310
C         -0.61980       -0.23060        7.16480
C         -0.66520        0.11990        8.62460
C         -1.98420       -0.34370        9.24560
C         -0.06540       -1.42780        6.73600
C         -0.04960       -1.76490        5.39470
C         -0.01510       -0.04320        2.17590
C          1.08020        0.64860        2.68350
C          1.68070        1.65160        1.95000
C          1.19670        1.99990        0.69500
C          1.84000        3.11320       -0.08030
C          1.29330        4.46930        0.36920
C          0.09200        1.32010        0.20150
C         -0.50260        0.30000        0.92480
C          0.33800       -2.39840        2.64210
C          1.70480       -2.63540        2.58590
S          3.10590       -1.69740        2.89380
C         -3.09160       -1.10660        2.41480
C         -4.20280       -1.76670        1.91150
C         -5.39210       -1.06810        1.54490
C         -6.51170       -1.68750        1.03880
C         -6.66120       -3.18540        1.09000
C         -5.29880       -3.85720        1.15100
C         -4.15230       -3.15780        1.59310
C         -2.91510       -3.84920        1.69200
C         -2.84880       -5.21020        1.34850
C         -3.97230       -5.86660        0.92550
C         -5.19220       -5.19140        0.83030
C         -7.44690       -3.46100        2.37240
C         -8.77770       -3.06570        2.46000
C         -9.50300       -3.27180        3.61700
C         -8.92210       -3.87400        4.72570
C         -9.69910       -4.06460        5.99630
C         -9.52490       -2.85480        6.91650
C         -7.58980       -4.25140        4.64160
C         -6.85890       -4.04670        3.48470
C         -7.37760       -3.67060       -0.15940
C         -8.38500       -4.62430       -0.12890
C         -8.98460       -5.04880       -1.30080
C         -8.59300       -4.54040       -2.53120
C         -9.22140       -5.03270       -3.80290
C         -8.46470       -6.25140       -4.33520
C         -7.56500       -3.60720       -2.56080
C         -6.96200       -3.18290       -1.39340
C         -7.42760       -0.74650        0.53820
C         -7.00030        0.57640        0.66390
S         -5.46500        0.68040        1.45110
C         -7.84770        1.51540        0.06830
C         -8.93770        0.92440       -0.52200
S         -8.93110       -0.82030       -0.31050
C         -9.96750        1.55370       -1.31120
C         -9.74570        2.82470       -1.87040
C        -10.71380        3.37320       -2.67390
C        -10.68270        4.65670       -3.42710
O         -9.79010        5.46840       -3.46550
C        -11.98710        4.69290       -4.14180
C        -12.71950        3.52620       -3.83690
C        -11.92730        2.70450       -2.93450
C        -12.15510        1.45900       -2.37770
C        -11.17210        0.89560       -1.57980
C        -13.95890        3.32200       -4.41790
C        -14.44410        4.27720       -5.29500
C        -13.73610        5.45240       -5.58290
C        -12.47330        5.64990       -4.99800
C        -14.29280        6.37000       -6.54620
C        -14.13670        7.71540       -6.60760
C        -13.62370        8.59220       -5.51520
O        -13.24070        8.26300       -4.41490
C        -13.77430        9.97290       -6.00790
C        -13.41420       11.13720       -5.33070
C        -13.65990       12.29160       -6.03310
C        -14.23770       12.29080       -7.31110
C        -14.60800       11.15260       -7.98470
C        -14.35400        9.96230       -7.29250
C        -14.59310        8.57970       -7.68940
C        -15.10080        8.17560       -8.89550
C        -15.50810        9.04910       -9.92710
N        -15.85970        9.69280      -10.81030
C        -15.29230        6.83880       -9.30630
N        -15.47370        5.78700       -9.73090
C        -14.19010       13.79420       -7.42090
C        -13.07090       14.38360       -8.30570
C        -12.96850       15.82090       -7.84890
C        -12.41990       15.82220       -6.64070
C        -12.14190       14.38570       -6.26050
C        -11.81360       13.80630       -7.64250
C        -13.54400       13.79500       -5.99820
H         11.20010       -0.06930        0.77660
H         15.54770       -0.98220       -2.13030
H         14.18250       -5.52460       -0.35590
H         17.38970       -5.61360       -1.56230
H         15.79620       -6.79330       -3.34140
H         18.27480       -6.98440       -4.19130
H         19.00460       -4.61810       -5.15250
H         16.97550       -2.96960       -4.89580
H         15.58480       -5.15960       -5.41500
H         14.86480       -4.36150       -3.99390
H         18.10970       -3.29910       -2.50490
H          8.54790       -5.21550       -2.10820
H          7.59000       -7.46580       -1.95410
H          6.60640       -9.08640        1.08400
H          8.11130       -9.74620        0.45510
H          6.81280       -9.31060       -0.65970
H          8.32080       -7.49380        2.24870
H          9.27730       -5.24810        2.10400
H         11.27640       -5.39060       -1.31370
H         12.58510       -4.88730       -3.31710
H         13.60290       -2.11810       -4.40630
H         12.15710       -1.83620       -5.37150
H         12.88850       -3.44800       -5.32070
H         10.81660       -1.00880       -3.50370
H          9.46170       -1.52550       -1.54140
H          5.29070       -0.07440        0.73490
H          5.32650        2.11860       -0.35380
H          6.59060        5.12840        1.06980
H          4.83210        5.12630        1.13840
H          5.65580        4.47570       -0.28220
H          6.15310        3.97110        3.39830
H          6.17250        1.77220        4.48560
H          3.81450        0.84410        4.53900
H          2.93980        0.42350        6.78570
H          3.42210       -2.56620        8.65510
H          4.44110       -1.28260        9.29540
H          2.80710       -0.90760        8.73920
H          5.63150       -2.85680        7.22110
H          6.51540       -2.43950        4.97600
H          3.85140       -5.04460        1.64070
H         -1.56130        0.97640        4.14580
H         -1.60970        1.55590        6.52540
H          0.16460       -0.36020        9.14760
H         -0.56940        1.20070        8.74990
H         -2.82500        0.13790        8.75150
H         -2.09490       -1.42020        9.13570
H         -2.01470       -0.09690       10.30440
H          0.36950       -2.10490        7.45740
H          0.39500       -2.70090        5.09070
H          1.46380        0.39350        3.66090
H          2.54580        2.16330        2.34810
H          2.91920        3.09010        0.08270
H          1.64780        2.98280       -1.14720
H          1.76220        5.27440       -0.19210
H          1.48920        4.62270        1.42820
H          0.21820        4.51610        0.21050
H         -0.30310        1.57920       -0.77070
H         -1.34630       -0.23100        0.50830
H         -3.16530       -0.05850        2.66440
H         -1.90390       -5.72590        1.43010
H         -3.92680       -6.91320        0.66410
H         -6.06730       -5.73280        0.50350
H         -9.25770       -2.60420        1.61020
H        -10.53810       -2.96320        3.65740
H         -9.35020       -4.96160        6.51210
H        -10.75890       -4.19240        5.76670
H         -8.47540       -2.71990        7.16880
H         -9.87610       -1.95120        6.42320
H        -10.08930       -2.99090        7.83620
H         -7.11260       -4.71700        5.49240
H         -5.82470       -4.35450        3.45680
H         -8.70680       -5.04170        0.81410
H         -9.77180       -5.78830       -1.25580
H        -10.26230       -5.30730       -3.62000
H         -9.20340       -4.24120       -4.55480
H         -7.42520       -5.99590       -4.52830
H         -8.48790       -7.05880       -3.60660
H         -8.91380       -6.60500       -5.26040
H         -7.23380       -3.20720       -3.50860
H         -6.15680       -2.46240       -1.43790
H         -7.66300        2.57340        0.07560
H         -8.82020        3.35300       -1.70550
H        -13.07420        0.92440       -2.56420
H        -11.33240       -0.08340       -1.15090
H        -14.53360        2.43270       -4.20740
H        -15.40590        4.12480       -5.76410
H        -11.87350        6.51220       -5.23710
H        -14.91100        5.89850       -7.30090
H        -12.97900       11.08970       -4.34480
H        -15.06000       11.17190       -8.96200
H        -15.14840       14.29090       -7.55930
H        -13.19810       14.21600       -9.37160
H        -13.34370       16.65670       -8.40970
H        -12.24540       16.65930       -5.99050
H        -11.42190       14.22080       -5.46350
H        -10.89960       14.22710       -8.05810
H        -11.75720       12.71960       -7.66680
H        -14.07040       14.29330       -5.18620
