212

C          5.81600       -2.26020       -7.89660
C          6.83730       -3.18430       -7.83970
C          7.72270       -3.35620       -6.67790
O          7.67900       -2.75670       -5.61860
C          8.76730       -4.31000       -7.10660
C          9.83270       -4.78370       -6.34860
C         10.63620       -5.68160       -7.01130
C         10.40390       -6.07000       -8.33560
C          9.35710       -5.60480       -9.09700
C          8.52490       -4.69860       -8.43800
C          7.31450       -4.02280       -8.90200
C          6.65090       -4.27520      -10.07880
C          5.40790       -3.70660      -10.41870
N          4.38090       -3.30990      -10.74820
C          7.07870       -5.19320      -11.05410
N          7.36280       -5.94090      -11.87980
C         11.61010       -6.97570       -8.36650
C         12.87780       -6.46540       -9.09510
C         12.83050       -4.95890       -9.03590
C         13.04880       -4.59590       -7.77910
C         13.24750       -5.85080       -6.96570
C         13.93130       -6.74590       -8.01140
C         11.86630       -6.54680       -6.88720
C          5.11910       -1.74720       -6.79930
C          4.88890       -2.28060       -5.51420
N          5.17830       -3.54410       -5.08680
C          5.34470       -3.78370       -3.70450
C          6.16640       -2.96120       -2.93990
C          6.31480       -3.20420       -1.58950
C          5.65890       -4.26500       -0.97400
C          5.80710       -4.49920        0.49780
C          4.85610       -5.08960       -1.75250
C          4.69610       -4.85710       -3.10490
C          5.30560       -4.63460       -5.95750
C          6.28970       -5.59320       -5.72600
C          6.44990       -6.65210       -6.60010
C          5.63660       -6.79070       -7.71630
C          5.83700       -7.90580       -8.69340
C          4.62480       -5.85320       -7.91440
C          4.45690       -4.79020       -7.05300
C          4.19110       -1.34610       -4.71350
S          3.60820       -1.37460       -3.08230
C          2.97290        0.24840       -3.26920
C          3.12010        0.74630       -4.55540
N          2.60180        1.94640       -5.00180
C          3.28120        2.68800       -5.98120
C          2.56560        3.37190       -6.96050
C          3.23380        4.10110       -7.92270
C          4.62270        4.16500       -7.94210
C          5.33910        4.93430       -9.00930
C          5.32640        3.48080       -6.95980
C          4.67020        2.75340       -5.98690
C          1.42000        2.45970       -4.44360
C          0.33950        1.62620       -4.17190
C         -0.78910        2.12900       -3.55280
C         -0.87170        3.46450       -3.18500
C         -2.05710        3.99330       -2.43650
C          0.18900        4.30290       -3.51220
C          1.31530        3.81590       -4.14180
C          3.83540       -0.17140       -5.36320
S          4.33760       -0.17160       -7.01140
C          2.44050        0.99020       -2.16160
C          2.86460        2.24670       -1.78330
C          4.12420        2.82730       -2.24800
C          4.24860        4.18730       -2.51370
C          5.45180        4.69120       -2.97120
C          6.54290        3.85810       -3.14980
C          6.45150        2.50490       -2.84780
C          7.61740        1.57270       -3.02590
C          7.47780        0.74900       -4.30810
C          5.23890        2.00580       -2.39790
C          1.97960        2.81910       -0.84490
S          1.93700        4.36890       -0.04590
C          0.49420        3.88160        0.77730
C         -0.38620        4.36390        1.76070
C         -0.33220        5.51410        2.57770
C         -1.24860        5.62800        3.67840
N         -1.02920        6.71030        4.40850
S          0.21450        7.52160        3.76310
N          0.52630        6.52040        2.52890
C         -2.25890        4.65410        3.83050
C         -3.31450        4.53690        4.75290
S         -3.91620        5.32700        6.17140
C         -5.21350        4.15740        6.24450
C         -6.29770        3.98900        7.12960
C         -6.57550        4.91790        8.22780
C         -7.84210        5.47520        8.38480
C         -8.07390        6.38020        9.40230
C         -7.05250        6.73690       10.26620
C         -5.78030        6.19990       10.11650
C         -4.67940        6.55320       11.07410
C         -4.68320        5.59520       12.26710
C         -5.55300        5.29290        9.09180
C         -7.06590        2.89490        6.77390
S         -6.47440        2.09820        5.32240
C         -5.17020        3.22310        5.20860
C         -4.07790        3.43750        4.36010
N         -3.53360        2.85210        3.24320
C         -2.39430        3.57450        2.91600
C         -1.36970        3.35540        1.96000
N         -1.06130        2.27990        1.14840
C          0.06610        2.59650        0.43970
C          0.92320        1.98320       -0.48500
S          1.01560        0.45790       -1.29180
C         -1.54170        0.91820        1.16810
C         -2.32010        0.57560       -0.10270
C         -4.42640        2.12850        2.36310
C         -5.42830        3.07370        1.69970
C         -8.16500        2.30790        7.46620
S         -9.23950        1.21340        6.60650
C        -10.15020        0.93730        8.04840
C        -11.26540        0.15860        8.37950
C        -11.60050        0.28120        9.70530
S        -10.51630        1.36810       10.56260
C         -9.62510        1.66550        9.11580
C         -8.50360        2.43680        8.79290
C        -12.63410       -0.41280       10.44140
C        -12.35970       -0.85850       11.72500
C        -13.26850       -1.63040       12.43650
C        -14.48180       -1.97760       11.87430
C        -15.40810       -2.83790       12.62370
O        -15.14590       -3.28490       13.72260
N        -16.62000       -3.11950       12.01350
C        -17.53960       -3.99240       12.73620
C        -17.29910       -5.45390       12.38040
C        -17.02470       -2.67220       10.76820
O        -18.10570       -2.98890       10.31340
C        -16.08420       -1.80060       10.04250
C        -16.45190       -1.28200        8.81870
C        -15.59080       -0.42060        8.13850
C        -14.35390       -0.12150        8.65230
C        -13.91650       -0.67590        9.87150
C        -14.82470       -1.49140       10.59680
H          5.53650       -1.85390       -8.86130
H          9.97850       -4.45850       -5.33000
H          9.19380       -5.90610      -10.11850
H         11.41390       -8.02760       -8.56600
H         13.04050       -6.90210      -10.07680
H         12.59180       -4.33380       -9.87630
H         13.02860       -3.60690       -7.35990
H         13.74720       -5.72850       -6.00810
H         13.98380       -7.79360       -7.71820
H         14.92350       -6.39070       -8.28600
H         11.83390       -7.31920       -6.12080
H          6.70290       -2.16060       -3.42390
H          6.95730       -2.56460       -1.00190
H          5.53370       -5.51800        0.76060
H          6.83010       -4.31350        0.81800
H          5.15620       -3.81930        1.04840
H          4.34380       -5.92330       -1.29450
H          4.06730       -5.50200       -3.70160
H          6.93490       -5.49430       -4.86610
H          7.23360       -7.37270       -6.41670
H          6.23000       -7.51720       -9.63340
H          6.53920       -8.64030       -8.30760
H          4.89190       -8.39950       -8.91190
H          3.96420       -5.95530       -8.76290
H          3.66890       -4.07360       -7.22990
H          1.48640        3.32640       -6.96140
H          2.66660        4.62530       -8.67840
H          4.75690        5.79780       -9.32310
H          5.49650        4.30000       -9.88240
H          6.31170        5.27150       -8.65860
H          6.40600        3.52420       -6.94860
H          5.22800        2.24770       -5.21570
H          0.39180        0.57990       -4.43650
H         -1.61620        1.46420       -3.34660
H         -2.38280        4.94530       -2.85090
H         -2.88640        3.29080       -2.47450
H         -1.79210        4.15990       -1.39130
H          0.13630        5.35050       -3.25340
H          2.13360        4.47450       -4.38980
H          3.40370        4.84180       -2.36580
H          5.54060        5.74530       -3.18900
H          7.47670        4.26380       -3.51160
H          8.54740        2.14310       -3.06180
H          7.66710        0.89280       -2.17200
H          6.53500        0.20590       -4.31120
H          8.28470        0.02500       -4.39240
H          7.50390        1.39370       -5.18410
H          5.16690        0.95990       -2.13660
H         -8.63400        5.20350        7.70270
H         -9.05610        6.81360        9.52040
H         -7.24230        7.44530       11.05960
H         -4.81500        7.57520       11.43280
H         -3.71540        6.49340       10.56580
H         -4.53900        4.57070       11.93060
H         -5.63250        5.65120       12.79520
H         -3.88480        5.84810       12.96060
H         -4.56950        4.86340        8.96730
H         -2.13250        0.76000        2.07120
H         -0.66780        0.25940        1.22610
H         -3.11170        1.29710       -0.29410
H         -1.64780        0.58220       -0.95610
H         -2.75680       -0.41530       -0.01450
H         -3.86410        1.61600        1.59270
H         -4.95920        1.38920        2.96890
H         -4.90450        3.82980        1.11800
H         -6.08190        2.51150        1.03840
H         -6.03920        3.57340        2.44670
H        -11.76350       -0.50210        7.69400
H         -7.95680        3.04050        9.49190
H        -11.40070       -0.62750       12.16550
H        -13.03270       -1.99060       13.42630
H        -18.55380       -3.69680       12.46200
H        -17.37320       -3.82860       13.80230
H        -17.99220       -6.08380       12.93080
H        -17.45340       -5.61030       11.31520
H        -16.28270       -5.74050       12.64050
H        -17.42150       -1.53460        8.41720
H        -15.90660        0.01860        7.20430
H        -13.71430        0.57330        8.13090
