
  xtb     02222213413D
 energy: -355.655211395683 gnorm: 0.000858807102 xtb: 6.4.1 (unknown)
212237  0     0  0            999 V2000
   -3.9312    4.9374   -8.1933 C   0  0  0  0  0  0  0  0  0  0  0  0
   -2.8974    5.6522   -8.7400 C   0  0  0  0  0  0  0  0  0  0  0  0
   -3.1195    7.0360   -9.2119 C   0  0  0  0  0  0  0  0  0  0  0  0
   -4.1851    7.5803   -9.4138 O   0  0  0  0  0  0  0  0  0  0  0  0
   -1.7682    7.6317   -9.3173 C   0  0  0  0  0  0  0  0  0  0  0  0
   -1.4454    8.9531   -9.6145 C   0  0  0  0  0  0  0  0  0  0  0  0
   -0.0962    9.2175   -9.6059 C   0  0  0  0  0  0  0  0  0  0  0  0
    0.8674    8.2434   -9.3154 C   0  0  0  0  0  0  0  0  0  0  0  0
    0.5657    6.9306   -9.0380 C   0  0  0  0  0  0  0  0  0  0  0  0
   -0.8000    6.6418   -9.0493 C   0  0  0  0  0  0  0  0  0  0  0  0
   -1.4891    5.3690   -8.8489 C   0  0  0  0  0  0  0  0  0  0  0  0
   -0.9294    4.1246   -9.0198 C   0  0  0  0  0  0  0  0  0  0  0  0
   -1.7103    2.9579   -9.1438 C   0  0  0  0  0  0  0  0  0  0  0  0
   -2.3310    2.0041   -9.3058 N   0  0  0  0  0  0  0  0  0  0  0  0
    0.4489    3.8850   -9.1472 C   0  0  0  0  0  0  0  0  0  0  0  0
    1.5662    3.6286   -9.2297 N   0  0  0  0  0  0  0  0  0  0  0  0
    2.0120    9.2128   -9.4749 C   0  0  0  0  0  0  0  0  0  0  0  0
    2.6774    9.7781   -8.1955 C   0  0  0  0  0  0  0  0  0  0  0  0
    1.6296    9.7488   -7.1112 C   0  0  0  0  0  0  0  0  0  0  0  0
    0.7201   10.6695   -7.4010 C   0  0  0  0  0  0  0  0  0  0  0  0
    1.1379   11.3399   -8.6860 C   0  0  0  0  0  0  0  0  0  0  0  0
    2.6669   11.2763   -8.5394 C   0  0  0  0  0  0  0  0  0  0  0  0
    0.9394   10.2960   -9.8117 C   0  0  0  0  0  0  0  0  0  0  0  0
   -3.8332    3.8645   -7.2945 C   0  0  0  0  0  0  0  0  0  0  0  0
   -4.8025    2.9074   -6.9463 C   0  0  0  0  0  0  0  0  0  0  0  0
   -6.0786    2.8393   -7.4332 N   0  0  0  0  0  0  0  0  0  0  0  0
   -6.6418    1.5763   -7.6989 C   0  0  0  0  0  0  0  0  0  0  0  0
   -7.9661    1.3143   -7.3612 C   0  0  0  0  0  0  0  0  0  0  0  0
   -8.5185    0.0843   -7.6517 C   0  0  0  0  0  0  0  0  0  0  0  0
   -7.7731   -0.9071   -8.2816 C   0  0  0  0  0  0  0  0  0  0  0  0
   -8.4047   -2.2242   -8.6098 C   0  0  0  0  0  0  0  0  0  0  0  0
   -6.4513   -0.6352   -8.6076 C   0  0  0  0  0  0  0  0  0  0  0  0
   -5.8830    0.5911   -8.3229 C   0  0  0  0  0  0  0  0  0  0  0  0
   -6.8365    3.9945   -7.6800 C   0  0  0  0  0  0  0  0  0  0  0  0
   -6.7867    5.0702   -6.7951 C   0  0  0  0  0  0  0  0  0  0  0  0
   -7.5231    6.2091   -7.0485 C   0  0  0  0  0  0  0  0  0  0  0  0
   -8.3323    6.3042   -8.1756 C   0  0  0  0  0  0  0  0  0  0  0  0
   -9.0924    7.5611   -8.4615 C   0  0  0  0  0  0  0  0  0  0  0  0
   -8.3924    5.2174   -9.0397 C   0  0  0  0  0  0  0  0  0  0  0  0
   -7.6556    4.0737   -8.8022 C   0  0  0  0  0  0  0  0  0  0  0  0
   -4.2690    1.9534   -6.0476 C   0  0  0  0  0  0  0  0  0  0  0  0
   -4.9062    0.5497   -5.2597 S   0  0  0  0  0  0  0  0  0  0  0  0
   -3.3743    0.3004   -4.4234 C   0  0  0  0  0  0  0  0  0  0  0  0
   -2.4085    1.2332   -4.7894 C   0  0  0  0  0  0  0  0  0  0  0  0
   -1.0779    1.2213   -4.4222 N   0  0  0  0  0  0  0  0  0  0  0  0
   -0.3437    2.4179   -4.5781 C   0  0  0  0  0  0  0  0  0  0  0  0
    0.7599    2.4564   -5.4240 C   0  0  0  0  0  0  0  0  0  0  0  0
    1.4131    3.6509   -5.6515 C   0  0  0  0  0  0  0  0  0  0  0  0
    0.9911    4.8242   -5.0369 C   0  0  0  0  0  0  0  0  0  0  0  0
    1.6474    6.1335   -5.3496 C   0  0  0  0  0  0  0  0  0  0  0  0
   -0.0801    4.7653   -4.1536 C   0  0  0  0  0  0  0  0  0  0  0  0
   -0.7466    3.5772   -3.9226 C   0  0  0  0  0  0  0  0  0  0  0  0
   -0.3703    0.0313   -4.2021 C   0  0  0  0  0  0  0  0  0  0  0  0
    0.6614    0.0196   -3.2672 C   0  0  0  0  0  0  0  0  0  0  0  0
    1.3215   -1.1585   -2.9767 C   0  0  0  0  0  0  0  0  0  0  0  0
    0.9745   -2.3486   -3.6021 C   0  0  0  0  0  0  0  0  0  0  0  0
    1.6537   -3.6391   -3.2595 C   0  0  0  0  0  0  0  0  0  0  0  0
   -0.0269   -2.3187   -4.5673 C   0  0  0  0  0  0  0  0  0  0  0  0
   -0.6849   -1.1466   -4.8747 C   0  0  0  0  0  0  0  0  0  0  0  0
   -2.9544    2.1876   -5.6778 C   0  0  0  0  0  0  0  0  0  0  0  0
   -2.3287    3.6151   -6.4086 S   0  0  0  0  0  0  0  0  0  0  0  0
   -3.2699   -0.7195   -3.4341 C   0  0  0  0  0  0  0  0  0  0  0  0
   -3.9217   -1.9354   -3.3679 C   0  0  0  0  0  0  0  0  0  0  0  0
   -4.7507   -2.5358   -4.4147 C   0  0  0  0  0  0  0  0  0  0  0  0
   -4.3374   -2.5615   -5.7436 C   0  0  0  0  0  0  0  0  0  0  0  0
   -5.0907   -3.2308   -6.6871 C   0  0  0  0  0  0  0  0  0  0  0  0
   -6.2600   -3.8741   -6.3212 C   0  0  0  0  0  0  0  0  0  0  0  0
   -6.6998   -3.8405   -5.0052 C   0  0  0  0  0  0  0  0  0  0  0  0
   -7.9403   -4.5721   -4.5807 C   0  0  0  0  0  0  0  0  0  0  0  0
   -7.5731   -5.9282   -3.9747 C   0  0  0  0  0  0  0  0  0  0  0  0
   -5.9351   -3.1723   -4.0613 C   0  0  0  0  0  0  0  0  0  0  0  0
   -3.6199   -2.6143   -2.1685 C   0  0  0  0  0  0  0  0  0  0  0  0
   -4.0793   -4.1849   -1.5546 S   0  0  0  0  0  0  0  0  0  0  0  0
   -3.0649   -3.9181   -0.1762 C   0  0  0  0  0  0  0  0  0  0  0  0
   -2.6953   -4.5579    1.0175 C   0  0  0  0  0  0  0  0  0  0  0  0
   -3.1565   -5.7540    1.6085 C   0  0  0  0  0  0  0  0  0  0  0  0
   -2.6916   -6.1034    2.9200 C   0  0  0  0  0  0  0  0  0  0  0  0
   -3.2493   -7.2138    3.3763 N   0  0  0  0  0  0  0  0  0  0  0  0
   -4.2680   -7.7753    2.2494 S   0  0  0  0  0  0  0  0  0  0  0  0
   -4.0384   -6.6215    1.1368 N   0  0  0  0  0  0  0  0  0  0  0  0
   -1.7030   -5.3005    3.5287 C   0  0  0  0  0  0  0  0  0  0  0  0
   -0.9921   -5.4667    4.7278 C   0  0  0  0  0  0  0  0  0  0  0  0
   -0.9456   -6.5352    6.0892 S   0  0  0  0  0  0  0  0  0  0  0  0
    0.3836   -5.6052    6.7391 C   0  0  0  0  0  0  0  0  0  0  0  0
    1.1596   -5.7477    7.9051 C   0  0  0  0  0  0  0  0  0  0  0  0
    0.9675   -6.8437    8.8587 C   0  0  0  0  0  0  0  0  0  0  0  0
   -0.2947   -7.0913    9.3881 C   0  0  0  0  0  0  0  0  0  0  0  0
   -0.4731   -8.1355   10.2755 C   0  0  0  0  0  0  0  0  0  0  0  0
    0.5965   -8.9358   10.6365 C   0  0  0  0  0  0  0  0  0  0  0  0
    1.8591   -8.7138   10.1017 C   0  0  0  0  0  0  0  0  0  0  0  0
    3.0351   -9.5451   10.5258 C   0  0  0  0  0  0  0  0  0  0  0  0
    3.7697   -8.8624   11.6815 C   0  0  0  0  0  0  0  0  0  0  0  0
    2.0314   -7.6685    9.2074 C   0  0  0  0  0  0  0  0  0  0  0  0
    2.1250   -4.7614    7.9931 C   0  0  0  0  0  0  0  0  0  0  0  0
    2.0887   -3.6689    6.6091 S   0  0  0  0  0  0  0  0  0  0  0  0
    0.7586   -4.5333    5.9263 C   0  0  0  0  0  0  0  0  0  0  0  0
   -0.0348   -4.4507    4.7763 C   0  0  0  0  0  0  0  0  0  0  0  0
   -0.1448   -3.6460    3.6732 N   0  0  0  0  0  0  0  0  0  0  0  0
   -1.1766   -4.1417    2.8909 C   0  0  0  0  0  0  0  0  0  0  0  0
   -1.7640   -3.7043    1.6743 C   0  0  0  0  0  0  0  0  0  0  0  0
   -1.6119   -2.5583    0.9081 N   0  0  0  0  0  0  0  0  0  0  0  0
   -2.4052   -2.6883   -0.1987 C   0  0  0  0  0  0  0  0  0  0  0  0
   -2.7341   -1.9357   -1.3339 C   0  0  0  0  0  0  0  0  0  0  0  0
   -2.3077   -0.3982   -1.9915 S   0  0  0  0  0  0  0  0  0  0  0  0
   -1.1026   -1.2547    1.2687 C   0  0  0  0  0  0  0  0  0  0  0  0
   -1.8121   -0.6948    2.4991 C   0  0  0  0  0  0  0  0  0  0  0  0
    0.9501   -2.7710    3.3183 C   0  0  0  0  0  0  0  0  0  0  0  0
    1.6986   -3.2774    2.0878 C   0  0  0  0  0  0  0  0  0  0  0  0
    3.0532   -4.4672    9.0308 C   0  0  0  0  0  0  0  0  0  0  0  0
    2.9200   -5.1798   10.6307 S   0  0  0  0  0  0  0  0  0  0  0  0
    4.3045   -4.2696   11.1846 C   0  0  0  0  0  0  0  0  0  0  0  0
    4.8570   -4.3184   12.4381 C   0  0  0  0  0  0  0  0  0  0  0  0
    5.9779   -3.5128   12.6888 C   0  0  0  0  0  0  0  0  0  0  0  0
    6.7172   -3.3838   13.8724 C   0  0  0  0  0  0  0  0  0  0  0  0
    7.7761   -2.4943   13.7841 C   0  0  0  0  0  0  0  0  0  0  0  0
    7.8861   -1.7740   12.1865 S   0  0  0  0  0  0  0  0  0  0  0  0
    6.5019   -2.6830   11.6564 C   0  0  0  0  0  0  0  0  0  0  0  0
    5.9408   -2.6435   10.3978 C   0  0  0  0  0  0  0  0  0  0  0  0
    4.8287   -3.4445   10.1471 C   0  0  0  0  0  0  0  0  0  0  0  0
    4.0922   -3.5792    8.9498 C   0  0  0  0  0  0  0  0  0  0  0  0
    8.6226   -2.2471   14.8827 C   0  0  0  0  0  0  0  0  0  0  0  0
    9.7073   -1.4225   15.0115 C   0  0  0  0  0  0  0  0  0  0  0  0
   10.2694   -0.5501   13.9642 C   0  0  0  0  0  0  0  0  0  0  0  0
    9.8816   -0.4094   12.8215 O   0  0  0  0  0  0  0  0  0  0  0  0
   11.4188    0.1349   14.5830 C   0  0  0  0  0  0  0  0  0  0  0  0
   12.2804    1.0578   14.0211 C   0  0  0  0  0  0  0  0  0  0  0  0
   13.3006    1.5734   14.8037 C   0  0  0  0  0  0  0  0  0  0  0  0
   13.4357    1.1567   16.1235 C   0  0  0  0  0  0  0  0  0  0  0  0
   14.7100    1.8085   17.0816 Cl  0  0  0  0  0  0  0  0  0  0  0  0
   12.5745    0.2279   16.7003 C   0  0  0  0  0  0  0  0  0  0  0  0
   11.5551   -0.2866   15.9166 C   0  0  0  0  0  0  0  0  0  0  0  0
   10.5026   -1.2596   16.2150 C   0  0  0  0  0  0  0  0  0  0  0  0
   10.3302   -1.8843   17.4225 C   0  0  0  0  0  0  0  0  0  0  0  0
    9.3270   -2.8255   17.7372 C   0  0  0  0  0  0  0  0  0  0  0  0
    8.5505   -3.5976   18.0849 N   0  0  0  0  0  0  0  0  0  0  0  0
   11.1518   -1.6717   18.5507 C   0  0  0  0  0  0  0  0  0  0  0  0
   11.7726   -1.5501   19.5085 N   0  0  0  0  0  0  0  0  0  0  0  0
   -4.9215    5.3106   -8.4280 H   0  0  0  0  0  0  0  0  0  0  0  0
   -2.2152    9.6768   -9.8329 H   0  0  0  0  0  0  0  0  0  0  0  0
    1.3105    6.1815   -8.8231 H   0  0  0  0  0  0  0  0  0  0  0  0
    2.7422    8.9628  -10.2423 H   0  0  0  0  0  0  0  0  0  0  0  0
    3.6353    9.3277   -7.9486 H   0  0  0  0  0  0  0  0  0  0  0  0
    1.6302    9.0480   -6.2974 H   0  0  0  0  0  0  0  0  0  0  0  0
   -0.1947   10.8871   -6.8813 H   0  0  0  0  0  0  0  0  0  0  0  0
    0.6945   12.3118   -8.8866 H   0  0  0  0  0  0  0  0  0  0  0  0
    3.0388   11.8983   -7.7264 H   0  0  0  0  0  0  0  0  0  0  0  0
    3.2009   11.5143   -9.4584 H   0  0  0  0  0  0  0  0  0  0  0  0
    0.9668   10.7446  -10.8030 H   0  0  0  0  0  0  0  0  0  0  0  0
   -8.5532    2.0791   -6.8744 H   0  0  0  0  0  0  0  0  0  0  0  0
   -9.5472   -0.1125   -7.3867 H   0  0  0  0  0  0  0  0  0  0  0  0
   -9.2451   -2.0816   -9.2887 H   0  0  0  0  0  0  0  0  0  0  0  0
   -7.6888   -2.8920   -9.0808 H   0  0  0  0  0  0  0  0  0  0  0  0
   -8.7840   -2.6953   -7.7043 H   0  0  0  0  0  0  0  0  0  0  0  0
   -5.8588   -1.3858   -9.1084 H   0  0  0  0  0  0  0  0  0  0  0  0
   -4.8601    0.7994   -8.6012 H   0  0  0  0  0  0  0  0  0  0  0  0
   -6.1625    5.0065   -5.9155 H   0  0  0  0  0  0  0  0  0  0  0  0
   -7.4695    7.0397   -6.3602 H   0  0  0  0  0  0  0  0  0  0  0  0
   -8.4325    8.2841   -8.9417 H   0  0  0  0  0  0  0  0  0  0  0  0
   -9.9291    7.3691   -9.1285 H   0  0  0  0  0  0  0  0  0  0  0  0
   -9.4653    8.0074   -7.5421 H   0  0  0  0  0  0  0  0  0  0  0  0
   -9.0156    5.2708   -9.9203 H   0  0  0  0  0  0  0  0  0  0  0  0
   -7.6991    3.2411   -9.4883 H   0  0  0  0  0  0  0  0  0  0  0  0
    1.0804    1.5535   -5.9226 H   0  0  0  0  0  0  0  0  0  0  0  0
    2.2449    3.6746   -6.3396 H   0  0  0  0  0  0  0  0  0  0  0  0
    1.0573    6.6649   -6.0984 H   0  0  0  0  0  0  0  0  0  0  0  0
    1.7096    6.7597   -4.4616 H   0  0  0  0  0  0  0  0  0  0  0  0
    2.6468    5.9834   -5.7502 H   0  0  0  0  0  0  0  0  0  0  0  0
   -0.4073    5.6646   -3.6520 H   0  0  0  0  0  0  0  0  0  0  0  0
   -1.5916    3.5404   -3.2503 H   0  0  0  0  0  0  0  0  0  0  0  0
    0.9260    0.9363   -2.7613 H   0  0  0  0  0  0  0  0  0  0  0  0
    2.1118   -1.1530   -2.2394 H   0  0  0  0  0  0  0  0  0  0  0  0
    0.9340   -4.3471   -2.8485 H   0  0  0  0  0  0  0  0  0  0  0  0
    2.0884   -4.0895   -4.1508 H   0  0  0  0  0  0  0  0  0  0  0  0
    2.4433   -3.4828   -2.5286 H   0  0  0  0  0  0  0  0  0  0  0  0
   -0.2924   -3.2281   -5.0870 H   0  0  0  0  0  0  0  0  0  0  0  0
   -1.4428   -1.1344   -5.6429 H   0  0  0  0  0  0  0  0  0  0  0  0
   -3.4137   -2.0828   -6.0293 H   0  0  0  0  0  0  0  0  0  0  0  0
   -4.7520   -3.2676   -7.7117 H   0  0  0  0  0  0  0  0  0  0  0  0
   -6.8319   -4.4148   -7.0609 H   0  0  0  0  0  0  0  0  0  0  0  0
   -8.5965   -4.7254   -5.4400 H   0  0  0  0  0  0  0  0  0  0  0  0
   -8.4810   -3.9814   -3.8381 H   0  0  0  0  0  0  0  0  0  0  0  0
   -8.4677   -6.4578   -3.6555 H   0  0  0  0  0  0  0  0  0  0  0  0
   -7.0501   -6.5390   -4.7072 H   0  0  0  0  0  0  0  0  0  0  0  0
   -6.9209   -5.7945   -3.1148 H   0  0  0  0  0  0  0  0  0  0  0  0
   -6.2667   -3.1428   -3.0335 H   0  0  0  0  0  0  0  0  0  0  0  0
   -1.1250   -6.4585    9.1130 H   0  0  0  0  0  0  0  0  0  0  0  0
   -1.4523   -8.3245   10.6898 H   0  0  0  0  0  0  0  0  0  0  0  0
    0.4498   -9.7463   11.3358 H   0  0  0  0  0  0  0  0  0  0  0  0
    3.7228   -9.6715    9.6871 H   0  0  0  0  0  0  0  0  0  0  0  0
    2.6981  -10.5331   10.8445 H   0  0  0  0  0  0  0  0  0  0  0  0
    4.6243   -9.4573   11.9949 H   0  0  0  0  0  0  0  0  0  0  0  0
    4.1214   -7.8789   11.3776 H   0  0  0  0  0  0  0  0  0  0  0  0
    3.1018   -8.7369   12.5307 H   0  0  0  0  0  0  0  0  0  0  0  0
    3.0033   -7.4969    8.7659 H   0  0  0  0  0  0  0  0  0  0  0  0
   -1.2940   -0.6019    0.4133 H   0  0  0  0  0  0  0  0  0  0  0  0
   -0.0214   -1.2874    1.4080 H   0  0  0  0  0  0  0  0  0  0  0  0
   -2.8745   -0.5841    2.2947 H   0  0  0  0  0  0  0  0  0  0  0  0
   -1.4044    0.2806    2.7506 H   0  0  0  0  0  0  0  0  0  0  0  0
   -1.6993   -1.3561    3.3549 H   0  0  0  0  0  0  0  0  0  0  0  0
    1.6293   -2.7630    4.1746 H   0  0  0  0  0  0  0  0  0  0  0  0
    0.5980   -1.7481    3.1805 H   0  0  0  0  0  0  0  0  0  0  0  0
    2.5132   -2.6000    1.8458 H   0  0  0  0  0  0  0  0  0  0  0  0
    1.0374   -3.3553    1.2280 H   0  0  0  0  0  0  0  0  0  0  0  0
    2.1142   -4.2627    2.2862 H   0  0  0  0  0  0  0  0  0  0  0  0
    4.4505   -4.9504   13.2116 H   0  0  0  0  0  0  0  0  0  0  0  0
    6.4916   -3.9232   14.7762 H   0  0  0  0  0  0  0  0  0  0  0  0
    6.3484   -2.0114    9.6251 H   0  0  0  0  0  0  0  0  0  0  0  0
    4.3275   -3.0400    8.0487 H   0  0  0  0  0  0  0  0  0  0  0  0
    8.3429   -2.8207   15.7584 H   0  0  0  0  0  0  0  0  0  0  0  0
   12.1514    1.3628   12.9943 H   0  0  0  0  0  0  0  0  0  0  0  0
   13.9925    2.2956   14.4002 H   0  0  0  0  0  0  0  0  0  0  0  0
   12.7170   -0.0659   17.7268 H   0  0  0  0  0  0  0  0  0  0  0  0
  1  2  2  0  0  0  0
  2  3  1  0  0  0  0
  3  4  2  0  0  0  0
  3  5  1  0  0  0  0
  5  6  2  0  0  0  0
  6  7  1  0  0  0  0
  7  8  2  0  0  0  0
  8  9  1  0  0  0  0
  9 10  2  0  0  0  0
 10 11  1  0  0  0  0
 11 12  2  0  0  0  0
 12 13  1  0  0  0  0
 13 14  3  0  0  0  0
 12 15  1  0  0  0  0
 15 16  3  0  0  0  0
  8 17  1  0  0  0  0
 17 18  1  0  0  0  0
 18 19  1  0  0  0  0
 19 20  2  0  0  0  0
 20 21  1  0  0  0  0
 21 22  1  0  0  0  0
 21 23  1  0  0  0  0
  1 24  1  0  0  0  0
 24 25  2  0  0  0  0
 25 26  1  0  0  0  0
 26 27  1  0  0  0  0
 27 28  2  0  0  0  0
 28 29  1  0  0  0  0
 29 30  2  0  0  0  0
 30 31  1  0  0  0  0
 30 32  1  0  0  0  0
 32 33  2  0  0  0  0
 26 34  1  0  0  0  0
 34 35  2  0  0  0  0
 35 36  1  0  0  0  0
 36 37  2  0  0  0  0
 37 38  1  0  0  0  0
 37 39  1  0  0  0  0
 39 40  2  0  0  0  0
 25 41  1  0  0  0  0
 41 42  1  0  0  0  0
 42 43  1  0  0  0  0
 43 44  2  0  0  0  0
 44 45  1  0  0  0  0
 45 46  1  0  0  0  0
 46 47  2  0  0  0  0
 47 48  1  0  0  0  0
 48 49  2  0  0  0  0
 49 50  1  0  0  0  0
 49 51  1  0  0  0  0
 51 52  2  0  0  0  0
 45 53  1  0  0  0  0
 53 54  2  0  0  0  0
 54 55  1  0  0  0  0
 55 56  2  0  0  0  0
 56 57  1  0  0  0  0
 56 58  1  0  0  0  0
 58 59  2  0  0  0  0
 44 60  1  0  0  0  0
 60 61  1  0  0  0  0
 43 62  1  0  0  0  0
 62 63  2  0  0  0  0
 63 64  1  0  0  0  0
 64 65  2  0  0  0  0
 65 66  1  0  0  0  0
 66 67  2  0  0  0  0
 67 68  1  0  0  0  0
 68 69  1  0  0  0  0
 69 70  1  0  0  0  0
 68 71  2  0  0  0  0
 63 72  1  0  0  0  0
 72 73  1  0  0  0  0
 73 74  1  0  0  0  0
 74 75  1  0  0  0  0
 75 76  1  0  0  0  0
 76 77  1  0  0  0  0
 77 78  2  0  0  0  0
 78 79  1  0  0  0  0
 79 80  1  0  0  0  0
 77 81  1  0  0  0  0
 81 82  1  0  0  0  0
 82 83  1  0  0  0  0
 83 84  1  0  0  0  0
 84 85  1  0  0  0  0
 85 86  1  0  0  0  0
 86 87  2  0  0  0  0
 87 88  1  0  0  0  0
 88 89  2  0  0  0  0
 89 90  1  0  0  0  0
 90 91  1  0  0  0  0
 91 92  1  0  0  0  0
 90 93  2  0  0  0  0
 85 94  2  0  0  0  0
 94 95  1  0  0  0  0
 95 96  1  0  0  0  0
 96 97  1  0  0  0  0
 97 98  1  0  0  0  0
 98 99  1  0  0  0  0
 99100  1  0  0  0  0
100101  1  0  0  0  0
101102  1  0  0  0  0
102103  1  0  0  0  0
103104  1  0  0  0  0
101105  1  0  0  0  0
105106  1  0  0  0  0
 98107  1  0  0  0  0
107108  1  0  0  0  0
 94109  1  0  0  0  0
109110  1  0  0  0  0
110111  1  0  0  0  0
111112  2  0  0  0  0
112113  1  0  0  0  0
113114  1  0  0  0  0
114115  2  0  0  0  0
115116  1  0  0  0  0
116117  1  0  0  0  0
117118  1  0  0  0  0
118119  2  0  0  0  0
119120  1  0  0  0  0
115121  1  0  0  0  0
121122  2  0  0  0  0
122123  1  0  0  0  0
123124  2  0  0  0  0
123125  1  0  0  0  0
125126  2  0  0  0  0
126127  1  0  0  0  0
127128  2  0  0  0  0
128129  1  0  0  0  0
128130  1  0  0  0  0
130131  2  0  0  0  0
131132  1  0  0  0  0
132133  2  0  0  0  0
133134  1  0  0  0  0
134135  3  0  0  0  0
133136  1  0  0  0  0
136137  3  0  0  0  0
 11  2  1  0  0  0  0
 23 17  1  0  0  0  0
 61 24  1  0  0  0  0
104 62  1  0  0  0  0
120109  2  0  0  0  0
132122  1  0  0  0  0
 10  5  1  0  0  0  0
 22 18  1  0  0  0  0
 33 27  1  0  0  0  0
 40 34  1  0  0  0  0
 60 41  2  0  0  0  0
 71 64  1  0  0  0  0
103 72  2  0  0  0  0
119111  1  0  0  0  0
131125  1  0  0  0  0
 23  7  1  0  0  0  0
 52 46  1  0  0  0  0
 59 53  1  0  0  0  0
102 74  2  0  0  0  0
117113  2  0  0  0  0
100 75  2  0  0  0  0
 80 76  2  0  0  0  0
 99 81  2  0  0  0  0
 97 82  2  0  0  0  0
 96 84  2  0  0  0  0
 93 86  1  0  0  0  0
  1138  1  0  0  0  0
  6139  1  0  0  0  0
  9140  1  0  0  0  0
 17141  1  0  0  0  0
 18142  1  0  0  0  0
 19143  1  0  0  0  0
 20144  1  0  0  0  0
 21145  1  0  0  0  0
 22146  1  0  0  0  0
 22147  1  0  0  0  0
 23148  1  0  0  0  0
 28149  1  0  0  0  0
 29150  1  0  0  0  0
 31151  1  0  0  0  0
 31152  1  0  0  0  0
 31153  1  0  0  0  0
 32154  1  0  0  0  0
 33155  1  0  0  0  0
 35156  1  0  0  0  0
 36157  1  0  0  0  0
 38158  1  0  0  0  0
 38159  1  0  0  0  0
 38160  1  0  0  0  0
 39161  1  0  0  0  0
 40162  1  0  0  0  0
 47163  1  0  0  0  0
 48164  1  0  0  0  0
 50165  1  0  0  0  0
 50166  1  0  0  0  0
 50167  1  0  0  0  0
 51168  1  0  0  0  0
 52169  1  0  0  0  0
 54170  1  0  0  0  0
 55171  1  0  0  0  0
 57172  1  0  0  0  0
 57173  1  0  0  0  0
 57174  1  0  0  0  0
 58175  1  0  0  0  0
 59176  1  0  0  0  0
 65177  1  0  0  0  0
 66178  1  0  0  0  0
 67179  1  0  0  0  0
 69180  1  0  0  0  0
 69181  1  0  0  0  0
 70182  1  0  0  0  0
 70183  1  0  0  0  0
 70184  1  0  0  0  0
 71185  1  0  0  0  0
 87186  1  0  0  0  0
 88187  1  0  0  0  0
 89188  1  0  0  0  0
 91189  1  0  0  0  0
 91190  1  0  0  0  0
 92191  1  0  0  0  0
 92192  1  0  0  0  0
 92193  1  0  0  0  0
 93194  1  0  0  0  0
105195  1  0  0  0  0
105196  1  0  0  0  0
106197  1  0  0  0  0
106198  1  0  0  0  0
106199  1  0  0  0  0
107200  1  0  0  0  0
107201  1  0  0  0  0
108202  1  0  0  0  0
108203  1  0  0  0  0
108204  1  0  0  0  0
112205  1  0  0  0  0
114206  1  0  0  0  0
118207  1  0  0  0  0
120208  1  0  0  0  0
121209  1  0  0  0  0
126210  1  0  0  0  0
127211  1  0  0  0  0
130212  1  0  0  0  0
M  END
