268

C          7.24860       -1.43730       -3.34040
C          7.23760       -0.62680       -2.23110
C          6.05480       -0.00510       -1.62120
O          5.00440        0.29520       -2.15910
C          6.40160        0.23010       -0.21110
C          5.53140        0.61270        0.80540
C          6.12840        0.70860        2.03870
C          7.49770        0.48730        2.23620
C          8.36480        0.10230        1.23870
C          7.76980       -0.04610       -0.01860
C          8.33030       -0.50830       -1.29000
C          9.64750       -0.81670       -1.52440
C         10.65320       -0.81950       -0.54070
N         11.51680       -0.88520        0.21500
C         10.17980       -1.15750       -2.78340
N         10.69500       -1.41310       -3.77850
C          7.40690        0.77170        3.71680
C          7.86860        2.16350        4.20080
C          7.23420        2.28850        5.56790
C          5.92940        2.45500        5.39320
C          5.65810        2.45450        3.90680
C          6.95450        3.09950        3.39950
C          5.87400        0.98370        3.49880
C          6.15980       -1.91880       -4.08070
C          6.16030       -3.12560       -4.81950
N          7.22850       -3.98030       -4.95990
C          8.15930       -4.18890       -3.92260
C          7.73890       -4.26210       -2.59570
C          8.66600       -4.41290       -1.58470
C         10.02440       -4.52300       -1.86450
C         11.02790       -4.64620       -0.76050
C         10.42710       -4.49600       -3.19430
C          9.51250       -4.32590       -4.21530
C          7.29350       -4.78730       -6.10820
C          7.70320       -6.11460       -6.02350
C          7.75070       -6.89820       -7.15950
C          7.38770       -6.38960       -8.40010
C          7.44020       -7.23750       -9.63340
C          6.98760       -5.06000       -8.47640
C          6.94480       -4.26300       -7.35150
C          4.86970       -3.41870       -5.30270
S          4.13480       -4.80540       -6.05770
C          2.53580       -4.12850       -5.78550
C          2.59120       -2.85880       -5.23410
N          1.48740       -2.09420       -4.89270
C          0.35510       -2.02480       -5.71400
C         -0.91570       -1.92300       -5.14860
C         -2.03450       -1.86380       -5.95140
C         -1.92700       -1.90050       -7.33750
C         -3.16000       -1.86340       -8.18660
C         -0.65820       -1.98480       -7.89440
C          0.47060       -2.04990       -7.10000
C          1.51680       -1.37570       -3.68360
C          1.01820       -0.07720       -3.62260
C          1.04660        0.61840       -2.43290
C          1.57640        0.05160       -1.27810
C          1.60170        0.83470       -0.00240
C          2.07500       -1.24060       -1.34810
C          2.04240       -1.95360       -2.53170
C          3.92250       -2.46180       -4.96850
S          4.56580       -1.16400       -4.04590
C          1.27880       -4.84770       -5.73540
C          0.26780       -5.09080       -6.64150
C          0.47600       -5.14080       -8.08470
C          1.73110       -5.46500       -8.60050
C          1.93070       -5.51500       -9.96580
C          0.88670       -5.25530      -10.83690
C         -0.37460       -4.94700      -10.34400
C         -1.53410       -4.72120      -11.27150
C         -2.31220       -6.02260      -11.47330
C         -0.56770       -4.89640       -8.97270
C         -0.98220       -5.23800       -5.97210
S         -2.65960       -5.17400       -6.49340
C         -3.17190       -4.92130       -4.85190
C         -4.26920       -4.42000       -4.12410
C         -5.50330       -3.88040       -4.55000
C         -6.26920       -3.07540       -3.63410
N         -7.34050       -2.54690       -4.20360
S         -7.39250       -3.02400       -5.75040
N         -6.03960       -3.91580       -5.75940
C         -5.81800       -2.92000       -2.30410
C         -6.25420       -2.10120       -1.24290
S         -7.38420       -0.82410       -0.90850
C         -6.62190       -0.56460        0.65210
C         -6.76310        0.41320        1.65730
C         -7.81450        1.42820        1.63780
C         -8.55650        1.71550        2.78220
C         -9.57890        2.64230        2.72480
C         -9.89480        3.26330        1.52860
C         -9.18400        2.96960        0.37260
C         -9.58010        3.54340       -0.95690
C        -10.42320        2.52780       -1.73170
C         -8.13750        2.06370        0.44380
C         -5.78780        0.27070        2.64150
S         -4.76900       -1.14240        2.36870
C         -5.59840       -1.47870        0.89940
C         -5.39820       -2.35150       -0.17100
N         -4.46910       -3.30190       -0.49910
C         -4.67080       -3.62050       -1.83470
C         -3.84080       -4.28450       -2.77210
N         -2.52770       -4.70500       -2.68880
C         -2.11770       -5.02980       -3.94800
C         -0.88290       -5.18800       -4.58660
S          0.73950       -4.99350       -4.06190
C         -1.57190       -4.63620       -1.61020
C         -1.16100       -3.20120       -1.28600
C         -3.88400       -4.08730        0.57010
C         -4.33610       -5.54330        0.50560
C         -5.33480        1.21160        3.60010
C         -4.19690        1.07190        4.39910
N         -3.51270       -0.11940        4.61830
C         -2.10770       -0.05570        4.57590
C         -1.49130        0.64050        3.53900
C         -0.11520        0.72380        3.48000
C          0.68240        0.11640        4.44300
C          2.17590        0.17640        4.34490
C          0.05790       -0.56300        5.48180
C         -1.31860       -0.64730        5.55720
C         -4.17320       -1.21660        5.18490
C         -3.67020       -2.50500        5.00230
C         -4.33310       -3.59280        5.53080
C         -5.51750       -3.43910        6.24250
C         -6.22270       -4.62430        6.82760
C         -6.01660       -2.15440        6.41350
C         -5.35810       -1.05540        5.89780
C         -3.79820        2.30640        4.94180
S         -2.43980        2.81040        5.87770
C         -3.03920        4.47560        5.89010
C         -4.29890        4.58180        5.26130
N         -5.04910        5.71600        5.16070
C         -5.84010        5.92000        4.01150
C         -7.14900        6.37280        4.13600
C         -7.91470        6.57940        3.00640
C         -7.39990        6.33930        1.73790
C         -8.22300        6.61060        0.51810
C         -6.09230        5.88180        1.62770
C         -5.31090        5.67610        2.74740
C         -5.10200        6.66080        6.19890
C         -5.13390        8.02100        5.90710
C         -5.17780        8.94560        6.93210
C         -5.18980        8.54440        8.26290
C         -5.18550        9.54770        9.37230
C         -5.17670        7.18210        8.54330
C         -5.13880        6.24720        7.52930
C         -4.65820        3.35750        4.66070
S         -5.98470        2.84200        3.66830
C         -2.26080        5.49870        6.43370
C         -0.89250        5.52960        6.58560
C         -0.29460        6.43420        7.58960
O         -0.86740        7.27950        8.24330
C          1.13950        6.05930        7.64670
C          2.13330        6.52660        8.47690
C          3.41950        5.99890        8.33370
C          4.49070        6.51440        9.22260
O          4.32470        7.35690       10.06910
O          5.67900        5.93850        8.98350
C          6.75530        6.38680        9.79290
C          3.67460        5.01680        7.37870
C          2.67120        4.54870        6.54330
C          1.39780        5.07880        6.67060
C          0.16680        4.83340        5.91500
C          0.12950        4.29660        4.64550
C         -0.99880        4.35640        3.80680
N         -1.87100        4.44730        3.06310
C          1.25400        3.77320        3.98850
N          2.14350        3.33880        3.40220
H          8.20180       -1.87760       -3.60170
H          4.48730        0.78880        0.60420
H          9.41110       -0.08960        1.41090
H          7.73660       -0.03240        4.37310
H          8.93990        2.33510        4.14050
H          7.77400        2.18390        6.49110
H          5.16190        2.50620        6.14350
H          4.71700        2.88640        3.57840
H          7.08820        3.03250        2.32150
H          7.05080        4.13730        3.71440
H          5.18420        0.29980        3.98960
H          6.68660       -4.18300       -2.36300
H          8.32840       -4.45210       -0.55850
H         10.58670       -5.11400        0.11680
H         11.88670       -5.23050       -1.08150
H         11.38730       -3.65780       -0.46970
H         11.47560       -4.58480       -3.43480
H          9.84250       -4.27950       -5.24170
H          7.97390       -6.52940       -5.06390
H          8.06580       -7.92830       -7.07650
H          7.54810       -8.28880       -9.37910
H          8.28830       -6.94620      -10.25360
H          6.53600       -7.10970      -10.22550
H          6.71100       -4.64140       -9.43320
H          6.64640       -3.22780       -7.42960
H         -1.02160       -1.89210       -4.07460
H         -3.01260       -1.80170       -5.49510
H         -3.71150       -0.93910       -8.01720
H         -2.90760       -1.92750       -9.24210
H         -3.81880       -2.69300       -7.92950
H         -0.54380       -2.00280       -8.96850
H          1.44800       -2.12420       -7.55380
H          0.61550        0.37850       -4.51520
H          0.66230        1.62750       -2.39870
H          2.28480        1.67900       -0.09360
H          0.61300        1.23680        0.21510
H          1.91890        0.21440        0.83280
H          2.49390       -1.70300       -0.46520
H          2.42250       -2.96490       -2.56810
H          2.54530       -5.69910       -7.93260
H          2.90750       -5.76560      -10.35310
H          1.04980       -5.29750      -11.90440
H         -2.20340       -3.96900      -10.84930
H         -1.17460       -4.36000      -12.23720
H         -1.66650       -6.78740      -11.89950
H         -3.15300       -5.86370      -12.14450
H         -2.69080       -6.38500      -10.52040
H         -1.54580       -4.64620       -8.59400
H         -8.34340        1.19390        3.70370
H        -10.14680        2.86860        3.61520
H        -10.71070        3.97070        1.49020
H         -8.68820        3.78220       -1.53980
H        -10.15720        4.45880       -0.81640
H        -10.71180        2.93220       -2.69900
H        -11.32450        2.28260       -1.17440
H         -9.86010        1.61110       -1.89090
H         -7.56300        1.84750       -0.44470
H         -0.69000       -5.19180       -1.93900
H         -1.96660       -5.15300       -0.73560
H         -0.57830       -2.78590       -2.10390
H         -2.02960       -2.56750       -1.12550
H         -0.54010       -3.18170       -0.39430
H         -2.79710       -4.00400        0.57480
H         -4.23730       -3.64350        1.50490
H         -3.88580       -6.10610        1.31900
H         -5.41810       -5.60220        0.60000
H         -4.05470       -6.00360       -0.43890
H         -2.09810        1.11590        2.78190
H          0.34970        1.26980        2.67360
H          2.49020        1.10960        3.88270
H          2.54090       -0.64660        3.72830
H          2.63290        0.09050        5.32860
H          0.65750       -1.02700        6.25210
H         -1.78710       -1.16460        6.38130
H         -2.76300       -2.64230        4.43330
H         -3.92880       -4.58350        5.37860
H         -7.29280       -4.44410        6.89720
H         -5.84880       -4.82300        7.83280
H         -6.05220       -5.51360        6.22490
H         -6.93440       -2.00840        6.96480
H         -5.76190       -0.06520        6.05150
H         -7.55840        6.55830        5.11820
H         -8.93080        6.93070        3.11160
H         -8.10260        7.65110        0.21390
H         -7.91020        5.97840       -0.30800
H         -9.27760        6.43950        0.71840
H         -5.67410        5.69330        0.65010
H         -4.28950        5.33820        2.65100
H         -5.11150        8.34390        4.87700
H         -5.19000        9.99880        6.69330
H         -5.78860        9.20380       10.20980
H         -4.16530        9.68920        9.73010
H         -5.56290       10.50890        9.03270
H         -5.19540        6.85000        9.57070
H         -5.13110        5.19160        7.75930
H         -2.77590        6.36260        6.84040
H          1.93810        7.28520        9.21920
H          6.89830        7.46260        9.67230
H          6.55190        6.17720       10.84510
H          7.63460        5.84340        9.45690
H          4.67540        4.62350        7.29010
H          2.88860        3.78270        5.81650
