138

C         -3.90120        8.52940       -2.37730
C         -4.85550        7.83550       -3.04820
C         -4.97090        6.34880       -3.07110
O         -4.15870        5.52070       -2.72180
C         -6.34010        6.06850       -3.53870
C         -6.93220        4.81190       -3.64520
C         -8.22190        4.84020       -4.11530
C         -8.88000        6.03240       -4.44970
C         -8.31100        7.27860       -4.33970
C         -6.99410        7.27240       -3.86750
C         -6.07720        8.37960       -3.62170
C         -6.29230        9.69210       -3.94610
C         -7.47560       10.18470       -4.53510
N         -8.41190       10.64860       -5.01040
C         -5.34660       10.72500       -3.76970
N         -4.62380       11.61180       -3.67290
C        -10.14000        5.31220       -4.86080
C        -10.40780        5.13740       -6.37640
C         -9.06030        5.14550       -7.05490
C         -8.43930        4.01780       -6.73600
C         -9.35550        3.22700       -5.83500
C        -10.72040        3.63270       -6.41320
C         -9.40720        3.98560       -4.48570
C         -2.69140        7.95450       -1.84650
C         -2.24490        8.32080       -0.57010
C         -1.19580        7.66220        0.02790
C         -0.52080        6.63980       -0.65150
C         -0.89130        6.36330       -1.97280
C         -1.95720        7.00020       -2.55910
C          0.44920        5.79320        0.00420
C          1.27560        6.01920        1.08830
C          1.54600        7.33480        1.66840
C          1.66480        7.49400        3.04640
C          1.91760        8.74570        3.57530
C          2.05000        9.84420        2.74390
C          1.94800        9.70160        1.36530
C          2.03310       10.88980        0.45140
C          0.62820       11.36340        0.07200
C          1.70580        8.44240        0.83990
C          1.88160        4.82000        1.53020
S          2.95390        4.43010        2.85870
C          2.89010        2.75910        2.40130
C          3.30430        1.49950        2.87240
C          3.95340        1.11440        4.06610
C          4.04130       -0.28260        4.39170
N          4.59950       -0.49150        5.57370
S          4.98920        0.94190        6.21820
N          4.45600        1.88650        5.01660
C          3.59820       -1.23510        3.44830
C          3.64440       -2.64030        3.44200
S          4.07900       -3.94350        4.49480
C          3.66480       -5.07550        3.23070
C          3.68900       -6.48660        3.15930
C          4.16130       -7.36450        4.22910
C          3.82000       -7.10900        5.55380
C          4.24430       -7.96680        6.55010
C          5.00180       -9.08240        6.23850
C          5.36610       -9.34300        4.92370
C          6.14440      -10.57570        4.56130
C          5.20400      -11.65950        4.02960
C          4.95010       -8.47110        3.93010
C          3.26690       -6.92750        1.92310
S          2.88000       -5.61350        0.82810
C          3.23610       -4.45380        2.05700
C          3.20520       -3.05860        2.18430
N          2.86600       -1.97200        1.42050
C          3.06880       -0.83990        2.18980
C          2.79650        0.53330        1.96080
N          2.07230        1.18900        0.97700
C          2.11570        2.52780        1.26480
C          1.53500        3.70230        0.77200
S          0.46250        4.11440       -0.51140
C          0.97260        0.69480        0.17710
C         -0.20040        0.27580        1.06050
C          2.77560       -2.09680       -0.01720
C          1.44380       -2.69100       -0.47350
C          3.06370       -8.27940        1.45050
C          2.47500       -9.27750        2.23800
F          2.02220       -8.97760        3.46950
C          2.28930      -10.56330        1.78730
C          2.66770      -10.93860        0.49240
C          3.21040       -9.92470       -0.30600
F          3.57820      -10.20200       -1.57390
C          3.40560       -8.63950        0.14630
C          2.48190      -12.29340        0.02560
C          2.18710      -13.40350        0.78830
C          2.04790      -14.57300        0.03880
C          2.23390      -14.36210       -1.30810
C          2.15860      -15.31240       -2.32710
N          2.09190      -16.09980       -3.16010
S          2.59820      -12.70510       -1.65580
H         -4.07660        9.57350       -2.14560
H         -6.38840        3.92040       -3.37410
H         -8.83380        8.18730       -4.58810
H        -11.04050        5.57200       -4.30790
H        -11.15380        5.81440       -6.78330
H         -8.68640        5.97030       -7.63260
H         -7.44230        3.71170       -6.99390
H         -9.14390        2.16450       -5.74780
H        -11.56090        3.34810       -5.78170
H        -10.87690        3.25980       -7.42410
H         -9.82700        3.38010       -3.68460
H         -2.78010        9.08270       -0.02180
H         -0.91580        7.90580        1.04090
H         -0.34400        5.61640       -2.52950
H         -2.22150        6.77620       -3.57990
H          1.54260        6.64330        3.69930
H          2.00620        8.86580        4.64500
H          2.23870       10.82030        3.16700
H          2.56930       11.70260        0.94450
H          2.57790       10.62060       -0.45590
H          0.68200       12.22320       -0.59120
H          0.08300       10.56830       -0.43280
H          0.07240       11.64690        0.96320
H          1.64080        8.31590       -0.23150
H          3.20610       -6.25530        5.79540
H          3.97340       -7.76960        7.57670
H          5.31680       -9.75570        7.02270
H          6.67170      -10.95370        5.43890
H          6.88430      -10.33550        3.79460
H          4.69660      -11.31460        3.13030
H          4.45050      -11.90170        4.77600
H          5.75990      -12.56290        3.78940
H          5.24870       -8.65220        2.90640
H          1.28660       -0.12790       -0.45830
H          0.66490        1.51630       -0.47430
H         -1.02720       -0.06680        0.44420
H          0.09480       -0.52320        1.73760
H         -0.54040        1.12030        1.65570
H          2.96340       -1.11900       -0.46300
H          3.58230       -2.76390       -0.34410
H          1.38600       -2.66900       -1.55850
H          1.36610       -3.72490       -0.14970
H          0.59960       -2.14610       -0.06230
H          1.81710      -11.27140        2.44770
H          3.83940       -7.91000       -0.52010
H          2.09090      -13.38220        1.85820
H          1.82070      -15.53810        0.45500
