
  xtb     02192219573D
 energy: -346.413765744075 gnorm: 0.000224353534 xtb: 6.4.1 (unknown)
206230  0     0  0            999 V2000
   -1.3397   -6.9175   -4.5309 C   0  0  0  0  0  0  0  0  0  0  0  0
   -1.7030   -7.2865   -5.8085 C   0  0  0  0  0  0  0  0  0  0  0  0
   -2.9554   -6.8835   -6.4666 C   0  0  0  0  0  0  0  0  0  0  0  0
   -3.8392   -6.1851   -6.0042 O   0  0  0  0  0  0  0  0  0  0  0  0
   -2.9853   -7.6159   -7.7522 C   0  0  0  0  0  0  0  0  0  0  0  0
   -3.9673   -7.5522   -8.7361 C   0  0  0  0  0  0  0  0  0  0  0  0
   -3.7064   -8.3299   -9.8401 C   0  0  0  0  0  0  0  0  0  0  0  0
   -2.5680   -9.1372   -9.9451 C   0  0  0  0  0  0  0  0  0  0  0  0
   -1.5963   -9.2185   -8.9760 C   0  0  0  0  0  0  0  0  0  0  0  0
   -1.8300   -8.4134   -7.8593 C   0  0  0  0  0  0  0  0  0  0  0  0
   -1.0080   -8.1992   -6.6705 C   0  0  0  0  0  0  0  0  0  0  0  0
    0.2848   -8.6343   -6.4981 C   0  0  0  0  0  0  0  0  0  0  0  0
    1.0984   -8.2778   -5.4052 C   0  0  0  0  0  0  0  0  0  0  0  0
    1.8304   -8.0026   -4.5629 N   0  0  0  0  0  0  0  0  0  0  0  0
    0.9948   -9.4082   -7.4331 C   0  0  0  0  0  0  0  0  0  0  0  0
    1.6354  -10.0191   -8.1665 N   0  0  0  0  0  0  0  0  0  0  0  0
   -2.9502   -9.6409  -11.3153 C   0  0  0  0  0  0  0  0  0  0  0  0
   -2.1868   -9.0274  -12.5077 C   0  0  0  0  0  0  0  0  0  0  0  0
   -3.0727   -9.3196  -13.6968 C   0  0  0  0  0  0  0  0  0  0  0  0
   -4.1444   -8.5431  -13.6016 C   0  0  0  0  0  0  0  0  0  0  0  0
   -4.0010   -7.7134  -12.3460 C   0  0  0  0  0  0  0  0  0  0  0  0
   -2.4778   -7.5331  -12.3216 C   0  0  0  0  0  0  0  0  0  0  0  0
   -4.2149   -8.7302  -11.2041 C   0  0  0  0  0  0  0  0  0  0  0  0
   -1.7237   -5.7545   -3.8606 C   0  0  0  0  0  0  0  0  0  0  0  0
   -2.1786   -4.5051   -4.3312 C   0  0  0  0  0  0  0  0  0  0  0  0
   -2.2622   -4.0865   -5.6304 N   0  0  0  0  0  0  0  0  0  0  0  0
   -1.4310   -4.5692   -6.6464 C   0  0  0  0  0  0  0  0  0  0  0  0
   -1.9251   -4.6994   -7.9434 C   0  0  0  0  0  0  0  0  0  0  0  0
   -1.1249   -5.2107   -8.9467 C   0  0  0  0  0  0  0  0  0  0  0  0
    0.1799   -5.6117   -8.6930 C   0  0  0  0  0  0  0  0  0  0  0  0
    1.0292   -6.2303   -9.7581 C   0  0  0  0  0  0  0  0  0  0  0  0
    0.6813   -5.4346   -7.4058 C   0  0  0  0  0  0  0  0  0  0  0  0
   -0.1040   -4.9192   -6.3963 C   0  0  0  0  0  0  0  0  0  0  0  0
   -3.1850   -3.0651   -5.9431 C   0  0  0  0  0  0  0  0  0  0  0  0
   -4.4941   -3.1403   -5.4786 C   0  0  0  0  0  0  0  0  0  0  0  0
   -5.3883   -2.1304   -5.7737 C   0  0  0  0  0  0  0  0  0  0  0  0
   -5.0046   -1.0345   -6.5364 C   0  0  0  0  0  0  0  0  0  0  0  0
   -5.9668    0.0716   -6.8374 C   0  0  0  0  0  0  0  0  0  0  0  0
   -3.6970   -0.9773   -7.0058 C   0  0  0  0  0  0  0  0  0  0  0  0
   -2.7910   -1.9773   -6.7155 C   0  0  0  0  0  0  0  0  0  0  0  0
   -2.4184   -3.6281   -3.2472 C   0  0  0  0  0  0  0  0  0  0  0  0
   -2.9549   -1.9839   -3.1439 S   0  0  0  0  0  0  0  0  0  0  0  0
   -2.6736   -1.9853   -1.4086 C   0  0  0  0  0  0  0  0  0  0  0  0
   -2.2371   -3.2158   -0.9365 C   0  0  0  0  0  0  0  0  0  0  0  0
   -2.0007   -3.5170    0.3932 N   0  0  0  0  0  0  0  0  0  0  0  0
   -2.8326   -3.0047    1.3972 C   0  0  0  0  0  0  0  0  0  0  0  0
   -4.1956   -2.8322    1.1695 C   0  0  0  0  0  0  0  0  0  0  0  0
   -4.9992   -2.2695    2.1388 C   0  0  0  0  0  0  0  0  0  0  0  0
   -4.4758   -1.8797    3.3669 C   0  0  0  0  0  0  0  0  0  0  0  0
   -5.3579   -1.2482    4.3999 C   0  0  0  0  0  0  0  0  0  0  0  0
   -3.1222   -2.0850    3.5995 C   0  0  0  0  0  0  0  0  0  0  0  0
   -2.3047   -2.6355    2.6318 C   0  0  0  0  0  0  0  0  0  0  0  0
   -0.9523   -4.3945    0.7131 C   0  0  0  0  0  0  0  0  0  0  0  0
   -1.1096   -5.3553    1.7067 C   0  0  0  0  0  0  0  0  0  0  0  0
   -0.0772   -6.2254    1.9973 C   0  0  0  0  0  0  0  0  0  0  0  0
    1.1262   -6.1699    1.3059 C   0  0  0  0  0  0  0  0  0  0  0  0
    2.2379   -7.1300    1.5971 C   0  0  0  0  0  0  0  0  0  0  0  0
    1.2766   -5.2017    0.3193 C   0  0  0  0  0  0  0  0  0  0  0  0
    0.2576   -4.3188    0.0269 C   0  0  0  0  0  0  0  0  0  0  0  0
   -2.0911   -4.1392   -1.9991 C   0  0  0  0  0  0  0  0  0  0  0  0
   -1.5106   -5.7582   -2.1016 S   0  0  0  0  0  0  0  0  0  0  0  0
   -2.7548   -0.7561   -0.6882 C   0  0  0  0  0  0  0  0  0  0  0  0
   -3.5937    0.3206   -0.9038 C   0  0  0  0  0  0  0  0  0  0  0  0
   -4.7640    0.3174   -1.7810 C   0  0  0  0  0  0  0  0  0  0  0  0
   -5.6098   -0.7871   -1.8535 C   0  0  0  0  0  0  0  0  0  0  0  0
   -6.7339   -0.7472   -2.6535 C   0  0  0  0  0  0  0  0  0  0  0  0
   -7.0393    0.3939   -3.3753 C   0  0  0  0  0  0  0  0  0  0  0  0
   -6.2121    1.5068   -3.3126 C   0  0  0  0  0  0  0  0  0  0  0  0
   -6.5621    2.7807   -4.0277 C   0  0  0  0  0  0  0  0  0  0  0  0
   -7.1876    3.7783   -3.0506 C   0  0  0  0  0  0  0  0  0  0  0  0
   -5.0748    1.4530   -2.5211 C   0  0  0  0  0  0  0  0  0  0  0  0
   -3.2024    1.4335   -0.1271 C   0  0  0  0  0  0  0  0  0  0  0  0
   -3.8334    3.0572    0.0284 S   0  0  0  0  0  0  0  0  0  0  0  0
   -2.5492    3.4315    1.1276 C   0  0  0  0  0  0  0  0  0  0  0  0
   -1.9995    4.5454    1.7829 C   0  0  0  0  0  0  0  0  0  0  0  0
   -2.3425    5.9138    1.7259 C   0  0  0  0  0  0  0  0  0  0  0  0
   -1.4566    6.8752    2.3183 C   0  0  0  0  0  0  0  0  0  0  0  0
   -1.8580    8.1213    2.1224 N   0  0  0  0  0  0  0  0  0  0  0  0
   -3.2365    8.0881    1.2731 S   0  0  0  0  0  0  0  0  0  0  0  0
   -3.3717    6.4821    1.1173 N   0  0  0  0  0  0  0  0  0  0  0  0
   -0.3392    6.4139    3.0470 C   0  0  0  0  0  0  0  0  0  0  0  0
    0.6341    7.1027    3.7866 C   0  0  0  0  0  0  0  0  0  0  0  0
    1.1011    8.7318    4.1323 S   0  0  0  0  0  0  0  0  0  0  0  0
    2.3934    8.1188    5.1384 C   0  0  0  0  0  0  0  0  0  0  0  0
    3.3888    8.7592    5.8937 C   0  0  0  0  0  0  0  0  0  0  0  0
    3.5070   10.2125    6.0136 C   0  0  0  0  0  0  0  0  0  0  0  0
    3.4461   11.0142    4.8773 C   0  0  0  0  0  0  0  0  0  0  0  0
    3.5461   12.3873    4.9981 C   0  0  0  0  0  0  0  0  0  0  0  0
    3.6982   12.9702    6.2440 C   0  0  0  0  0  0  0  0  0  0  0  0
    3.7394   12.1867    7.3911 C   0  0  0  0  0  0  0  0  0  0  0  0
    3.9404   12.8086    8.7433 C   0  0  0  0  0  0  0  0  0  0  0  0
    5.4228   12.7943    9.1237 C   0  0  0  0  0  0  0  0  0  0  0  0
    3.6416   10.8094    7.2635 C   0  0  0  0  0  0  0  0  0  0  0  0
    4.2050    7.8243    6.5179 C   0  0  0  0  0  0  0  0  0  0  0  0
    3.7191    6.1663    6.2114 S   0  0  0  0  0  0  0  0  0  0  0  0
    2.4328    6.7190    5.2027 C   0  0  0  0  0  0  0  0  0  0  0  0
    1.4293    6.1408    4.4169 C   0  0  0  0  0  0  0  0  0  0  0  0
    0.9934    4.8836    4.0827 N   0  0  0  0  0  0  0  0  0  0  0  0
   -0.0731    5.0248    3.2125 C   0  0  0  0  0  0  0  0  0  0  0  0
   -0.8385    4.0899    2.4685 C   0  0  0  0  0  0  0  0  0  0  0  0
   -0.6862    2.7330    2.2188 N   0  0  0  0  0  0  0  0  0  0  0  0
   -1.7068    2.3504    1.3884 C   0  0  0  0  0  0  0  0  0  0  0  0
   -2.0816    1.2069    0.6701 C   0  0  0  0  0  0  0  0  0  0  0  0
   -1.4863   -0.4013    0.4798 S   0  0  0  0  0  0  0  0  0  0  0  0
    0.5151    1.9274    2.2382 C   0  0  0  0  0  0  0  0  0  0  0  0
    1.4975    2.3867    1.1627 C   0  0  0  0  0  0  0  0  0  0  0  0
    1.3569    3.7517    4.9073 C   0  0  0  0  0  0  0  0  0  0  0  0
    2.7503    3.2096    4.5914 C   0  0  0  0  0  0  0  0  0  0  0  0
    5.4071    7.9808    7.2519 C   0  0  0  0  0  0  0  0  0  0  0  0
    6.2456    9.0667    7.5121 C   0  0  0  0  0  0  0  0  0  0  0  0
    7.3180    8.5608    8.2308 C   0  0  0  0  0  0  0  0  0  0  0  0
    7.1041    7.1848    8.3732 C   0  0  0  0  0  0  0  0  0  0  0  0
    5.9362    6.8668    7.7741 O   0  0  0  0  0  0  0  0  0  0  0  0
    7.9300    6.2513    9.0160 C   0  0  0  0  0  0  0  0  0  0  0  0
    7.8142    4.8850    9.0880 C   0  0  0  0  0  0  0  0  0  0  0  0
    6.8317    4.0302    8.3811 C   0  0  0  0  0  0  0  0  0  0  0  0
    5.9463    4.3444    7.6145 O   0  0  0  0  0  0  0  0  0  0  0  0
    7.1715    2.6409    8.7623 C   0  0  0  0  0  0  0  0  0  0  0  0
    6.5427    1.4872    8.3650 C   0  0  0  0  0  0  0  0  0  0  0  0
    7.0385    0.2728    8.8510 C   0  0  0  0  0  0  0  0  0  0  0  0
    6.5697   -1.0454    8.5974 C   0  0  0  0  0  0  0  0  0  0  0  0
    7.3052   -1.9786    9.2465 C   0  0  0  0  0  0  0  0  0  0  0  0
    7.0368   -3.8349    9.1953 Br  0  0  0  0  0  0  0  0  0  0  0  0
    8.6075   -1.3224   10.2016 S   0  0  0  0  0  0  0  0  0  0  0  0
    8.1561    0.2853    9.7176 C   0  0  0  0  0  0  0  0  0  0  0  0
    8.7937    1.4537   10.1163 C   0  0  0  0  0  0  0  0  0  0  0  0
    8.2887    2.6452    9.6288 C   0  0  0  0  0  0  0  0  0  0  0  0
    8.7046    4.0279    9.8453 C   0  0  0  0  0  0  0  0  0  0  0  0
    9.7481    4.4115   10.6527 C   0  0  0  0  0  0  0  0  0  0  0  0
   10.1614    5.7337   10.9132 C   0  0  0  0  0  0  0  0  0  0  0  0
   10.5674    6.7725   11.1911 N   0  0  0  0  0  0  0  0  0  0  0  0
   10.5726    3.5124   11.3597 C   0  0  0  0  0  0  0  0  0  0  0  0
   11.2839    2.8395   11.9601 N   0  0  0  0  0  0  0  0  0  0  0  0
   -0.7011   -7.5861   -3.9657 H   0  0  0  0  0  0  0  0  0  0  0  0
   -4.8380   -6.9271   -8.6122 H   0  0  0  0  0  0  0  0  0  0  0  0
   -0.7301   -9.8532   -9.0633 H   0  0  0  0  0  0  0  0  0  0  0  0
   -3.0907  -10.7163  -11.4062 H   0  0  0  0  0  0  0  0  0  0  0  0
   -1.1458   -9.3294  -12.5855 H   0  0  0  0  0  0  0  0  0  0  0  0
   -2.8628  -10.0761  -14.4301 H   0  0  0  0  0  0  0  0  0  0  0  0
   -5.0088   -8.5219  -14.2393 H   0  0  0  0  0  0  0  0  0  0  0  0
   -4.6130   -6.8175  -12.2796 H   0  0  0  0  0  0  0  0  0  0  0  0
   -2.1195   -6.9345  -13.1580 H   0  0  0  0  0  0  0  0  0  0  0  0
   -2.0960   -7.1265  -11.3871 H   0  0  0  0  0  0  0  0  0  0  0  0
   -5.1978   -9.1975  -11.2300 H   0  0  0  0  0  0  0  0  0  0  0  0
   -2.9445   -4.4125   -8.1528 H   0  0  0  0  0  0  0  0  0  0  0  0
   -1.5321   -5.3122   -9.9423 H   0  0  0  0  0  0  0  0  0  0  0  0
    1.1872   -7.2880   -9.5443 H   0  0  0  0  0  0  0  0  0  0  0  0
    0.5575   -6.1446  -10.7337 H   0  0  0  0  0  0  0  0  0  0  0  0
    2.0071   -5.7535   -9.7951 H   0  0  0  0  0  0  0  0  0  0  0  0
    1.7028   -5.7131   -7.1900 H   0  0  0  0  0  0  0  0  0  0  0  0
    0.3105   -4.7903   -5.4077 H   0  0  0  0  0  0  0  0  0  0  0  0
   -4.8008   -4.0071   -4.9145 H   0  0  0  0  0  0  0  0  0  0  0  0
   -6.4031   -2.1974   -5.4113 H   0  0  0  0  0  0  0  0  0  0  0  0
   -5.8129    0.4575   -7.8429 H   0  0  0  0  0  0  0  0  0  0  0  0
   -6.9940   -0.2707   -6.7424 H   0  0  0  0  0  0  0  0  0  0  0  0
   -5.8138    0.8894   -6.1337 H   0  0  0  0  0  0  0  0  0  0  0  0
   -3.3825   -0.1337   -7.6031 H   0  0  0  0  0  0  0  0  0  0  0  0
   -1.7756   -1.9206   -7.0802 H   0  0  0  0  0  0  0  0  0  0  0  0
   -4.6198   -3.1547    0.2300 H   0  0  0  0  0  0  0  0  0  0  0  0
   -6.0533   -2.1355    1.9428 H   0  0  0  0  0  0  0  0  0  0  0  0
   -4.8573   -1.2003    5.3637 H   0  0  0  0  0  0  0  0  0  0  0  0
   -6.2825   -1.8116    4.5120 H   0  0  0  0  0  0  0  0  0  0  0  0
   -5.6215   -0.2339    4.0987 H   0  0  0  0  0  0  0  0  0  0  0  0
   -2.6949   -1.7987    4.5500 H   0  0  0  0  0  0  0  0  0  0  0  0
   -1.2503   -2.7736    2.8199 H   0  0  0  0  0  0  0  0  0  0  0  0
   -2.0454   -5.4199    2.2423 H   0  0  0  0  0  0  0  0  0  0  0  0
   -0.2164   -6.9699    2.7680 H   0  0  0  0  0  0  0  0  0  0  0  0
    3.1688   -6.5953    1.7799 H   0  0  0  0  0  0  0  0  0  0  0  0
    2.0088   -7.7413    2.4661 H   0  0  0  0  0  0  0  0  0  0  0  0
    2.3961   -7.7880    0.7432 H   0  0  0  0  0  0  0  0  0  0  0  0
    2.2071   -5.1391   -0.2257 H   0  0  0  0  0  0  0  0  0  0  0  0
    0.3925   -3.5617   -0.7323 H   0  0  0  0  0  0  0  0  0  0  0  0
   -5.3946   -1.6640   -1.2635 H   0  0  0  0  0  0  0  0  0  0  0  0
   -7.3864   -1.6068   -2.7018 H   0  0  0  0  0  0  0  0  0  0  0  0
   -7.9307    0.4233   -3.9855 H   0  0  0  0  0  0  0  0  0  0  0  0
   -7.2685    2.5766   -4.8352 H   0  0  0  0  0  0  0  0  0  0  0  0
   -5.6615    3.2224   -4.4607 H   0  0  0  0  0  0  0  0  0  0  0  0
   -7.4399    4.7042   -3.5621 H   0  0  0  0  0  0  0  0  0  0  0  0
   -8.0945    3.3625   -2.6170 H   0  0  0  0  0  0  0  0  0  0  0  0
   -6.4949    4.0036   -2.2432 H   0  0  0  0  0  0  0  0  0  0  0  0
   -4.4171    2.3088   -2.4846 H   0  0  0  0  0  0  0  0  0  0  0  0
    3.3359   10.5585    3.9052 H   0  0  0  0  0  0  0  0  0  0  0  0
    3.5053   13.0068    4.1147 H   0  0  0  0  0  0  0  0  0  0  0  0
    3.7775   14.0443    6.3297 H   0  0  0  0  0  0  0  0  0  0  0  0
    3.5812   13.8391    8.7332 H   0  0  0  0  0  0  0  0  0  0  0  0
    3.3723   12.2551    9.4936 H   0  0  0  0  0  0  0  0  0  0  0  0
    5.5711   13.2708   10.0896 H   0  0  0  0  0  0  0  0  0  0  0  0
    6.0095   13.3292    8.3798 H   0  0  0  0  0  0  0  0  0  0  0  0
    5.7909   11.7724    9.1830 H   0  0  0  0  0  0  0  0  0  0  0  0
    3.6537   10.1876    8.1475 H   0  0  0  0  0  0  0  0  0  0  0  0
    0.2048    0.8987    2.0370 H   0  0  0  0  0  0  0  0  0  0  0  0
    0.9856    1.9466    3.2162 H   0  0  0  0  0  0  0  0  0  0  0  0
    2.3846    1.7592    1.1762 H   0  0  0  0  0  0  0  0  0  0  0  0
    1.7907    3.4215    1.3284 H   0  0  0  0  0  0  0  0  0  0  0  0
    1.0372    2.3140    0.1801 H   0  0  0  0  0  0  0  0  0  0  0  0
    1.3449    4.0853    5.9514 H   0  0  0  0  0  0  0  0  0  0  0  0
    0.5850    2.9875    4.8019 H   0  0  0  0  0  0  0  0  0  0  0  0
    2.8765    3.0261    3.5284 H   0  0  0  0  0  0  0  0  0  0  0  0
    2.9104    2.2810    5.1326 H   0  0  0  0  0  0  0  0  0  0  0  0
    3.5103    3.9187    4.9065 H   0  0  0  0  0  0  0  0  0  0  0  0
    6.0866   10.0763    7.1948 H   0  0  0  0  0  0  0  0  0  0  0  0
    8.1643    9.1016    8.6041 H   0  0  0  0  0  0  0  0  0  0  0  0
    8.7736    6.7111    9.5119 H   0  0  0  0  0  0  0  0  0  0  0  0
    5.6933    1.5213    7.7008 H   0  0  0  0  0  0  0  0  0  0  0  0
    5.7312   -1.2755    7.9658 H   0  0  0  0  0  0  0  0  0  0  0  0
    9.6431    1.4065   10.7764 H   0  0  0  0  0  0  0  0  0  0  0  0
  1  2  2  0  0  0  0
  2  3  1  0  0  0  0
  3  4  2  0  0  0  0
  3  5  1  0  0  0  0
  5  6  2  0  0  0  0
  6  7  1  0  0  0  0
  7  8  2  0  0  0  0
  8  9  1  0  0  0  0
  9 10  2  0  0  0  0
 10 11  1  0  0  0  0
 11 12  2  0  0  0  0
 12 13  1  0  0  0  0
 13 14  3  0  0  0  0
 12 15  1  0  0  0  0
 15 16  3  0  0  0  0
  8 17  1  0  0  0  0
 17 18  1  0  0  0  0
 18 19  1  0  0  0  0
 19 20  2  0  0  0  0
 20 21  1  0  0  0  0
 21 22  1  0  0  0  0
 21 23  1  0  0  0  0
  1 24  1  0  0  0  0
 24 25  2  0  0  0  0
 25 26  1  0  0  0  0
 26 27  1  0  0  0  0
 27 28  2  0  0  0  0
 28 29  1  0  0  0  0
 29 30  2  0  0  0  0
 30 31  1  0  0  0  0
 30 32  1  0  0  0  0
 32 33  2  0  0  0  0
 26 34  1  0  0  0  0
 34 35  2  0  0  0  0
 35 36  1  0  0  0  0
 36 37  2  0  0  0  0
 37 38  1  0  0  0  0
 37 39  1  0  0  0  0
 39 40  2  0  0  0  0
 25 41  1  0  0  0  0
 41 42  1  0  0  0  0
 42 43  1  0  0  0  0
 43 44  2  0  0  0  0
 44 45  1  0  0  0  0
 45 46  1  0  0  0  0
 46 47  2  0  0  0  0
 47 48  1  0  0  0  0
 48 49  2  0  0  0  0
 49 50  1  0  0  0  0
 49 51  1  0  0  0  0
 51 52  2  0  0  0  0
 45 53  1  0  0  0  0
 53 54  2  0  0  0  0
 54 55  1  0  0  0  0
 55 56  2  0  0  0  0
 56 57  1  0  0  0  0
 56 58  1  0  0  0  0
 58 59  2  0  0  0  0
 44 60  1  0  0  0  0
 60 61  1  0  0  0  0
 43 62  1  0  0  0  0
 62 63  2  0  0  0  0
 63 64  1  0  0  0  0
 64 65  2  0  0  0  0
 65 66  1  0  0  0  0
 66 67  2  0  0  0  0
 67 68  1  0  0  0  0
 68 69  1  0  0  0  0
 69 70  1  0  0  0  0
 68 71  2  0  0  0  0
 63 72  1  0  0  0  0
 72 73  1  0  0  0  0
 73 74  1  0  0  0  0
 74 75  1  0  0  0  0
 75 76  1  0  0  0  0
 76 77  1  0  0  0  0
 77 78  2  0  0  0  0
 78 79  1  0  0  0  0
 79 80  1  0  0  0  0
 77 81  1  0  0  0  0
 81 82  1  0  0  0  0
 82 83  1  0  0  0  0
 83 84  1  0  0  0  0
 84 85  1  0  0  0  0
 85 86  1  0  0  0  0
 86 87  2  0  0  0  0
 87 88  1  0  0  0  0
 88 89  2  0  0  0  0
 89 90  1  0  0  0  0
 90 91  1  0  0  0  0
 91 92  1  0  0  0  0
 90 93  2  0  0  0  0
 85 94  2  0  0  0  0
 94 95  1  0  0  0  0
 95 96  1  0  0  0  0
 96 97  1  0  0  0  0
 97 98  1  0  0  0  0
 98 99  1  0  0  0  0
 99100  1  0  0  0  0
100101  1  0  0  0  0
101102  1  0  0  0  0
102103  1  0  0  0  0
103104  1  0  0  0  0
101105  1  0  0  0  0
105106  1  0  0  0  0
 98107  1  0  0  0  0
107108  1  0  0  0  0
 94109  1  0  0  0  0
109110  2  0  0  0  0
110111  1  0  0  0  0
111112  2  0  0  0  0
112113  1  0  0  0  0
112114  1  0  0  0  0
114115  2  0  0  0  0
115116  1  0  0  0  0
116117  2  0  0  0  0
116118  1  0  0  0  0
118119  2  0  0  0  0
119120  1  0  0  0  0
120121  1  0  0  0  0
121122  2  0  0  0  0
122123  1  0  0  0  0
122124  1  0  0  0  0
124125  1  0  0  0  0
125126  1  0  0  0  0
126127  2  0  0  0  0
127128  1  0  0  0  0
128129  2  0  0  0  0
129130  1  0  0  0  0
130131  3  0  0  0  0
129132  1  0  0  0  0
132133  3  0  0  0  0
 11  2  1  0  0  0  0
 23 17  1  0  0  0  0
 61 24  1  0  0  0  0
104 62  1  0  0  0  0
113109  1  0  0  0  0
128115  1  0  0  0  0
 10  5  1  0  0  0  0
 22 18  1  0  0  0  0
 33 27  1  0  0  0  0
 40 34  1  0  0  0  0
 60 41  2  0  0  0  0
 71 64  1  0  0  0  0
103 72  2  0  0  0  0
127118  1  0  0  0  0
 23  7  1  0  0  0  0
 52 46  1  0  0  0  0
 59 53  1  0  0  0  0
102 74  2  0  0  0  0
125120  2  0  0  0  0
100 75  2  0  0  0  0
 80 76  2  0  0  0  0
 99 81  2  0  0  0  0
 97 82  2  0  0  0  0
 96 84  2  0  0  0  0
 93 86  1  0  0  0  0
  1134  1  0  0  0  0
  6135  1  0  0  0  0
  9136  1  0  0  0  0
 17137  1  0  0  0  0
 18138  1  0  0  0  0
 19139  1  0  0  0  0
 20140  1  0  0  0  0
 21141  1  0  0  0  0
 22142  1  0  0  0  0
 22143  1  0  0  0  0
 23144  1  0  0  0  0
 28145  1  0  0  0  0
 29146  1  0  0  0  0
 31147  1  0  0  0  0
 31148  1  0  0  0  0
 31149  1  0  0  0  0
 32150  1  0  0  0  0
 33151  1  0  0  0  0
 35152  1  0  0  0  0
 36153  1  0  0  0  0
 38154  1  0  0  0  0
 38155  1  0  0  0  0
 38156  1  0  0  0  0
 39157  1  0  0  0  0
 40158  1  0  0  0  0
 47159  1  0  0  0  0
 48160  1  0  0  0  0
 50161  1  0  0  0  0
 50162  1  0  0  0  0
 50163  1  0  0  0  0
 51164  1  0  0  0  0
 52165  1  0  0  0  0
 54166  1  0  0  0  0
 55167  1  0  0  0  0
 57168  1  0  0  0  0
 57169  1  0  0  0  0
 57170  1  0  0  0  0
 58171  1  0  0  0  0
 59172  1  0  0  0  0
 65173  1  0  0  0  0
 66174  1  0  0  0  0
 67175  1  0  0  0  0
 69176  1  0  0  0  0
 69177  1  0  0  0  0
 70178  1  0  0  0  0
 70179  1  0  0  0  0
 70180  1  0  0  0  0
 71181  1  0  0  0  0
 87182  1  0  0  0  0
 88183  1  0  0  0  0
 89184  1  0  0  0  0
 91185  1  0  0  0  0
 91186  1  0  0  0  0
 92187  1  0  0  0  0
 92188  1  0  0  0  0
 92189  1  0  0  0  0
 93190  1  0  0  0  0
105191  1  0  0  0  0
105192  1  0  0  0  0
106193  1  0  0  0  0
106194  1  0  0  0  0
106195  1  0  0  0  0
107196  1  0  0  0  0
107197  1  0  0  0  0
108198  1  0  0  0  0
108199  1  0  0  0  0
108200  1  0  0  0  0
110201  1  0  0  0  0
111202  1  0  0  0  0
114203  1  0  0  0  0
119204  1  0  0  0  0
121205  1  0  0  0  0
126206  1  0  0  0  0
M  END
