
  xtb     02272221373D
 energy: -421.076276595921 gnorm: 0.000744853008 xtb: 6.4.1 (unknown)
260289  0     0  0            999 V2000
   -5.4995   -9.7178   -2.7878 C   0  0  0  0  0  0  0  0  0  0  0  0
   -5.3009  -10.8319   -2.0048 C   0  0  0  0  0  0  0  0  0  0  0  0
   -5.6487  -10.9685   -0.5892 C   0  0  0  0  0  0  0  0  0  0  0  0
   -6.0993  -10.1136    0.1550 O   0  0  0  0  0  0  0  0  0  0  0  0
   -5.3733  -12.3716   -0.2296 C   0  0  0  0  0  0  0  0  0  0  0  0
   -5.5446  -12.9675    1.0174 C   0  0  0  0  0  0  0  0  0  0  0  0
   -5.1931  -14.2958    1.0544 C   0  0  0  0  0  0  0  0  0  0  0  0
   -4.7068  -14.9803   -0.0663 C   0  0  0  0  0  0  0  0  0  0  0  0
   -4.5299  -14.4023   -1.3016 C   0  0  0  0  0  0  0  0  0  0  0  0
   -4.8830  -13.0513   -1.3620 C   0  0  0  0  0  0  0  0  0  0  0  0
   -4.8056  -12.1035   -2.4747 C   0  0  0  0  0  0  0  0  0  0  0  0
   -4.3072  -12.3882   -3.7241 C   0  0  0  0  0  0  0  0  0  0  0  0
   -4.0838  -11.4512   -4.7506 C   0  0  0  0  0  0  0  0  0  0  0  0
   -3.8279  -10.7535   -5.6286 N   0  0  0  0  0  0  0  0  0  0  0  0
   -3.9061  -13.6693   -4.1515 C   0  0  0  0  0  0  0  0  0  0  0  0
   -3.5866  -14.6860   -4.5809 N   0  0  0  0  0  0  0  0  0  0  0  0
   -4.5577  -16.2774    0.6901 C   0  0  0  0  0  0  0  0  0  0  0  0
   -5.6421  -17.3481    0.4471 C   0  0  0  0  0  0  0  0  0  0  0  0
   -5.5143  -18.2693    1.6387 C   0  0  0  0  0  0  0  0  0  0  0  0
   -5.9742  -17.6209    2.7012 C   0  0  0  0  0  0  0  0  0  0  0  0
   -6.4208  -16.2506    2.2453 C   0  0  0  0  0  0  0  0  0  0  0  0
   -6.9188  -16.5907    0.8347 C   0  0  0  0  0  0  0  0  0  0  0  0
   -5.0995  -15.5135    1.9408 C   0  0  0  0  0  0  0  0  0  0  0  0
   -5.9173   -8.4328   -2.4445 C   0  0  0  0  0  0  0  0  0  0  0  0
   -6.0374   -7.3870   -3.3959 C   0  0  0  0  0  0  0  0  0  0  0  0
   -5.9701   -7.5290   -4.7564 N   0  0  0  0  0  0  0  0  0  0  0  0
   -5.4077   -6.4775   -5.5069 C   0  0  0  0  0  0  0  0  0  0  0  0
   -4.2231   -5.8816   -5.0821 C   0  0  0  0  0  0  0  0  0  0  0  0
   -3.6736   -4.8419   -5.8041 C   0  0  0  0  0  0  0  0  0  0  0  0
   -4.2794   -4.3782   -6.9659 C   0  0  0  0  0  0  0  0  0  0  0  0
   -3.6893   -3.2337   -7.7301 C   0  0  0  0  0  0  0  0  0  0  0  0
   -5.4547   -4.9885   -7.3882 C   0  0  0  0  0  0  0  0  0  0  0  0
   -6.0194   -6.0244   -6.6710 C   0  0  0  0  0  0  0  0  0  0  0  0
   -6.5290   -8.6280   -5.4323 C   0  0  0  0  0  0  0  0  0  0  0  0
   -7.6932   -9.2323   -4.9636 C   0  0  0  0  0  0  0  0  0  0  0  0
   -8.2262  -10.3163   -5.6316 C   0  0  0  0  0  0  0  0  0  0  0  0
   -7.6304  -10.8130   -6.7851 C   0  0  0  0  0  0  0  0  0  0  0  0
   -8.1921  -12.0036   -7.4991 C   0  0  0  0  0  0  0  0  0  0  0  0
   -6.4855  -10.1842   -7.2602 C   0  0  0  0  0  0  0  0  0  0  0  0
   -5.9325   -9.1081   -6.5958 C   0  0  0  0  0  0  0  0  0  0  0  0
   -6.2114   -6.1487   -2.7538 C   0  0  0  0  0  0  0  0  0  0  0  0
   -6.3647   -4.5073   -3.2994 S   0  0  0  0  0  0  0  0  0  0  0  0
   -6.5029   -3.9552   -1.6382 C   0  0  0  0  0  0  0  0  0  0  0  0
   -6.4734   -4.9907   -0.7319 C   0  0  0  0  0  0  0  0  0  0  0  0
   -6.5045   -4.8132    0.6528 N   0  0  0  0  0  0  0  0  0  0  0  0
   -5.4460   -5.3614    1.3852 C   0  0  0  0  0  0  0  0  0  0  0  0
   -4.1620   -5.3508    0.8434 C   0  0  0  0  0  0  0  0  0  0  0  0
   -3.1049   -5.9009    1.5405 C   0  0  0  0  0  0  0  0  0  0  0  0
   -3.2899   -6.4659    2.7950 C   0  0  0  0  0  0  0  0  0  0  0  0
   -2.1459   -7.0787    3.5448 C   0  0  0  0  0  0  0  0  0  0  0  0
   -4.5731   -6.4704    3.3298 C   0  0  0  0  0  0  0  0  0  0  0  0
   -5.6405   -5.9337    2.6400 C   0  0  0  0  0  0  0  0  0  0  0  0
   -7.6930   -4.3995    1.2668 C   0  0  0  0  0  0  0  0  0  0  0  0
   -7.6551   -3.6059    2.4098 C   0  0  0  0  0  0  0  0  0  0  0  0
   -8.8277   -3.2499    3.0454 C   0  0  0  0  0  0  0  0  0  0  0  0
  -10.0620   -3.6659    2.5618 C   0  0  0  0  0  0  0  0  0  0  0  0
  -11.3299   -3.3437    3.2918 C   0  0  0  0  0  0  0  0  0  0  0  0
  -10.0920   -4.4242    1.3986 C   0  0  0  0  0  0  0  0  0  0  0  0
   -8.9277   -4.7856    0.7526 C   0  0  0  0  0  0  0  0  0  0  0  0
   -6.2969   -6.2420   -1.3718 C   0  0  0  0  0  0  0  0  0  0  0  0
   -6.1629   -7.8593   -0.7910 S   0  0  0  0  0  0  0  0  0  0  0  0
   -6.3754   -2.5530   -1.3152 C   0  0  0  0  0  0  0  0  0  0  0  0
   -7.2555   -1.6535   -0.7639 C   0  0  0  0  0  0  0  0  0  0  0  0
   -8.6968   -1.8508   -0.6354 C   0  0  0  0  0  0  0  0  0  0  0  0
   -9.3914   -2.6551   -1.5374 C   0  0  0  0  0  0  0  0  0  0  0  0
  -10.7676   -2.7412   -1.4695 C   0  0  0  0  0  0  0  0  0  0  0  0
  -11.4697   -2.0176   -0.5208 C   0  0  0  0  0  0  0  0  0  0  0  0
  -10.7957   -1.2170    0.3907 C   0  0  0  0  0  0  0  0  0  0  0  0
  -11.5344   -0.3619    1.3788 C   0  0  0  0  0  0  0  0  0  0  0  0
  -11.6195    1.0783    0.8690 C   0  0  0  0  0  0  0  0  0  0  0  0
   -9.4125   -1.1554    0.3327 C   0  0  0  0  0  0  0  0  0  0  0  0
   -6.5968   -0.4342   -0.4496 C   0  0  0  0  0  0  0  0  0  0  0  0
   -7.1262    1.0715    0.2673 S   0  0  0  0  0  0  0  0  0  0  0  0
   -5.5233    1.7054    0.1043 C   0  0  0  0  0  0  0  0  0  0  0  0
   -4.7945    2.8772    0.3848 C   0  0  0  0  0  0  0  0  0  0  0  0
   -5.1843    4.1302    0.9043 C   0  0  0  0  0  0  0  0  0  0  0  0
   -4.1975    5.1669    1.0393 C   0  0  0  0  0  0  0  0  0  0  0  0
   -4.7120    6.2977    1.4963 N   0  0  0  0  0  0  0  0  0  0  0  0
   -6.2981    6.0782    1.7408 S   0  0  0  0  0  0  0  0  0  0  0  0
   -6.3909    4.5306    1.2736 N   0  0  0  0  0  0  0  0  0  0  0  0
   -2.8465    4.8669    0.7591 C   0  0  0  0  0  0  0  0  0  0  0  0
   -1.6639    5.5908    0.9868 C   0  0  0  0  0  0  0  0  0  0  0  0
   -1.1684    7.1348    1.5946 S   0  0  0  0  0  0  0  0  0  0  0  0
    0.4988    6.6303    1.4515 C   0  0  0  0  0  0  0  0  0  0  0  0
    1.7158    7.2634    1.7793 C   0  0  0  0  0  0  0  0  0  0  0  0
    1.7627    8.5586    2.4624 C   0  0  0  0  0  0  0  0  0  0  0  0
    2.5011    8.7125    3.6340 C   0  0  0  0  0  0  0  0  0  0  0  0
    2.4481    9.9047    4.3290 C   0  0  0  0  0  0  0  0  0  0  0  0
    1.6649   10.9495    3.8663 C   0  0  0  0  0  0  0  0  0  0  0  0
    0.9390   10.8204    2.6902 C   0  0  0  0  0  0  0  0  0  0  0  0
    0.0531   11.9285    2.2005 C   0  0  0  0  0  0  0  0  0  0  0  0
   -1.3864   11.6973    2.6646 C   0  0  0  0  0  0  0  0  0  0  0  0
    0.9911    9.6176    2.0004 C   0  0  0  0  0  0  0  0  0  0  0  0
    2.7934    6.4510    1.4809 C   0  0  0  0  0  0  0  0  0  0  0  0
    2.3078    4.8904    0.8436 S   0  0  0  0  0  0  0  0  0  0  0  0
    0.6422    5.3361    0.9497 C   0  0  0  0  0  0  0  0  0  0  0  0
   -0.5983    4.7410    0.6829 C   0  0  0  0  0  0  0  0  0  0  0  0
   -1.0738    3.5284    0.2588 N   0  0  0  0  0  0  0  0  0  0  0  0
   -2.4546    3.5855    0.2833 C   0  0  0  0  0  0  0  0  0  0  0  0
   -3.4559    2.6297   -0.0228 C   0  0  0  0  0  0  0  0  0  0  0  0
   -3.3856    1.3626   -0.5823 N   0  0  0  0  0  0  0  0  0  0  0  0
   -4.6362    0.8067   -0.4831 C   0  0  0  0  0  0  0  0  0  0  0  0
   -5.2496   -0.4133   -0.7972 C   0  0  0  0  0  0  0  0  0  0  0  0
   -4.7475   -1.9075   -1.4930 S   0  0  0  0  0  0  0  0  0  0  0  0
   -2.5115    0.8917   -1.6354 C   0  0  0  0  0  0  0  0  0  0  0  0
   -3.1281    1.1309   -3.0141 C   0  0  0  0  0  0  0  0  0  0  0  0
   -0.1905    2.3849    0.2052 C   0  0  0  0  0  0  0  0  0  0  0  0
    0.6877    2.3924   -1.0466 C   0  0  0  0  0  0  0  0  0  0  0  0
    4.1856    6.7560    1.5386 C   0  0  0  0  0  0  0  0  0  0  0  0
    4.7744    7.9861    1.5466 C   0  0  0  0  0  0  0  0  0  0  0  0
    6.1901    7.9396    1.5699 C   0  0  0  0  0  0  0  0  0  0  0  0
    7.0937    9.0209    1.5601 C   0  0  0  0  0  0  0  0  0  0  0  0
    6.6130   10.3870    1.6095 C   0  0  0  0  0  0  0  0  0  0  0  0
    5.5919   10.8768    2.3622 C   0  0  0  0  0  0  0  0  0  0  0  0
    5.3498   12.2621    2.1574 C   0  0  0  0  0  0  0  0  0  0  0  0
    4.3797   13.0772    2.7409 C   0  0  0  0  0  0  0  0  0  0  0  0
    4.2943   14.4099    2.3932 C   0  0  0  0  0  0  0  0  0  0  0  0
    3.2755   15.3016    3.0449 C   0  0  0  0  0  0  0  0  0  0  0  0
    3.8508   15.9355    4.3128 C   0  0  0  0  0  0  0  0  0  0  0  0
    5.1956   14.9399    1.4620 C   0  0  0  0  0  0  0  0  0  0  0  0
    6.1651   14.1592    0.8685 C   0  0  0  0  0  0  0  0  0  0  0  0
    6.2362   12.8199    1.2177 C   0  0  0  0  0  0  0  0  0  0  0  0
    7.3482   11.6288    0.6089 S   0  0  0  0  0  0  0  0  0  0  0  0
    8.4449    8.6977    1.4910 C   0  0  0  0  0  0  0  0  0  0  0  0
    8.9192    7.3668    1.5013 C   0  0  0  0  0  0  0  0  0  0  0  0
    8.0220    6.2883    1.5021 C   0  0  0  0  0  0  0  0  0  0  0  0
    8.4883    4.9140    1.3930 C   0  0  0  0  0  0  0  0  0  0  0  0
    7.8271    3.9003    0.1215 S   0  0  0  0  0  0  0  0  0  0  0  0
    8.7893    2.5571    0.6574 C   0  0  0  0  0  0  0  0  0  0  0  0
    8.7799    1.2698    0.1421 C   0  0  0  0  0  0  0  0  0  0  0  0
    9.5504    0.3118    0.7645 C   0  0  0  0  0  0  0  0  0  0  0  0
   10.3450    0.6179    1.8774 C   0  0  0  0  0  0  0  0  0  0  0  0
   11.0833   -0.4884    2.5775 C   0  0  0  0  0  0  0  0  0  0  0  0
   10.1355   -1.2427    3.5127 C   0  0  0  0  0  0  0  0  0  0  0  0
   10.3811    1.9132    2.3554 C   0  0  0  0  0  0  0  0  0  0  0  0
    9.5929    2.9018    1.7608 C   0  0  0  0  0  0  0  0  0  0  0  0
    9.4142    4.2628    2.1423 C   0  0  0  0  0  0  0  0  0  0  0  0
    6.6717    6.6082    1.5285 C   0  0  0  0  0  0  0  0  0  0  0  0
    5.3649    5.4590    1.5301 S   0  0  0  0  0  0  0  0  0  0  0  0
   10.3362    7.3043    1.4106 C   0  0  0  0  0  0  0  0  0  0  0  0
   10.9254    8.5155    1.2958 C   0  0  0  0  0  0  0  0  0  0  0  0
    9.7705    9.8237    1.3628 S   0  0  0  0  0  0  0  0  0  0  0  0
   12.3621    8.8134    0.9827 C   0  0  0  0  0  0  0  0  0  0  0  0
   13.2869    7.9468    1.7785 C   0  0  0  0  0  0  0  0  0  0  0  0
   13.5973    6.7099    1.3753 C   0  0  0  0  0  0  0  0  0  0  0  0
   12.9929    6.1441    0.1964 C   0  0  0  0  0  0  0  0  0  0  0  0
   12.8612    4.7997    0.0402 C   0  0  0  0  0  0  0  0  0  0  0  0
   11.9355    4.0951   -1.2806 S   0  0  0  0  0  0  0  0  0  0  0  0
   12.3113    2.4771   -0.7348 C   0  0  0  0  0  0  0  0  0  0  0  0
   11.7905    1.3907   -1.3892 C   0  0  0  0  0  0  0  0  0  0  0  0
   10.9035    1.5915   -2.4671 C   0  0  0  0  0  0  0  0  0  0  0  0
   10.1769    1.7409   -3.3420 N   0  0  0  0  0  0  0  0  0  0  0  0
   12.0322    0.0390   -1.0942 C   0  0  0  0  0  0  0  0  0  0  0  0
   12.1969   -1.0850   -0.9214 N   0  0  0  0  0  0  0  0  0  0  0  0
   13.1248    2.4965    0.3511 N   0  0  0  0  0  0  0  0  0  0  0  0
   13.7386    1.3253    0.9462 C   0  0  0  0  0  0  0  0  0  0  0  0
   14.9695    0.8865    0.1617 C   0  0  0  0  0  0  0  0  0  0  0  0
   13.4249    3.7471    0.8772 C   0  0  0  0  0  0  0  0  0  0  0  0
   14.0853    3.8809    1.8844 O   0  0  0  0  0  0  0  0  0  0  0  0
   12.4163    7.0656   -0.8396 C   0  0  0  0  0  0  0  0  0  0  0  0
   12.6322    8.5393   -0.5086 C   0  0  0  0  0  0  0  0  0  0  0  0
   -5.2824   -9.8392   -3.8414 H   0  0  0  0  0  0  0  0  0  0  0  0
   -5.9155  -12.3994    1.8564 H   0  0  0  0  0  0  0  0  0  0  0  0
   -4.1479  -14.9423   -2.1516 H   0  0  0  0  0  0  0  0  0  0  0  0
   -3.5518  -16.6915    0.7281 H   0  0  0  0  0  0  0  0  0  0  0  0
   -5.6124  -17.8112   -0.5355 H   0  0  0  0  0  0  0  0  0  0  0  0
   -5.0648  -19.2443    1.5981 H   0  0  0  0  0  0  0  0  0  0  0  0
   -5.9856  -17.9461    3.7251 H   0  0  0  0  0  0  0  0  0  0  0  0
   -7.1012  -15.7141    2.9014 H   0  0  0  0  0  0  0  0  0  0  0  0
   -7.1231  -15.7197    0.2148 H   0  0  0  0  0  0  0  0  0  0  0  0
   -7.7932  -17.2393    0.8520 H   0  0  0  0  0  0  0  0  0  0  0  0
   -4.4540  -15.4187    2.8123 H   0  0  0  0  0  0  0  0  0  0  0  0
   -3.7353   -6.2442   -4.1889 H   0  0  0  0  0  0  0  0  0  0  0  0
   -2.7547   -4.3875   -5.4635 H   0  0  0  0  0  0  0  0  0  0  0  0
   -2.6042   -3.2369   -7.6564 H   0  0  0  0  0  0  0  0  0  0  0  0
   -4.0513   -2.2896   -7.3216 H   0  0  0  0  0  0  0  0  0  0  0  0
   -3.9730   -3.2783   -8.7787 H   0  0  0  0  0  0  0  0  0  0  0  0
   -5.9402   -4.6430   -8.2892 H   0  0  0  0  0  0  0  0  0  0  0  0
   -6.9374   -6.4848   -7.0051 H   0  0  0  0  0  0  0  0  0  0  0  0
   -8.1730   -8.8535   -4.0729 H   0  0  0  0  0  0  0  0  0  0  0  0
   -9.1263  -10.7788   -5.2526 H   0  0  0  0  0  0  0  0  0  0  0  0
   -7.5321  -12.8615   -7.3692 H   0  0  0  0  0  0  0  0  0  0  0  0
   -8.2735  -11.8077   -8.5667 H   0  0  0  0  0  0  0  0  0  0  0  0
   -9.1744  -12.2642   -7.1130 H   0  0  0  0  0  0  0  0  0  0  0  0
   -6.0069  -10.5543   -8.1542 H   0  0  0  0  0  0  0  0  0  0  0  0
   -5.0318   -8.6447   -6.9658 H   0  0  0  0  0  0  0  0  0  0  0  0
   -3.9941   -4.9040   -0.1265 H   0  0  0  0  0  0  0  0  0  0  0  0
   -2.1169   -5.8844    1.1021 H   0  0  0  0  0  0  0  0  0  0  0  0
   -2.2380   -6.8910    4.6126 H   0  0  0  0  0  0  0  0  0  0  0  0
   -1.1953   -6.6804    3.1975 H   0  0  0  0  0  0  0  0  0  0  0  0
   -2.1366   -8.1589    3.3942 H   0  0  0  0  0  0  0  0  0  0  0  0
   -4.7419   -6.9143    4.3006 H   0  0  0  0  0  0  0  0  0  0  0  0
   -6.6324   -5.9659    3.0648 H   0  0  0  0  0  0  0  0  0  0  0  0
   -6.7004   -3.2841    2.7995 H   0  0  0  0  0  0  0  0  0  0  0  0
   -8.7821   -2.6413    3.9376 H   0  0  0  0  0  0  0  0  0  0  0  0
  -11.6259   -4.1904    3.9127 H   0  0  0  0  0  0  0  0  0  0  0  0
  -11.2005   -2.4802    3.9394 H   0  0  0  0  0  0  0  0  0  0  0  0
  -12.1371   -3.1447    2.5909 H   0  0  0  0  0  0  0  0  0  0  0  0
  -11.0418   -4.7496    1.0000 H   0  0  0  0  0  0  0  0  0  0  0  0
   -8.9677   -5.3916   -0.1407 H   0  0  0  0  0  0  0  0  0  0  0  0
   -8.8551   -3.1882   -2.3075 H   0  0  0  0  0  0  0  0  0  0  0  0
  -11.2998   -3.3640   -2.1741 H   0  0  0  0  0  0  0  0  0  0  0  0
  -12.5489   -2.0721   -0.4921 H   0  0  0  0  0  0  0  0  0  0  0  0
  -11.0099   -0.3707    2.3358 H   0  0  0  0  0  0  0  0  0  0  0  0
  -12.5427   -0.7503    1.5335 H   0  0  0  0  0  0  0  0  0  0  0  0
  -10.6225    1.4884    0.7261 H   0  0  0  0  0  0  0  0  0  0  0  0
  -12.1432    1.1116   -0.0841 H   0  0  0  0  0  0  0  0  0  0  0  0
  -12.1541    1.7030    1.5809 H   0  0  0  0  0  0  0  0  0  0  0  0
   -8.8861   -0.5552    1.0587 H   0  0  0  0  0  0  0  0  0  0  0  0
    3.0957    7.8897    4.0030 H   0  0  0  0  0  0  0  0  0  0  0  0
    3.0101   10.0168    5.2455 H   0  0  0  0  0  0  0  0  0  0  0  0
    1.6064   11.8696    4.4311 H   0  0  0  0  0  0  0  0  0  0  0  0
    0.0783   11.9657    1.1096 H   0  0  0  0  0  0  0  0  0  0  0  0
    0.4091   12.8877    2.5819 H   0  0  0  0  0  0  0  0  0  0  0  0
   -1.7569   10.7464    2.2887 H   0  0  0  0  0  0  0  0  0  0  0  0
   -1.4345   11.6760    3.7511 H   0  0  0  0  0  0  0  0  0  0  0  0
   -2.0348   12.4920    2.3034 H   0  0  0  0  0  0  0  0  0  0  0  0
    0.4245    9.5021    1.0878 H   0  0  0  0  0  0  0  0  0  0  0  0
   -1.5635    1.4127   -1.5873 H   0  0  0  0  0  0  0  0  0  0  0  0
   -2.3464   -0.1799   -1.4843 H   0  0  0  0  0  0  0  0  0  0  0  0
   -2.4375    0.7992   -3.7847 H   0  0  0  0  0  0  0  0  0  0  0  0
   -4.0590    0.5817   -3.1254 H   0  0  0  0  0  0  0  0  0  0  0  0
   -3.3304    2.1907   -3.1562 H   0  0  0  0  0  0  0  0  0  0  0  0
   -0.7847    1.4739    0.2831 H   0  0  0  0  0  0  0  0  0  0  0  0
    0.4626    2.4282    1.0845 H   0  0  0  0  0  0  0  0  0  0  0  0
    0.0983    2.5180   -1.9524 H   0  0  0  0  0  0  0  0  0  0  0  0
    1.2419    1.4603   -1.1124 H   0  0  0  0  0  0  0  0  0  0  0  0
    1.4001    3.2111   -0.9984 H   0  0  0  0  0  0  0  0  0  0  0  0
    4.2093    8.8970    1.4889 H   0  0  0  0  0  0  0  0  0  0  0  0
    5.0400   10.2878    3.0730 H   0  0  0  0  0  0  0  0  0  0  0  0
    3.6938   12.6469    3.4545 H   0  0  0  0  0  0  0  0  0  0  0  0
    2.9745   16.0900    2.3522 H   0  0  0  0  0  0  0  0  0  0  0  0
    2.3891   14.7193    3.3044 H   0  0  0  0  0  0  0  0  0  0  0  0
    3.1134   16.5799    4.7858 H   0  0  0  0  0  0  0  0  0  0  0  0
    4.1443   15.1636    5.0209 H   0  0  0  0  0  0  0  0  0  0  0  0
    4.7295   16.5301    4.0733 H   0  0  0  0  0  0  0  0  0  0  0  0
    5.1243   15.9855    1.2000 H   0  0  0  0  0  0  0  0  0  0  0  0
    6.8523   14.5746    0.1478 H   0  0  0  0  0  0  0  0  0  0  0  0
    8.1706    1.0280   -0.7146 H   0  0  0  0  0  0  0  0  0  0  0  0
    9.5404   -0.7021    0.3931 H   0  0  0  0  0  0  0  0  0  0  0  0
   11.9092   -0.0791    3.1633 H   0  0  0  0  0  0  0  0  0  0  0  0
   11.4877   -1.1885    1.8423 H   0  0  0  0  0  0  0  0  0  0  0  0
    9.7272   -0.5676    4.2618 H   0  0  0  0  0  0  0  0  0  0  0  0
    9.3090   -1.6704    2.9502 H   0  0  0  0  0  0  0  0  0  0  0  0
   10.6644   -2.0466    4.0189 H   0  0  0  0  0  0  0  0  0  0  0  0
   10.9960    2.1672    3.2075 H   0  0  0  0  0  0  0  0  0  0  0  0
    9.9191    4.7106    2.9807 H   0  0  0  0  0  0  0  0  0  0  0  0
   10.8696    6.3728    1.4235 H   0  0  0  0  0  0  0  0  0  0  0  0
   12.5534    9.8686    1.1975 H   0  0  0  0  0  0  0  0  0  0  0  0
   13.6794    8.3390    2.7039 H   0  0  0  0  0  0  0  0  0  0  0  0
   14.2316    6.0702    1.9682 H   0  0  0  0  0  0  0  0  0  0  0  0
   13.0049    0.5227    1.0001 H   0  0  0  0  0  0  0  0  0  0  0  0
   14.0282    1.6238    1.9574 H   0  0  0  0  0  0  0  0  0  0  0  0
   14.7039    0.6002   -0.8535 H   0  0  0  0  0  0  0  0  0  0  0  0
   15.4186    0.0275    0.6509 H   0  0  0  0  0  0  0  0  0  0  0  0
   15.7014    1.6905    0.1247 H   0  0  0  0  0  0  0  0  0  0  0  0
   12.8735    6.8312   -1.8055 H   0  0  0  0  0  0  0  0  0  0  0  0
   11.3478    6.8534   -0.9456 H   0  0  0  0  0  0  0  0  0  0  0  0
   11.9790    9.1556   -1.1272 H   0  0  0  0  0  0  0  0  0  0  0  0
   13.6669    8.8165   -0.7193 H   0  0  0  0  0  0  0  0  0  0  0  0
  1  2  2  0  0  0  0
  2  3  1  0  0  0  0
  3  4  2  0  0  0  0
  3  5  1  0  0  0  0
  5  6  2  0  0  0  0
  6  7  1  0  0  0  0
  7  8  2  0  0  0  0
  8  9  1  0  0  0  0
  9 10  2  0  0  0  0
 10 11  1  0  0  0  0
 11 12  2  0  0  0  0
 12 13  1  0  0  0  0
 13 14  3  0  0  0  0
 12 15  1  0  0  0  0
 15 16  3  0  0  0  0
  8 17  1  0  0  0  0
 17 18  1  0  0  0  0
 18 19  1  0  0  0  0
 19 20  2  0  0  0  0
 20 21  1  0  0  0  0
 21 22  1  0  0  0  0
 21 23  1  0  0  0  0
  1 24  1  0  0  0  0
 24 25  2  0  0  0  0
 25 26  1  0  0  0  0
 26 27  1  0  0  0  0
 27 28  2  0  0  0  0
 28 29  1  0  0  0  0
 29 30  2  0  0  0  0
 30 31  1  0  0  0  0
 30 32  1  0  0  0  0
 32 33  2  0  0  0  0
 26 34  1  0  0  0  0
 34 35  2  0  0  0  0
 35 36  1  0  0  0  0
 36 37  2  0  0  0  0
 37 38  1  0  0  0  0
 37 39  1  0  0  0  0
 39 40  2  0  0  0  0
 25 41  1  0  0  0  0
 41 42  1  0  0  0  0
 42 43  1  0  0  0  0
 43 44  2  0  0  0  0
 44 45  1  0  0  0  0
 45 46  1  0  0  0  0
 46 47  2  0  0  0  0
 47 48  1  0  0  0  0
 48 49  2  0  0  0  0
 49 50  1  0  0  0  0
 49 51  1  0  0  0  0
 51 52  2  0  0  0  0
 45 53  1  0  0  0  0
 53 54  2  0  0  0  0
 54 55  1  0  0  0  0
 55 56  2  0  0  0  0
 56 57  1  0  0  0  0
 56 58  1  0  0  0  0
 58 59  2  0  0  0  0
 44 60  1  0  0  0  0
 60 61  1  0  0  0  0
 43 62  1  0  0  0  0
 62 63  2  0  0  0  0
 63 64  1  0  0  0  0
 64 65  2  0  0  0  0
 65 66  1  0  0  0  0
 66 67  2  0  0  0  0
 67 68  1  0  0  0  0
 68 69  1  0  0  0  0
 69 70  1  0  0  0  0
 68 71  2  0  0  0  0
 63 72  1  0  0  0  0
 72 73  1  0  0  0  0
 73 74  1  0  0  0  0
 74 75  1  0  0  0  0
 75 76  1  0  0  0  0
 76 77  1  0  0  0  0
 77 78  2  0  0  0  0
 78 79  1  0  0  0  0
 79 80  1  0  0  0  0
 77 81  1  0  0  0  0
 81 82  1  0  0  0  0
 82 83  1  0  0  0  0
 83 84  1  0  0  0  0
 84 85  1  0  0  0  0
 85 86  1  0  0  0  0
 86 87  2  0  0  0  0
 87 88  1  0  0  0  0
 88 89  2  0  0  0  0
 89 90  1  0  0  0  0
 90 91  1  0  0  0  0
 91 92  1  0  0  0  0
 90 93  2  0  0  0  0
 85 94  2  0  0  0  0
 94 95  1  0  0  0  0
 95 96  1  0  0  0  0
 96 97  1  0  0  0  0
 97 98  1  0  0  0  0
 98 99  1  0  0  0  0
 99100  1  0  0  0  0
100101  1  0  0  0  0
101102  1  0  0  0  0
102103  1  0  0  0  0
103104  1  0  0  0  0
101105  1  0  0  0  0
105106  1  0  0  0  0
 98107  1  0  0  0  0
107108  1  0  0  0  0
 94109  1  0  0  0  0
109110  2  0  0  0  0
110111  1  0  0  0  0
111112  2  0  0  0  0
112113  1  0  0  0  0
113114  2  0  0  0  0
114115  1  0  0  0  0
115116  2  0  0  0  0
116117  1  0  0  0  0
117118  1  0  0  0  0
118119  1  0  0  0  0
117120  2  0  0  0  0
120121  1  0  0  0  0
121122  2  0  0  0  0
122123  1  0  0  0  0
112124  1  0  0  0  0
124125  2  0  0  0  0
125126  1  0  0  0  0
126127  1  0  0  0  0
127128  1  0  0  0  0
128129  1  0  0  0  0
129130  2  0  0  0  0
130131  1  0  0  0  0
131132  2  0  0  0  0
132133  1  0  0  0  0
133134  1  0  0  0  0
132135  1  0  0  0  0
135136  2  0  0  0  0
136137  1  0  0  0  0
126138  2  0  0  0  0
138139  1  0  0  0  0
125140  1  0  0  0  0
140141  2  0  0  0  0
141142  1  0  0  0  0
141143  1  0  0  0  0
143144  1  0  0  0  0
144145  2  0  0  0  0
145146  1  0  0  0  0
146147  2  0  0  0  0
147148  1  0  0  0  0
148149  1  0  0  0  0
149150  2  0  0  0  0
150151  1  0  0  0  0
151152  3  0  0  0  0
150153  1  0  0  0  0
153154  3  0  0  0  0
149155  1  0  0  0  0
155156  1  0  0  0  0
156157  1  0  0  0  0
155158  1  0  0  0  0
158159  2  0  0  0  0
146160  1  0  0  0  0
160161  1  0  0  0  0
 11  2  1  0  0  0  0
 23 17  1  0  0  0  0
 61 24  1  0  0  0  0
104 62  1  0  0  0  0
139109  1  0  0  0  0
161143  1  0  0  0  0
 10  5  1  0  0  0  0
 22 18  1  0  0  0  0
 33 27  1  0  0  0  0
 40 34  1  0  0  0  0
 60 41  2  0  0  0  0
 71 64  1  0  0  0  0
103 72  2  0  0  0  0
138111  1  0  0  0  0
158147  1  0  0  0  0
 23  7  1  0  0  0  0
 52 46  1  0  0  0  0
 59 53  1  0  0  0  0
102 74  2  0  0  0  0
123113  1  0  0  0  0
142124  1  0  0  0  0
100 75  2  0  0  0  0
122115  1  0  0  0  0
137127  2  0  0  0  0
 80 76  2  0  0  0  0
 99 81  2  0  0  0  0
136129  1  0  0  0  0
 97 82  2  0  0  0  0
 96 84  2  0  0  0  0
 93 86  1  0  0  0  0
  1162  1  0  0  0  0
  6163  1  0  0  0  0
  9164  1  0  0  0  0
 17165  1  0  0  0  0
 18166  1  0  0  0  0
 19167  1  0  0  0  0
 20168  1  0  0  0  0
 21169  1  0  0  0  0
 22170  1  0  0  0  0
 22171  1  0  0  0  0
 23172  1  0  0  0  0
 28173  1  0  0  0  0
 29174  1  0  0  0  0
 31175  1  0  0  0  0
 31176  1  0  0  0  0
 31177  1  0  0  0  0
 32178  1  0  0  0  0
 33179  1  0  0  0  0
 35180  1  0  0  0  0
 36181  1  0  0  0  0
 38182  1  0  0  0  0
 38183  1  0  0  0  0
 38184  1  0  0  0  0
 39185  1  0  0  0  0
 40186  1  0  0  0  0
 47187  1  0  0  0  0
 48188  1  0  0  0  0
 50189  1  0  0  0  0
 50190  1  0  0  0  0
 50191  1  0  0  0  0
 51192  1  0  0  0  0
 52193  1  0  0  0  0
 54194  1  0  0  0  0
 55195  1  0  0  0  0
 57196  1  0  0  0  0
 57197  1  0  0  0  0
 57198  1  0  0  0  0
 58199  1  0  0  0  0
 59200  1  0  0  0  0
 65201  1  0  0  0  0
 66202  1  0  0  0  0
 67203  1  0  0  0  0
 69204  1  0  0  0  0
 69205  1  0  0  0  0
 70206  1  0  0  0  0
 70207  1  0  0  0  0
 70208  1  0  0  0  0
 71209  1  0  0  0  0
 87210  1  0  0  0  0
 88211  1  0  0  0  0
 89212  1  0  0  0  0
 91213  1  0  0  0  0
 91214  1  0  0  0  0
 92215  1  0  0  0  0
 92216  1  0  0  0  0
 92217  1  0  0  0  0
 93218  1  0  0  0  0
105219  1  0  0  0  0
105220  1  0  0  0  0
106221  1  0  0  0  0
106222  1  0  0  0  0
106223  1  0  0  0  0
107224  1  0  0  0  0
107225  1  0  0  0  0
108226  1  0  0  0  0
108227  1  0  0  0  0
108228  1  0  0  0  0
110229  1  0  0  0  0
114230  1  0  0  0  0
116231  1  0  0  0  0
118232  1  0  0  0  0
118233  1  0  0  0  0
119234  1  0  0  0  0
119235  1  0  0  0  0
119236  1  0  0  0  0
120237  1  0  0  0  0
121238  1  0  0  0  0
130239  1  0  0  0  0
131240  1  0  0  0  0
133241  1  0  0  0  0
133242  1  0  0  0  0
134243  1  0  0  0  0
134244  1  0  0  0  0
134245  1  0  0  0  0
135246  1  0  0  0  0
137247  1  0  0  0  0
140248  1  0  0  0  0
143249  1  0  0  0  0
144250  1  0  0  0  0
145251  1  0  0  0  0
156252  1  0  0  0  0
156253  1  0  0  0  0
157254  1  0  0  0  0
157255  1  0  0  0  0
157256  1  0  0  0  0
160257  1  0  0  0  0
160258  1  0  0  0  0
161259  1  0  0  0  0
161260  1  0  0  0  0
M  END
