
  xtb     02252218063D
 energy: -313.542333032895 gnorm: 0.000959754158 xtb: 6.4.1 (unknown)
190211  0     0  0            999 V2000
    7.8241   -2.9042    2.0753 C   0  0  0  0  0  0  0  0  0  0  0  0
    8.0644   -4.2593    2.1507 C   0  0  0  0  0  0  0  0  0  0  0  0
    7.0883   -5.2387    2.6529 C   0  0  0  0  0  0  0  0  0  0  0  0
    5.9529   -5.0214    3.0358 O   0  0  0  0  0  0  0  0  0  0  0  0
    7.8105   -6.5263    2.7228 C   0  0  0  0  0  0  0  0  0  0  0  0
    7.3017   -7.7515    3.1401 C   0  0  0  0  0  0  0  0  0  0  0  0
    8.2054   -8.7856    3.0724 C   0  0  0  0  0  0  0  0  0  0  0  0
    9.5228   -8.6112    2.6332 C   0  0  0  0  0  0  0  0  0  0  0  0
   10.0396   -7.4035    2.2253 C   0  0  0  0  0  0  0  0  0  0  0  0
    9.1340   -6.3426    2.2788 C   0  0  0  0  0  0  0  0  0  0  0  0
    9.3025   -4.9408    1.8996 C   0  0  0  0  0  0  0  0  0  0  0  0
   10.3906   -4.4060    1.2523 C   0  0  0  0  0  0  0  0  0  0  0  0
   11.5468   -5.1283    0.9079 C   0  0  0  0  0  0  0  0  0  0  0  0
   12.5119   -5.6635    0.5855 N   0  0  0  0  0  0  0  0  0  0  0  0
   10.4496   -3.0829    0.7728 C   0  0  0  0  0  0  0  0  0  0  0  0
   10.5538   -2.0306    0.3230 N   0  0  0  0  0  0  0  0  0  0  0  0
    9.8678  -10.0662    2.8342 C   0  0  0  0  0  0  0  0  0  0  0  0
   10.6970  -10.4485    4.0848 C   0  0  0  0  0  0  0  0  0  0  0  0
   10.4134   -9.3947    5.1261 C   0  0  0  0  0  0  0  0  0  0  0  0
    9.1644   -9.5603    5.5402 C   0  0  0  0  0  0  0  0  0  0  0  0
    8.5807  -10.7294    4.7862 C   0  0  0  0  0  0  0  0  0  0  0  0
    9.8360  -11.6015    4.6253 C   0  0  0  0  0  0  0  0  0  0  0  0
    8.3973  -10.2614    3.3214 C   0  0  0  0  0  0  0  0  0  0  0  0
    6.5697   -2.3035    1.9379 C   0  0  0  0  0  0  0  0  0  0  0  0
    5.3595   -2.7917    1.4032 C   0  0  0  0  0  0  0  0  0  0  0  0
    5.1757   -3.9620    0.7242 N   0  0  0  0  0  0  0  0  0  0  0  0
    3.8861   -4.5336    0.6735 C   0  0  0  0  0  0  0  0  0  0  0  0
    3.3749   -4.9865   -0.5374 C   0  0  0  0  0  0  0  0  0  0  0  0
    2.1111   -5.5426   -0.5865 C   0  0  0  0  0  0  0  0  0  0  0  0
    1.3347   -5.6590    0.5596 C   0  0  0  0  0  0  0  0  0  0  0  0
   -0.0458   -6.2373    0.5040 C   0  0  0  0  0  0  0  0  0  0  0  0
    1.8635   -5.2153    1.7672 C   0  0  0  0  0  0  0  0  0  0  0  0
    3.1249   -4.6595    1.8318 C   0  0  0  0  0  0  0  0  0  0  0  0
    6.2113   -4.6160    0.0430 C   0  0  0  0  0  0  0  0  0  0  0  0
    6.2842   -6.0071    0.0630 C   0  0  0  0  0  0  0  0  0  0  0  0
    7.3248   -6.6591   -0.5718 C   0  0  0  0  0  0  0  0  0  0  0  0
    8.3112   -5.9515   -1.2453 C   0  0  0  0  0  0  0  0  0  0  0  0
    9.4695   -6.6487   -1.8860 C   0  0  0  0  0  0  0  0  0  0  0  0
    8.2048   -4.5634   -1.2996 C   0  0  0  0  0  0  0  0  0  0  0  0
    7.1739   -3.9006   -0.6684 C   0  0  0  0  0  0  0  0  0  0  0  0
    4.3363   -1.8247    1.5410 C   0  0  0  0  0  0  0  0  0  0  0  0
    2.6723   -1.7755    1.0653 S   0  0  0  0  0  0  0  0  0  0  0  0
    2.5341   -0.1283    1.6553 C   0  0  0  0  0  0  0  0  0  0  0  0
    3.7367    0.3774    2.1296 C   0  0  0  0  0  0  0  0  0  0  0  0
    3.9480    1.6858    2.5231 N   0  0  0  0  0  0  0  0  0  0  0  0
    4.8540    1.9638    3.5568 C   0  0  0  0  0  0  0  0  0  0  0  0
    4.9844    1.0969    4.6378 C   0  0  0  0  0  0  0  0  0  0  0  0
    5.8834    1.3756    5.6479 C   0  0  0  0  0  0  0  0  0  0  0  0
    6.6692    2.5199    5.6152 C   0  0  0  0  0  0  0  0  0  0  0  0
    7.6580    2.8087    6.7028 C   0  0  0  0  0  0  0  0  0  0  0  0
    6.5324    3.3806    4.5320 C   0  0  0  0  0  0  0  0  0  0  0  0
    5.6436    3.1102    3.5119 C   0  0  0  0  0  0  0  0  0  0  0  0
    3.2649    2.7246    1.8737 C   0  0  0  0  0  0  0  0  0  0  0  0
    3.0234    2.6652    0.5035 C   0  0  0  0  0  0  0  0  0  0  0  0
    2.2656    3.6401   -0.1141 C   0  0  0  0  0  0  0  0  0  0  0  0
    1.7303    4.6988    0.6078 C   0  0  0  0  0  0  0  0  0  0  0  0
    0.8338    5.7084   -0.0414 C   0  0  0  0  0  0  0  0  0  0  0  0
    2.0333    4.7868    1.9618 C   0  0  0  0  0  0  0  0  0  0  0  0
    2.7956    3.8229    2.5897 C   0  0  0  0  0  0  0  0  0  0  0  0
    4.7467   -0.6138    2.0812 C   0  0  0  0  0  0  0  0  0  0  0  0
    6.4285   -0.6157    2.4585 S   0  0  0  0  0  0  0  0  0  0  0  0
    1.2831    0.5626    1.5583 C   0  0  0  0  0  0  0  0  0  0  0  0
    0.6708    1.3494    2.5137 C   0  0  0  0  0  0  0  0  0  0  0  0
    1.0637    1.4026    3.9203 C   0  0  0  0  0  0  0  0  0  0  0  0
    1.5567    0.2697    4.5650 C   0  0  0  0  0  0  0  0  0  0  0  0
    1.9019    0.3288    5.9011 C   0  0  0  0  0  0  0  0  0  0  0  0
    1.7643    1.5102    6.6089 C   0  0  0  0  0  0  0  0  0  0  0  0
    1.2542    2.6433    5.9899 C   0  0  0  0  0  0  0  0  0  0  0  0
    1.0356    3.9154    6.7567 C   0  0  0  0  0  0  0  0  0  0  0  0
   -0.4163    4.0065    7.2300 C   0  0  0  0  0  0  0  0  0  0  0  0
    0.8972    2.5735    4.6522 C   0  0  0  0  0  0  0  0  0  0  0  0
   -0.4540    2.0131    1.9744 C   0  0  0  0  0  0  0  0  0  0  0  0
   -1.6033    3.1451    2.6437 S   0  0  0  0  0  0  0  0  0  0  0  0
   -2.4559    3.1481    1.1368 C   0  0  0  0  0  0  0  0  0  0  0  0
   -3.5837    3.7445    0.5457 C   0  0  0  0  0  0  0  0  0  0  0  0
   -4.4755    4.7387    1.0044 C   0  0  0  0  0  0  0  0  0  0  0  0
   -5.5198    5.1951    0.1299 C   0  0  0  0  0  0  0  0  0  0  0  0
   -6.2449    6.1616    0.6700 N   0  0  0  0  0  0  0  0  0  0  0  0
   -5.6685    6.4699    2.1511 S   0  0  0  0  0  0  0  0  0  0  0  0
   -4.4704    5.3815    2.1617 N   0  0  0  0  0  0  0  0  0  0  0  0
   -5.7053    4.5450   -1.1106 C   0  0  0  0  0  0  0  0  0  0  0  0
   -6.7434    4.6186   -2.0513 C   0  0  0  0  0  0  0  0  0  0  0  0
   -8.2032    5.5095   -2.3157 S   0  0  0  0  0  0  0  0  0  0  0  0
   -8.5428    4.4857   -3.6898 C   0  0  0  0  0  0  0  0  0  0  0  0
   -9.6111    4.4470   -4.5938 C   0  0  0  0  0  0  0  0  0  0  0  0
  -10.7494    5.3737   -4.5742 C   0  0  0  0  0  0  0  0  0  0  0  0
  -11.6366    5.3787   -3.5036 C   0  0  0  0  0  0  0  0  0  0  0  0
  -12.7101    6.2506   -3.5118 C   0  0  0  0  0  0  0  0  0  0  0  0
  -12.8985    7.1192   -4.5719 C   0  0  0  0  0  0  0  0  0  0  0  0
  -12.0065    7.1449   -5.6367 C   0  0  0  0  0  0  0  0  0  0  0  0
  -12.2230    8.0532   -6.8110 C   0  0  0  0  0  0  0  0  0  0  0  0
  -12.8965    7.2800   -7.9456 C   0  0  0  0  0  0  0  0  0  0  0  0
  -10.9326    6.2661   -5.6280 C   0  0  0  0  0  0  0  0  0  0  0  0
   -9.4662    3.4233   -5.5194 C   0  0  0  0  0  0  0  0  0  0  0  0
   -7.9642    2.5278   -5.2784 S   0  0  0  0  0  0  0  0  0  0  0  0
   -7.5563    3.5179   -3.9230 C   0  0  0  0  0  0  0  0  0  0  0  0
   -6.5195    3.6035   -2.9902 C   0  0  0  0  0  0  0  0  0  0  0  0
   -5.3657    2.9308   -2.6814 N   0  0  0  0  0  0  0  0  0  0  0  0
   -4.8381    3.5005   -1.5385 C   0  0  0  0  0  0  0  0  0  0  0  0
   -3.6898    3.2020   -0.7646 C   0  0  0  0  0  0  0  0  0  0  0  0
   -2.6172    2.3491   -0.9828 N   0  0  0  0  0  0  0  0  0  0  0  0
   -1.8805    2.3180    0.1741 C   0  0  0  0  0  0  0  0  0  0  0  0
   -0.7246    1.6830    0.6473 C   0  0  0  0  0  0  0  0  0  0  0  0
    0.4334    0.5673    0.0215 S   0  0  0  0  0  0  0  0  0  0  0  0
   -1.9430    2.0595   -2.2303 C   0  0  0  0  0  0  0  0  0  0  0  0
   -0.8792    3.1147   -2.5302 C   0  0  0  0  0  0  0  0  0  0  0  0
   -5.0831    1.6529   -3.2952 C   0  0  0  0  0  0  0  0  0  0  0  0
   -4.5375    1.8057   -4.7153 C   0  0  0  0  0  0  0  0  0  0  0  0
  -10.3746    2.9853   -6.5107 C   0  0  0  0  0  0  0  0  0  0  0  0
  -10.1444    1.9298   -7.3871 C   0  0  0  0  0  0  0  0  0  0  0  0
  -11.1941    1.6080   -8.2286 C   0  0  0  0  0  0  0  0  0  0  0  0
  -12.3449    2.3775   -8.0748 C   0  0  0  0  0  0  0  0  0  0  0  0
  -12.0954    3.6925   -6.7324 Se  0  0  0  0  0  2  0  0  0  0  0  0
  -13.5277    2.1899   -8.8326 C   0  0  0  0  0  0  0  0  0  0  0  0
  -14.7133    2.8937   -8.7060 C   0  0  0  0  0  0  0  0  0  0  0  0
  -14.8654    3.9192   -7.7639 C   0  0  0  0  0  0  0  0  0  0  0  0
  -14.9835    4.7602   -6.9864 N   0  0  0  0  0  0  0  0  0  0  0  0
  -15.8302    2.6116   -9.5148 C   0  0  0  0  0  0  0  0  0  0  0  0
  -16.7499    2.3937  -10.1650 N   0  0  0  0  0  0  0  0  0  0  0  0
  -13.4924    1.1670   -9.8166 C   0  0  0  0  0  0  0  0  0  0  0  0
  -13.4541    0.3404  -10.6087 N   0  0  0  0  0  0  0  0  0  0  0  0
    8.6622   -2.2229    2.1611 H   0  0  0  0  0  0  0  0  0  0  0  0
    6.2790   -7.8445    3.4718 H   0  0  0  0  0  0  0  0  0  0  0  0
   11.0585   -7.2811    1.8972 H   0  0  0  0  0  0  0  0  0  0  0  0
   10.1863  -10.6081    1.9456 H   0  0  0  0  0  0  0  0  0  0  0  0
   11.7448  -10.6566    3.8854 H   0  0  0  0  0  0  0  0  0  0  0  0
   11.1092   -8.6247    5.4035 H   0  0  0  0  0  0  0  0  0  0  0  0
    8.6080   -8.9558    6.2324 H   0  0  0  0  0  0  0  0  0  0  0  0
    7.7016  -11.1938    5.2258 H   0  0  0  0  0  0  0  0  0  0  0  0
   10.2021  -11.9927    5.5735 H   0  0  0  0  0  0  0  0  0  0  0  0
    9.7090  -12.4177    3.9153 H   0  0  0  0  0  0  0  0  0  0  0  0
    7.7565  -10.9307    2.7499 H   0  0  0  0  0  0  0  0  0  0  0  0
    3.9694   -4.8974   -1.4351 H   0  0  0  0  0  0  0  0  0  0  0  0
    1.7213   -5.8872   -1.5335 H   0  0  0  0  0  0  0  0  0  0  0  0
   -0.7857   -5.4395    0.5719 H   0  0  0  0  0  0  0  0  0  0  0  0
   -0.2127   -6.9171    1.3371 H   0  0  0  0  0  0  0  0  0  0  0  0
   -0.2074   -6.7743   -0.4272 H   0  0  0  0  0  0  0  0  0  0  0  0
    1.2797   -5.3145    2.6707 H   0  0  0  0  0  0  0  0  0  0  0  0
    3.5481   -4.3472    2.7736 H   0  0  0  0  0  0  0  0  0  0  0  0
    5.5287   -6.5705    0.5897 H   0  0  0  0  0  0  0  0  0  0  0  0
    7.3770   -7.7373   -0.5265 H   0  0  0  0  0  0  0  0  0  0  0  0
   10.3665   -6.5218   -1.2785 H   0  0  0  0  0  0  0  0  0  0  0  0
    9.2760   -7.7135   -1.9872 H   0  0  0  0  0  0  0  0  0  0  0  0
    9.6762   -6.2295   -2.8686 H   0  0  0  0  0  0  0  0  0  0  0  0
    8.9472   -3.9935   -1.8390 H   0  0  0  0  0  0  0  0  0  0  0  0
    7.1148   -2.8238   -0.7216 H   0  0  0  0  0  0  0  0  0  0  0  0
    4.3701    0.2113    4.6896 H   0  0  0  0  0  0  0  0  0  0  0  0
    5.9703    0.6919    6.4799 H   0  0  0  0  0  0  0  0  0  0  0  0
    8.6382    2.4182    6.4273 H   0  0  0  0  0  0  0  0  0  0  0  0
    7.7573    3.8800    6.8627 H   0  0  0  0  0  0  0  0  0  0  0  0
    7.3579    2.3377    7.6359 H   0  0  0  0  0  0  0  0  0  0  0  0
    7.1390    4.2734    4.4818 H   0  0  0  0  0  0  0  0  0  0  0  0
    5.5587    3.7834    2.6717 H   0  0  0  0  0  0  0  0  0  0  0  0
    3.4259    1.8473   -0.0765 H   0  0  0  0  0  0  0  0  0  0  0  0
    2.0925    3.5738   -1.1791 H   0  0  0  0  0  0  0  0  0  0  0  0
    0.9614    5.7080   -1.1214 H   0  0  0  0  0  0  0  0  0  0  0  0
    1.0375    6.7075    0.3375 H   0  0  0  0  0  0  0  0  0  0  0  0
   -0.2092    5.4757    0.1808 H   0  0  0  0  0  0  0  0  0  0  0  0
    1.6515    5.6183    2.5365 H   0  0  0  0  0  0  0  0  0  0  0  0
    3.0156    3.8991    3.6437 H   0  0  0  0  0  0  0  0  0  0  0  0
    1.6488   -0.6597    4.0226 H   0  0  0  0  0  0  0  0  0  0  0  0
    2.2788   -0.5542    6.3967 H   0  0  0  0  0  0  0  0  0  0  0  0
    2.0465    1.5501    7.6510 H   0  0  0  0  0  0  0  0  0  0  0  0
    1.2585    4.7736    6.1191 H   0  0  0  0  0  0  0  0  0  0  0  0
    1.7028    3.9481    7.6202 H   0  0  0  0  0  0  0  0  0  0  0  0
   -0.5788    4.9279    7.7843 H   0  0  0  0  0  0  0  0  0  0  0  0
   -1.0928    3.9880    6.3786 H   0  0  0  0  0  0  0  0  0  0  0  0
   -0.6562    3.1651    7.8764 H   0  0  0  0  0  0  0  0  0  0  0  0
    0.4995    3.4512    4.1657 H   0  0  0  0  0  0  0  0  0  0  0  0
  -11.4859    4.6969   -2.6796 H   0  0  0  0  0  0  0  0  0  0  0  0
  -13.4071    6.2474   -2.6872 H   0  0  0  0  0  0  0  0  0  0  0  0
  -13.7471    7.7868   -4.5742 H   0  0  0  0  0  0  0  0  0  0  0  0
  -12.8559    8.8930   -6.5205 H   0  0  0  0  0  0  0  0  0  0  0  0
  -11.2655    8.4480   -7.1584 H   0  0  0  0  0  0  0  0  0  0  0  0
  -13.0800    7.9305   -8.7972 H   0  0  0  0  0  0  0  0  0  0  0  0
  -13.8430    6.8649   -7.6069 H   0  0  0  0  0  0  0  0  0  0  0  0
  -12.2631    6.4532   -8.2677 H   0  0  0  0  0  0  0  0  0  0  0  0
  -10.2149    6.2831   -6.4387 H   0  0  0  0  0  0  0  0  0  0  0  0
   -1.4733    1.0758   -2.1352 H   0  0  0  0  0  0  0  0  0  0  0  0
   -2.6567    2.0384   -3.0448 H   0  0  0  0  0  0  0  0  0  0  0  0
   -1.3374    4.0983   -2.6145 H   0  0  0  0  0  0  0  0  0  0  0  0
   -0.1389    3.1425   -1.7356 H   0  0  0  0  0  0  0  0  0  0  0  0
   -0.3799    2.8779   -3.4659 H   0  0  0  0  0  0  0  0  0  0  0  0
   -6.0234    1.0915   -3.3438 H   0  0  0  0  0  0  0  0  0  0  0  0
   -4.4010    1.0949   -2.6528 H   0  0  0  0  0  0  0  0  0  0  0  0
   -4.2225    0.8376   -5.0946 H   0  0  0  0  0  0  0  0  0  0  0  0
   -3.6930    2.4906   -4.7503 H   0  0  0  0  0  0  0  0  0  0  0  0
   -5.3098    2.1966   -5.3719 H   0  0  0  0  0  0  0  0  0  0  0  0
   -9.2053    1.4009   -7.3971 H   0  0  0  0  0  0  0  0  0  0  0  0
  -11.1377    0.8105   -8.9516 H   0  0  0  0  0  0  0  0  0  0  0  0
  1  2  2  0  0  0  0
  2  3  1  0  0  0  0
  3  4  2  0  0  0  0
  3  5  1  0  0  0  0
  5  6  2  0  0  0  0
  6  7  1  0  0  0  0
  7  8  2  0  0  0  0
  8  9  1  0  0  0  0
  9 10  2  0  0  0  0
 10 11  1  0  0  0  0
 11 12  2  0  0  0  0
 12 13  1  0  0  0  0
 13 14  3  0  0  0  0
 12 15  1  0  0  0  0
 15 16  3  0  0  0  0
  8 17  1  0  0  0  0
 17 18  1  0  0  0  0
 18 19  1  0  0  0  0
 19 20  2  0  0  0  0
 20 21  1  0  0  0  0
 21 22  1  0  0  0  0
 21 23  1  0  0  0  0
  1 24  1  0  0  0  0
 24 25  2  0  0  0  0
 25 26  1  0  0  0  0
 26 27  1  0  0  0  0
 27 28  2  0  0  0  0
 28 29  1  0  0  0  0
 29 30  2  0  0  0  0
 30 31  1  0  0  0  0
 30 32  1  0  0  0  0
 32 33  2  0  0  0  0
 26 34  1  0  0  0  0
 34 35  2  0  0  0  0
 35 36  1  0  0  0  0
 36 37  2  0  0  0  0
 37 38  1  0  0  0  0
 37 39  1  0  0  0  0
 39 40  2  0  0  0  0
 25 41  1  0  0  0  0
 41 42  1  0  0  0  0
 42 43  1  0  0  0  0
 43 44  2  0  0  0  0
 44 45  1  0  0  0  0
 45 46  1  0  0  0  0
 46 47  2  0  0  0  0
 47 48  1  0  0  0  0
 48 49  2  0  0  0  0
 49 50  1  0  0  0  0
 49 51  1  0  0  0  0
 51 52  2  0  0  0  0
 45 53  1  0  0  0  0
 53 54  2  0  0  0  0
 54 55  1  0  0  0  0
 55 56  2  0  0  0  0
 56 57  1  0  0  0  0
 56 58  1  0  0  0  0
 58 59  2  0  0  0  0
 44 60  1  0  0  0  0
 60 61  1  0  0  0  0
 43 62  1  0  0  0  0
 62 63  2  0  0  0  0
 63 64  1  0  0  0  0
 64 65  2  0  0  0  0
 65 66  1  0  0  0  0
 66 67  2  0  0  0  0
 67 68  1  0  0  0  0
 68 69  1  0  0  0  0
 69 70  1  0  0  0  0
 68 71  2  0  0  0  0
 63 72  1  0  0  0  0
 72 73  1  0  0  0  0
 73 74  1  0  0  0  0
 74 75  1  0  0  0  0
 75 76  1  0  0  0  0
 76 77  1  0  0  0  0
 77 78  2  0  0  0  0
 78 79  1  0  0  0  0
 79 80  1  0  0  0  0
 77 81  1  0  0  0  0
 81 82  1  0  0  0  0
 82 83  1  0  0  0  0
 83 84  1  0  0  0  0
 84 85  1  0  0  0  0
 85 86  1  0  0  0  0
 86 87  2  0  0  0  0
 87 88  1  0  0  0  0
 88 89  2  0  0  0  0
 89 90  1  0  0  0  0
 90 91  1  0  0  0  0
 91 92  1  0  0  0  0
 90 93  2  0  0  0  0
 85 94  2  0  0  0  0
 94 95  1  0  0  0  0
 95 96  1  0  0  0  0
 96 97  1  0  0  0  0
 97 98  1  0  0  0  0
 98 99  1  0  0  0  0
 99100  1  0  0  0  0
100101  1  0  0  0  0
101102  1  0  0  0  0
102103  1  0  0  0  0
103104  1  0  0  0  0
101105  1  0  0  0  0
105106  1  0  0  0  0
 98107  1  0  0  0  0
107108  1  0  0  0  0
 94109  1  0  0  0  0
109110  2  0  0  0  0
110111  1  0  0  0  0
111112  2  0  0  0  0
112113  1  0  0  0  0
112114  1  0  0  0  0
114115  2  0  0  0  0
115116  1  0  0  0  0
116117  3  0  0  0  0
115118  1  0  0  0  0
118119  3  0  0  0  0
114120  1  0  0  0  0
120121  3  0  0  0  0
 11  2  1  0  0  0  0
 23 17  1  0  0  0  0
 61 24  1  0  0  0  0
104 62  1  0  0  0  0
113109  1  0  0  0  0
 10  5  1  0  0  0  0
 22 18  1  0  0  0  0
 33 27  1  0  0  0  0
 40 34  1  0  0  0  0
 60 41  2  0  0  0  0
 71 64  1  0  0  0  0
103 72  2  0  0  0  0
 23  7  1  0  0  0  0
 52 46  1  0  0  0  0
 59 53  1  0  0  0  0
102 74  2  0  0  0  0
100 75  2  0  0  0  0
 80 76  2  0  0  0  0
 99 81  2  0  0  0  0
 97 82  2  0  0  0  0
 96 84  2  0  0  0  0
 93 86  1  0  0  0  0
  1122  1  0  0  0  0
  6123  1  0  0  0  0
  9124  1  0  0  0  0
 17125  1  0  0  0  0
 18126  1  0  0  0  0
 19127  1  0  0  0  0
 20128  1  0  0  0  0
 21129  1  0  0  0  0
 22130  1  0  0  0  0
 22131  1  0  0  0  0
 23132  1  0  0  0  0
 28133  1  0  0  0  0
 29134  1  0  0  0  0
 31135  1  0  0  0  0
 31136  1  0  0  0  0
 31137  1  0  0  0  0
 32138  1  0  0  0  0
 33139  1  0  0  0  0
 35140  1  0  0  0  0
 36141  1  0  0  0  0
 38142  1  0  0  0  0
 38143  1  0  0  0  0
 38144  1  0  0  0  0
 39145  1  0  0  0  0
 40146  1  0  0  0  0
 47147  1  0  0  0  0
 48148  1  0  0  0  0
 50149  1  0  0  0  0
 50150  1  0  0  0  0
 50151  1  0  0  0  0
 51152  1  0  0  0  0
 52153  1  0  0  0  0
 54154  1  0  0  0  0
 55155  1  0  0  0  0
 57156  1  0  0  0  0
 57157  1  0  0  0  0
 57158  1  0  0  0  0
 58159  1  0  0  0  0
 59160  1  0  0  0  0
 65161  1  0  0  0  0
 66162  1  0  0  0  0
 67163  1  0  0  0  0
 69164  1  0  0  0  0
 69165  1  0  0  0  0
 70166  1  0  0  0  0
 70167  1  0  0  0  0
 70168  1  0  0  0  0
 71169  1  0  0  0  0
 87170  1  0  0  0  0
 88171  1  0  0  0  0
 89172  1  0  0  0  0
 91173  1  0  0  0  0
 91174  1  0  0  0  0
 92175  1  0  0  0  0
 92176  1  0  0  0  0
 92177  1  0  0  0  0
 93178  1  0  0  0  0
105179  1  0  0  0  0
105180  1  0  0  0  0
106181  1  0  0  0  0
106182  1  0  0  0  0
106183  1  0  0  0  0
107184  1  0  0  0  0
107185  1  0  0  0  0
108186  1  0  0  0  0
108187  1  0  0  0  0
108188  1  0  0  0  0
110189  1  0  0  0  0
111190  1  0  0  0  0
M  END
