238

C          2.86990       10.27270        0.93530
C          4.18670       10.08560        0.57170
C          4.87480        8.78710        0.63730
O          4.40240        7.71470        0.96890
C          6.29610        9.07100        0.34730
C          7.34100        8.15460        0.29860
C          8.55670        8.70870       -0.02700
C          8.72370       10.07740       -0.26590
C          7.70160       10.99560       -0.20480
C          6.45570       10.44890        0.10630
C          5.14720       11.09120        0.21840
C          4.85350       12.38880       -0.12690
C          5.79780       13.32140       -0.59080
N          6.52160       14.11930       -0.99190
C          3.54950       12.92090       -0.14150
N          2.51220       13.41040       -0.20980
C         10.19790        9.93020       -0.54960
C         10.65160        9.96780       -2.02980
C          9.47840        9.49500       -2.85140
C          9.32380        8.19700       -2.62670
C         10.38810        7.76980       -1.64700
C         11.53180        8.70810       -2.06390
C         10.01180        8.40300       -0.28440
C          1.87110        9.29640        0.89750
C          1.74520        8.12770        0.11640
N          2.53630        7.74080       -0.92790
C          3.29470        8.63750       -1.69150
C          4.56940        8.27270       -2.12200
C          5.34380        9.16470       -2.83820
C          4.87150       10.43260       -3.15370
C          5.73600       11.41670       -3.87690
C          3.57980       10.77150       -2.76100
C          2.79870        9.89250       -2.03970
C          2.57420        6.37270       -1.27630
C          2.41820        5.98740       -2.60290
C          2.41540        4.64590       -2.93380
C          2.56700        3.66730       -1.95920
C          2.51040        2.21210       -2.31030
C          2.75330        4.06660       -0.64040
C          2.76120        5.40290       -0.29560
C          0.58130        7.41760        0.48640
S         -0.14170        5.93310       -0.02690
C         -1.46410        6.13560        1.11340
C         -1.35510        7.31000        1.83460
N         -2.20890        7.73730        2.87140
C         -2.90320        8.93620        2.70450
C         -3.68110        9.44640        3.74270
C         -4.42020       10.59730        3.56700
C         -4.42010       11.27980        2.35750
C         -5.23970       12.52010        2.16530
C         -3.66250       10.75670        1.31930
C         -2.91970        9.60430        1.48120
C         -1.78850        7.32990        4.16470
C         -1.85110        5.99040        4.52510
C         -1.43910        5.58650        5.78240
C         -0.95230        6.50040        6.70560
C         -0.52050        6.07370        8.07550
C         -0.86780        7.83660        6.32720
C         -1.27020        8.24930        5.07380
C         -0.19390        8.02690        1.46280
S          0.47790        9.53080        1.96670
C         -2.36480        5.03400        1.22340
C         -3.64760        4.93280        1.72550
C         -4.54210        6.03180        2.09540
C         -4.81250        7.05690        1.19590
C         -5.75620        8.01470        1.51290
C         -6.41920        7.96770        2.72620
C         -6.15540        6.95390        3.63800
C         -6.85030        6.89840        4.96840
C         -5.99230        7.54170        6.05910
C         -5.21940        5.98670        3.30790
C         -4.07480        3.58770        1.76320
S         -5.56530        2.83830        2.28760
C         -4.92620        1.29620        1.82160
C         -5.31400       -0.05220        1.76630
C         -6.54450       -0.66250        2.08880
C         -6.70770       -2.06420        1.83970
N         -7.91980       -2.49720        2.15050
S         -8.78050       -1.24550        2.71310
N         -7.63970       -0.10360        2.57990
C         -5.60880       -2.80100        1.35050
C         -5.47290       -4.17700        1.10360
S         -6.41170       -5.63140        1.17010
C         -5.00430       -6.54300        0.67180
C         -4.76440       -7.92470        0.45650
C         -5.76390       -8.98090        0.61140
C         -5.41330      -10.23610        1.10400
C         -6.37430      -11.21960        1.23580
C         -7.68850      -10.96590        0.88420
C         -8.05930       -9.71750        0.40090
C         -9.47460       -9.44420       -0.01940
C         -9.66360       -9.77180       -1.50190
C         -7.08970       -8.73610        0.26670
C         -3.45270       -8.15210        0.11440
S         -2.51160       -6.67850       -0.00450
C         -3.88250       -5.74250        0.47470
C         -4.15200       -4.38760        0.71670
N         -3.46840       -3.20390        0.71210
C         -4.34620       -2.19730        1.07930
C         -4.21940       -0.78570        1.22030
N         -3.21210        0.11730        0.92650
C         -3.63590        1.36330        1.29750
C         -3.14750        2.67460        1.26060
S         -1.70370        3.47010        0.74900
C         -1.96460        0.00430        0.20940
C         -0.75950        0.04570        1.15040
C         -2.04030       -3.23440        0.50580
C         -1.67990       -3.35160       -0.97590
C         -2.83960       -9.38760       -0.36820
C         -3.33930       -9.92890       -1.56070
C         -2.70190      -10.95900       -2.20730
C         -1.51070      -11.51000       -1.70570
C         -1.10800      -11.11720       -0.42580
C         -0.06580      -11.57780        0.46560
C          0.78130      -12.62550        0.52490
C          0.84300      -13.81610       -0.28170
C         -0.28220      -14.52440       -0.80190
C          0.06620      -15.65810       -1.45190
S          1.77490      -15.89510       -1.48110
C          2.01490      -14.46760       -0.56820
C         -0.07660      -10.63560        1.61790
O          0.63790      -10.64890        2.59680
N         -1.13000       -9.77540        1.42590
C         -1.47920       -8.81410        2.44810
C         -0.45810       -7.68360        2.52400
C         -1.74830      -10.02740        0.21380
C         -0.78920      -12.38860       -2.59340
C          0.54550      -12.38640       -2.82490
C          1.52230      -11.39760       -2.29130
O          1.29330      -10.40290       -1.63890
C          2.83960      -11.83040       -2.78710
C          4.06850      -11.24230       -2.49640
C          5.14060      -11.86440       -3.08810
C          5.00100      -12.99150       -3.91070
C          3.79550      -13.58130       -4.20510
C          2.68920      -12.96010       -3.61620
C          1.27350      -13.30430       -3.68950
C          0.74380      -14.33720       -4.41510
C         -0.61910      -14.69910       -4.46930
N         -1.69920      -15.07610       -4.57380
C          1.49430      -15.21070       -5.23180
N          2.02930      -15.95870       -5.91860
C          6.48330      -13.08260       -4.17170
C          7.00530      -12.57370       -5.53840
C          6.02360      -11.53060       -6.01190
C          6.15660      -10.46570       -5.23240
C          7.23050      -10.76990       -4.21710
C          8.15110      -11.66880       -5.05780
C          6.63890      -11.82900       -3.25390
H          2.56990       11.23890        1.32320
H          7.17130        7.10710        0.49470
H          7.84710       12.04950       -0.37560
H         10.87010       10.48290        0.10390
H         11.10580       10.90530       -2.33920
H          8.86700       10.14730       -3.44720
H          8.55880        7.54000       -2.99880
H         10.60370        6.70510       -1.60690
H         11.91640        8.48850       -3.05890
H         12.35360        8.73420       -1.34950
H         10.56140        7.95970        0.54410
H          4.95080        7.29300       -1.87610
H          6.34030        8.87790       -3.14030
H          6.42650       10.90830       -4.54600
H          6.32200       11.99430       -3.16020
H          5.13310       12.11540       -4.45190
H          3.18170       11.74290       -3.01580
H          1.80180       10.18010       -1.74090
H          2.28980        6.74080       -3.36660
H          2.28230        4.35600       -3.96600
H          2.70600        2.05700       -3.36830
H          3.23500        1.64530       -1.72940
H          1.51850        1.81830       -2.08540
H          2.89440        3.31960        0.12710
H          2.93150        5.71420        0.72300
H         -3.71110        8.92820        4.68790
H         -5.01160       10.97380        4.39010
H         -4.74740       13.20660        1.47990
H         -5.40420       13.02700        3.11340
H         -6.21390       12.26630        1.74470
H         -3.65060       11.25920        0.36240
H         -2.35840        9.22000        0.64280
H         -2.22720        5.26470        3.82290
H         -1.50390        4.54080        6.04810
H         -1.13850        6.55410        8.83340
H         -0.60420        4.99630        8.19280
H          0.51300        6.36570        8.25680
H         -0.47120        8.56160        7.02350
H         -1.18370        9.28770        4.78860
H         -4.30120        7.08300        0.24490
H         -5.97510        8.80390        0.80980
H         -7.15400        8.72260        2.96490
H         -7.80740        7.41990        4.90860
H         -7.04450        5.85680        5.23330
H         -5.02170        7.05240        6.11650
H         -6.48170        7.45720        7.02690
H         -5.83510        8.59520        5.84080
H         -5.01040        5.18750        4.00470
H         -4.39430      -10.43550        1.40000
H         -6.09690      -12.19000        1.62100
H         -8.43430      -11.74010        0.99260
H        -10.16060      -10.05190        0.57380
H         -9.71310       -8.39260        0.15080
H         -9.43740      -10.81910       -1.69040
H         -8.99890       -9.16360       -2.11140
H        -10.68900       -9.57730       -1.80690
H         -7.36880       -7.76750       -0.12120
H         -1.97220       -0.89360       -0.40070
H         -1.90240        0.86330       -0.46820
H          0.15180       -0.15340        0.59310
H         -0.85210       -0.68610        1.95040
H         -0.67640        1.02910        1.60500
H         -1.65630       -4.11930        1.02570
H         -1.58540       -2.36280        0.96640
H         -2.16830       -2.58080       -1.56880
H         -1.99600       -4.31710       -1.36150
H         -0.60410       -3.26760       -1.10240
H         -4.22280       -9.48430       -1.99340
H         -3.07470      -11.30360       -3.15990
H          1.50660      -12.57320        1.33170
H         -1.29820      -14.21080       -0.64670
H         -0.57280      -16.37950       -1.92120
H          3.01010      -14.15950       -0.31400
H         -1.48920       -9.34780        3.40480
H         -2.48240       -8.43510        2.24870
H         -0.77100       -6.95330        3.26550
H         -0.35530       -7.19180        1.55980
H          0.50770       -8.08890        2.81260
H         -1.41420      -13.04280       -3.18850
H          4.12780      -10.37820       -1.85320
H          3.70760      -14.44980       -4.83570
H          6.96680      -14.00660       -3.86130
H          7.25040      -13.35910       -6.24810
H          5.31600      -11.69060       -6.80420
H          5.58180       -9.55810       -5.24280
H          7.68150       -9.91300       -3.72360
H          8.63360      -11.13170       -5.87300
H          8.90120      -12.19410       -4.46830
H          7.22360      -11.93330       -2.34200
