255

C         -5.22420       -8.21910       -5.85100
C         -4.66040       -8.28100       -7.10380
C         -4.22970       -7.14540       -7.92290
O         -4.48510       -5.96480       -7.75670
C         -3.40610       -7.71190       -9.00780
C         -2.73630       -7.01180      -10.00720
C         -2.02080       -7.81140      -10.86640
C         -1.98200       -9.20600      -10.74570
C         -2.64860       -9.91000       -9.77020
C         -3.37440       -9.11500       -8.88010
C         -4.20050       -9.49490       -7.73430
C         -4.47930      -10.78350       -7.34510
C         -3.88360      -11.93280       -7.89820
N         -3.41440      -12.91420       -8.26910
C         -5.41510      -11.14840       -6.35890
N         -6.19030      -11.53570       -5.60290
C         -1.06100       -9.36300      -11.92990
C          0.43620       -9.64100      -11.64690
C          0.73300       -9.05250      -10.29010
C          0.69630       -7.73170      -10.40470
C          0.37370       -7.40330      -11.84140
C          1.07420       -8.57340      -12.55020
C         -1.10460       -7.80830      -12.06490
C         -5.54370       -7.11990       -5.05400
C         -5.89110       -7.22840       -3.68450
N         -5.86070       -8.37570       -2.93340
C         -4.89250       -9.38030       -3.11870
C         -3.58140       -9.05150       -3.45710
C         -2.65670      -10.04980       -3.68760
C         -3.00040      -11.39150       -3.56170
C         -2.01260      -12.47530       -3.86410
C         -4.29610      -11.70620       -3.17070
C         -5.23800      -10.71930       -2.95700
C         -6.77610       -8.50550       -1.87170
C         -6.36870       -9.00700       -0.64000
C         -7.27970       -9.13290        0.39030
C         -8.60800       -8.76170        0.22440
C         -9.59200       -8.87630        1.34730
C         -9.00610       -8.26450       -1.01190
C         -8.10810       -8.13980       -2.05150
C         -6.24470       -5.97400       -3.15890
S         -6.63580       -5.40560       -1.56600
C         -6.69630       -3.75410       -2.16130
C         -6.38770       -3.65480       -3.50940
N         -6.26740       -2.47720       -4.22690
C         -6.66480       -2.47550       -5.57380
C         -7.79920       -3.17690       -5.97070
C         -8.16960       -3.20290       -7.30010
C         -7.43040       -2.52990       -8.26390
C         -7.81360       -2.59190       -9.71070
C         -6.30680       -1.82090       -7.85630
C         -5.92120       -1.79260       -6.53190
C         -5.69830       -1.33410       -3.65410
C         -6.18050       -0.06820       -3.98270
C         -5.67110        1.05380       -3.36300
C         -4.66420        0.95680       -2.40830
C         -4.14200        2.18560       -1.72840
C         -4.15070       -0.30160       -2.12710
C         -4.65040       -1.43390       -2.74210
C         -6.15270       -4.93300       -4.07270
S         -5.60300       -5.44850       -5.62490
C         -6.90760       -2.64670       -1.27470
C         -7.71980       -1.55050       -1.48580
C         -8.79850       -1.52980       -2.47040
C         -9.49300       -2.69810       -2.78340
C        -10.50590       -2.67210       -3.72150
C        -10.84150       -1.48950       -4.35830
C        -10.17660       -0.31220       -4.04490
C        -10.56470        0.99310       -4.67730
C        -11.47170        1.79040       -3.73810
C         -9.16700       -0.34320       -3.09500
C         -7.37290       -0.49170       -0.61430
S         -7.87890        1.17660       -0.49620
C         -6.64730        1.45600        0.68820
C         -6.00380        2.53660        1.31690
C         -6.13550        3.93360        1.15090
C         -5.10810        4.79980        1.66690
N         -5.30820        6.06730        1.34330
S         -6.67190        6.16950        0.47590
N         -7.05660        4.59580        0.46920
C         -4.06500        4.24380        2.43960
C         -2.93250        4.80410        3.06050
S         -2.09380        6.31750        3.14460
C         -0.84330        5.54740        4.09230
C          0.38460        6.00570        4.60910
C          0.83770        7.39520        4.51270
C          1.24980        8.08260        5.65140
C          1.62950        9.40670        5.55360
C          1.61900       10.04810        4.32650
C          1.22230        9.37310        3.18010
C          1.27680       10.04090        1.83740
C          2.62440        9.76250        1.16770
C          0.82170        8.04940        3.28690
C          1.06960        4.98670        5.24440
S          0.17480        3.47470        5.26030
C         -1.10210        4.20040        4.35270
C         -2.29400        3.77470        3.75620
N         -2.97860        2.59610        3.59130
C         -4.04280        2.85750        2.74470
C         -4.92780        1.98690        2.06470
N         -4.90350        0.61960        1.86790
C         -5.93190        0.30460        1.02120
C         -6.34310       -0.80490        0.27090
S         -5.80480       -2.43230        0.07460
C         -3.83980       -0.33080        2.10020
C         -4.24690       -1.41770        3.09380
C         -2.90240        1.56560        4.60480
C         -3.24780        2.11810        5.98750
C          2.42490        4.97940        5.68850
C          3.44670        5.77380        5.25400
C          4.71010        5.40020        5.76850
C          5.95970        5.93890        5.41850
C          6.07140        7.11850        4.55010
C          6.88550        7.07530        3.39850
C          7.00780        8.16990        2.59310
C          6.34600        9.37640        2.90350
C          6.46500       10.52920        2.10060
C          5.82610       11.68790        2.44410
C          5.04550       11.74830        3.60990
C          4.90610       10.64660        4.40600
C          5.54040        9.43190        4.07110
C          5.40780        8.27930        4.86750
C          7.07170        5.31100        5.94900
C          7.00160        4.22010        6.85490
C          5.74410        3.67420        7.20290
C          5.63190        2.52020        8.06350
C          6.41950        1.40010        8.11120
C          6.00130        0.45160        9.05660
C          4.88700        0.84700        9.74550
S          4.09170       -0.06830       10.99570
C          2.65550        1.01260       11.35350
C          1.76350        0.35500       12.38710
S          4.33360        2.40570        9.22310
C          4.63020        4.28620        6.63900
S          2.97950        3.74760        6.80520
C          8.28140        3.83710        7.30480
C          9.31080        4.57240        6.77000
S          8.71850        5.78230        5.64350
C         10.69100        4.31240        6.96230
C         11.76100        5.05200        6.57220
C         13.08400        4.39990        6.36870
O         13.43810        3.32480        6.79630
C         13.82530        5.31250        5.47540
C         15.05400        5.07770        4.86010
C         15.47790        6.10100        4.04680
C         14.73530        7.27360        3.84900
C         13.52580        7.52340        4.45220
C         13.08090        6.49720        5.28930
C         11.87650        6.41870        6.10950
C         11.15660        7.48180        6.58570
C         10.21270        7.35260        7.62750
N          9.49120        7.29510        8.51840
C         11.35570        8.81470        6.17710
N         11.47850        9.91360        5.86800
C         15.75680        7.85660        2.90480
C         16.67950        8.95190        3.48000
C         17.84720        8.98100        2.52040
C         18.55230        7.87300        2.70930
C         17.87320        7.07630        3.80000
C         17.32820        8.22160        4.66300
C         16.58660        6.55160        3.12800
H         -5.39890       -9.17320       -5.37110
H         -2.79610       -5.93610      -10.06530
H         -2.61160      -10.98390       -9.69240
H         -1.44330       -9.95750      -12.75740
H          0.74030      -10.67310      -11.79910
H          0.87640       -9.63920       -9.40160
H          0.80260       -6.99400       -9.63090
H          0.62160       -6.39760      -12.17120
H          0.79940       -8.67230      -13.59950
H          2.15850       -8.53490      -12.45600
H         -1.51550       -7.38800      -12.98100
H         -3.29820       -8.01370       -3.55660
H         -1.64790       -9.78080       -3.96670
H         -2.09290      -13.28440       -3.14130
H         -0.99520      -12.09170       -3.85560
H         -2.21210      -12.89200       -4.85240
H         -4.58230      -12.74100       -3.05930
H         -6.24880      -10.98150       -2.68660
H         -5.33730       -9.29270       -0.49550
H         -6.94910       -9.52150        1.34260
H         -9.79360       -7.89090        1.76810
H        -10.53570       -9.28560        0.99190
H         -9.20760       -9.51360        2.13940
H        -10.03710       -7.97960       -1.16340
H         -8.43290       -7.76820       -3.01250
H         -8.39030       -3.69560       -5.23080
H         -9.05080       -3.75540       -7.59270
H         -7.28460       -3.41310      -10.19560
H         -8.88130       -2.76480       -9.82420
H         -7.54700       -1.67070      -10.22410
H         -5.71530       -1.29330       -8.59070
H         -5.03610       -1.25070       -6.23290
H         -6.96960        0.01960       -4.71410
H         -6.07250        2.02620       -3.60960
H         -3.58280        1.93110       -0.83040
H         -3.47940        2.73500       -2.39780
H         -4.96070        2.84800       -1.45350
H         -3.34240       -0.40110       -1.41540
H         -4.23090       -2.40330       -2.51460
H         -9.24840       -3.62040       -2.27760
H        -11.04130       -3.58070       -3.95740
H        -11.62960       -1.48000       -5.09730
H         -9.66850        1.57950       -4.89140
H        -11.08620        0.80950       -5.61860
H        -10.95890        1.99400       -2.80080
H        -12.37630        1.22740       -3.51860
H        -11.75340        2.73690       -4.19350
H         -8.64680        0.56990       -2.85070
H          1.25470        7.57870        6.60670
H          1.92990        9.94360        6.44190
H          1.91670       11.08370        4.25530
H          0.47170        9.66470        1.20310
H          1.14830       11.11860        1.95290
H          2.76640        8.69250        1.03160
H          3.43880       10.13770        1.78320
H          2.67280       10.24540        0.19450
H          0.50350        7.51370        2.40400
H         -3.61100       -0.81150        1.14180
H         -2.94780        0.20330        2.42760
H         -3.39950       -2.06680        3.29480
H         -5.04990       -2.01980        2.67730
H         -4.59550       -0.99520        4.03360
H         -1.88810        1.15240        4.61570
H         -3.61460        0.78330        4.36110
H         -3.24180        1.30920        6.71300
H         -2.52590        2.86660        6.30120
H         -4.23720        2.57080        5.97490
H          3.31450        6.56560        4.53990
H          7.39360        6.15460        3.15120
H          7.62120        8.12770        1.70440
H          7.07530       10.48060        1.21010
H          5.92170       12.56770        1.82490
H          4.55950       12.67690        3.87210
H          4.31510       10.68660        5.30860
H          4.79320        8.32680        5.75550
H          7.24730        1.23720        7.44480
H          6.48910       -0.49020        9.22710
H          3.04660        1.96480       11.71390
H          2.12700        1.16920       10.41220
H          0.90930        0.99570       12.59500
H          1.40150       -0.60390       12.02360
H          2.30970        0.18930       13.31270
H          8.45230        3.06930        8.03710
H         10.92520        3.33570        7.37460
H         15.59320        4.15910        5.03050
H         12.95220        8.42100        4.28730
H         15.40130        8.08280        1.90120
H         16.18810        9.89920        3.68400
H         18.00370        9.75200        1.78890
H         19.41530        7.53350        2.16710
H         18.47130        6.31590        4.29500
H         16.62310        7.90430        5.42890
H         18.12420        8.80640        5.12090
H         16.78540        5.90790        2.27290
