261

C         -7.48190        2.92440       -8.79850
C         -7.84260        2.95300      -10.12600
C         -7.50260        1.95500      -11.14250
O         -6.72580        1.01980      -11.04410
C         -8.31240        2.28700      -12.33040
C         -8.35090        1.59920      -13.53990
C         -9.21430        2.13870      -14.46350
C         -9.98620        3.27690      -14.20070
C         -9.95480        3.96730      -13.01180
C         -9.08000        3.43740      -12.06050
C         -8.76610        3.89690      -10.70740
C         -9.25550        5.04130      -10.12330
C         -8.84820        5.56370       -8.88110
N         -8.54920        6.08320       -7.89940
C        -10.22100        5.88560      -10.70480
N        -11.02310        6.60740      -11.10020
C        -10.62060        3.26140      -15.56910
C        -10.10590        4.28090      -16.61470
C         -8.68130        4.60040      -16.23520
C         -7.94530        3.52570      -16.48460
C         -8.85900        2.46010      -17.03780
C         -9.86430        3.33580      -17.80260
C         -9.75620        1.99510      -15.86410
C         -6.65460        2.04530       -8.10200
C         -6.49080        2.08700       -6.69480
N         -7.20430        2.87120       -5.82500
C         -6.56120        3.32490       -4.65700
C         -5.26880        3.83930       -4.73150
C         -4.62780        4.26710       -3.58760
C         -5.25490        4.20370       -2.34800
C         -4.53490        4.65240       -1.11380
C         -6.55010        3.70580       -2.28700
C         -7.20110        3.26770       -3.42380
C         -8.57060        3.15490       -6.00000
C         -9.07870        4.39320       -5.61660
C        -10.41840        4.67530       -5.79610
C        -11.27910        3.74570       -6.36650
C        -12.71730        4.08600       -6.60790
C        -10.76590        2.50420       -6.72630
C         -9.43270        2.20170       -6.53840
C         -5.48550        1.19640       -6.28410
S         -4.81400        0.77570       -4.74190
C         -3.77210       -0.41220       -5.51070
C         -3.89600       -0.42460       -6.89370
N         -3.08950       -1.14780       -7.75220
C         -3.61780       -1.60400       -8.96990
C         -4.92300       -2.08420       -9.03460
C         -5.45340       -2.49230      -10.24040
C         -4.70300       -2.44120      -11.40850
C         -5.30910       -2.85260      -12.71490
C         -3.39550       -1.98040      -11.33170
C         -2.85430       -1.56230      -10.13200
C         -1.74050       -1.35910       -7.43630
C         -1.00030       -0.37900       -6.77900
C          0.29400       -0.63640       -6.37400
C          0.89120       -1.86680       -6.61520
C          2.25940       -2.18170       -6.09240
C          0.17260       -2.81170       -7.33860
C         -1.12080       -2.56540       -7.75250
C         -4.90570        0.47410       -7.32060
S         -5.60850        0.83700       -8.85580
C         -2.87160       -1.18720       -4.71250
C         -2.58210       -2.53450       -4.81420
C         -3.37170       -3.49180       -5.58570
C         -2.77310       -4.60650       -6.16630
C         -3.53520       -5.50410       -6.88980
C         -4.89800       -5.31470       -7.02760
C         -5.52100       -4.23000       -6.42220
C         -7.01230       -4.06590       -6.50410
C         -7.70360       -4.93380       -5.45110
C         -4.75020       -3.33010       -5.70490
C         -1.49350       -2.88020       -3.98240
S         -0.64450       -4.37850       -3.68970
C          0.33650       -3.57600       -2.50970
C          1.38560       -3.85940       -1.61500
C          2.16650       -5.01770       -1.41060
C          3.21900       -4.98570       -0.43160
N          3.89700       -6.12130       -0.38220
S          3.26710       -7.14390       -1.46860
N          2.10210       -6.17750       -2.04510
C          3.35600       -3.84380        0.38790
C          4.11080       -3.61670        1.55100
S          5.27970       -4.42860        2.53830
C          5.17870       -3.12190        3.69540
C          5.82130       -2.87770        4.92650
C          6.90210       -3.72200        5.43740
C          6.80630       -5.10840        5.37260
C          7.87360       -5.89230        5.76700
C          9.03940       -5.30680        6.22650
C          9.14900       -3.92370        6.31090
C         10.42680       -3.27930        6.76820
C         11.35730       -3.03660        5.57840
C          8.07720       -3.14410        5.91000
C          5.39410       -1.68820        5.49300
S          4.22800       -0.84800        4.48110
C          4.29710       -2.11360        3.30880
C          3.69580       -2.39010        2.07390
N          2.74490       -1.83360        1.26220
C          2.52730       -2.70130        0.20970
C          1.63640       -2.66220       -0.89230
N          0.80870       -1.66150       -1.38190
C          0.02120       -2.22680       -2.35470
C         -1.01090       -1.82350       -3.21170
S         -1.86860       -0.36100       -3.52990
C          1.07520       -0.24160       -1.46670
C          1.90130        0.08170       -2.71130
C          1.96940       -0.70450        1.71960
C          2.74310        0.60900        1.59470
C          5.72990       -1.20910        6.79840
C          5.98720        0.07590        7.24820
N          5.96190        1.24840        6.49560
C          4.76630        1.69890        5.93060
C          3.53050        1.29130        6.43250
C          2.36210        1.73320        5.84490
C          2.38680        2.59420        4.75510
C          1.10680        3.07850        4.14310
C          3.62200        3.00520        4.26800
C          4.79820        2.56720        4.84120
C          7.01230        2.15430        6.75490
C          8.32130        1.68310        6.77170
C          9.36250        2.53220        7.09320
C          9.12860        3.86600        7.40090
C         10.24700        4.79480        7.75270
C          7.81800        4.33120        7.36850
C          6.76930        3.49250        7.05240
C          6.36830        0.06940        8.61030
S          6.82560        1.32560        9.69650
C          6.97350        0.15560       11.01060
C          6.61860       -1.14560       10.60390
N          6.54260       -2.23790       11.42540
C          6.10630       -2.12450       12.76010
C          6.72250       -2.87220       13.75820
C          6.29920       -2.75730       15.06800
C          5.26060       -1.90190       15.41410
C          4.83390       -1.74520       16.83990
C          4.63980       -1.17290       14.40530
C          5.04800       -1.28250       13.09210
C          6.78150       -3.52010       10.89830
C          7.85400       -3.73560       10.03740
C          8.08500       -4.99550        9.52520
C          7.26010       -6.06550        9.84980
C          7.50070       -7.41700        9.25370
C          6.19970       -5.84250       10.71970
C          5.95840       -4.58780       11.24240
C          6.32950       -1.17430        9.22160
S          5.85420       -2.40210        8.09470
C          7.45960        0.55270       12.26050
C          7.92280        1.78450       12.61800
S          8.06040        3.20030       11.59700
C          8.75150        4.12210       12.91620
C          9.13800        5.42530       12.70540
C          9.69670        6.30010       13.65010
N         10.15370        7.06960       14.37150
C          8.98750        5.98390       11.42230
N          8.87990        6.44750       10.37720
N          8.84260        3.38600       14.05030
C          9.31350        3.87730       15.33080
C          8.22300        4.63970       16.07420
C          8.39800        2.06670       13.95730
O          8.42600        1.29480       14.89330
H         -7.92560        3.69200       -8.17770
H         -7.73960        0.72460      -13.69940
H        -10.55550        4.84190      -12.82590
H        -11.70360        3.15510      -15.59150
H        -10.76200        5.13190      -16.77650
H         -8.37550        5.52570      -15.78320
H         -6.90120        3.37350      -16.28220
H         -8.37900        1.65370      -17.58640
H         -9.41840        3.84020      -18.65860
H        -10.75750        2.79740      -18.11710
H        -10.27530        1.06370      -16.08340
H         -4.77740        3.90530       -5.69130
H         -3.62490        4.66250       -3.65670
H         -4.06700        5.62220       -1.27340
H         -3.74870        3.94040       -0.86200
H         -5.21540        4.72520       -0.26950
H         -7.05680        3.65080       -1.33450
H         -8.20470        2.87380       -3.36160
H         -8.41830        5.13470       -5.19560
H        -10.79590        5.64460       -5.50780
H        -13.32080        3.18690       -6.70760
H        -12.81150        4.66320       -7.52860
H        -13.11310        4.69090       -5.79520
H        -11.42130        1.75930       -7.15430
H         -9.05000        1.23100       -6.81830
H         -5.51440       -2.13810       -8.13410
H         -6.47090       -2.85330      -10.27720
H         -5.80660       -3.81690      -12.62380
H         -4.55380       -2.91860      -13.49390
H         -6.05560       -2.11920      -13.01860
H         -2.79260       -1.93150      -12.22730
H         -1.84120       -1.18930      -10.09170
H         -1.44620        0.58440       -6.57780
H          0.84780        0.13820       -5.86190
H          2.17930       -2.75890       -5.16950
H          2.81580       -1.27200       -5.87800
H          2.82040       -2.77840       -6.80820
H          0.62870       -3.76460       -7.56510
H         -1.67180       -3.31350       -8.30200
H         -1.71010       -4.75810       -6.06530
H         -3.06060       -6.35830       -7.35000
H         -5.48640       -6.01660       -7.60060
H         -7.36050       -4.35820       -7.49730
H         -7.28310       -3.02040       -6.34030
H         -7.45730       -5.98210       -5.60310
H         -7.37710       -4.64790       -4.45360
H         -8.78350       -4.81790       -5.51020
H         -5.23040       -2.49490       -5.21470
H          5.89650       -5.56690        5.01680
H          7.79960       -6.96810        5.70430
H          9.87550       -5.92750        6.51750
H         10.20760       -2.32610        7.25440
H         10.93150       -3.92280        7.49220
H         12.28400       -2.57200        5.90730
H         10.87930       -2.38380        4.85140
H         11.59520       -3.97730        5.08690
H          8.15960       -2.06630        5.94280
H          1.61370        0.09450       -0.58890
H          0.11090        0.27330       -1.51780
H          1.37130       -0.22800       -3.60790
H          2.85660       -0.43880       -2.67450
H          2.08550        1.15140       -2.76410
H          1.02520       -0.67970        1.17400
H          1.73680       -0.86740        2.77830
H          3.54710        0.64010        2.32500
H          2.08060        1.44760        1.78600
H          3.18290        0.72060        0.60580
H          3.49160        0.63100        7.28670
H          1.41220        1.40940        6.24560
H          0.59450        3.75330        4.82880
H          0.43720        2.24410        3.93900
H          1.29570        3.61570        3.21670
H          3.66560        3.67630        3.42200
H          5.75150        2.89000        4.45030
H          8.51470        0.64440        6.54220
H         10.37280        2.14850        7.10860
H          9.95580        5.43760        8.58130
H         11.14370        4.24310        8.02470
H         10.48390        5.43500        6.90260
H          7.61970        5.36170        7.62150
H          5.75470        3.86260        7.05510
H          7.53670       -3.53330       13.50090
H          6.79270       -3.33480       15.83560
H          3.76070       -1.58170       16.90900
H          5.09830       -2.62210       17.42520
H          5.33460       -0.88160       17.27850
H          3.82080       -0.51330       14.65250
H          4.55520       -0.71400       12.31700
H          8.50920       -2.91550        9.78260
H          8.92060       -5.15200        8.86170
H          7.06010       -7.45950        8.25740
H          7.04990       -8.19850        9.86030
H          8.56600       -7.61300        9.15600
H          5.54790       -6.66110       10.98830
H          5.12840       -4.42570       11.91420
H          7.50820       -0.19040       13.04660
H          9.59650        2.98780       15.90100
H         10.19240        4.50580       15.17730
H          7.35840        3.99820       16.22990
H          7.91610        5.52340       15.51970
H          8.60220        4.95810       17.04050
