224

C          0.06220        4.84590        8.35090
C          0.46210        4.38660        9.56510
C          1.39630        5.21140       10.38150
O          1.75460        6.34270       10.14230
C          1.81280        4.34450       11.49820
C          2.79410        4.61030       12.45230
C          2.97730        3.59800       13.36280
C          2.23010        2.41220       13.33740
C          1.25330        2.14160       12.41050
C          1.06340        3.15150       11.46340
C          0.14400        3.20210       10.32820
C         -0.96370        2.40880       10.17920
C         -1.34070        1.40360       11.09380
N         -1.72080        0.59380       11.81420
C         -1.92040        2.53380        9.15350
N         -2.75800        2.57150        8.36800
C          2.95560        1.83450       14.52710
C          4.02300        0.76200       14.22400
C          4.87930        0.73900       15.46940
C          5.58780        1.86060       15.49210
C          5.22240        2.66000       14.26230
C          4.96050        1.51700       13.27280
C          3.78970        3.15540       14.55510
C         -0.46510        4.13330        7.24110
C          0.00910        2.97190        6.64040
N          1.16890        2.28390        7.01280
C          2.22160        2.28470        6.09020
C          3.07690        1.19350        5.95880
C          4.10990        1.22500        5.04250
C          4.31540        2.32690        4.22360
C          5.43570        2.36440        3.22910
C          3.45330        3.40980        4.35500
C          2.42520        3.39780        5.27410
C          1.13180        1.33810        8.05020
C          2.19320        1.24120        8.94510
C          2.15880        0.30520        9.96050
C          1.07150       -0.54690       10.11430
C          1.00870       -1.54380       11.22880
C          0.01770       -0.44470        9.21260
C          0.04240        0.48310        8.18900
C         -0.70590        2.69190        5.45770
S         -0.61160        1.42160        4.29310
C         -2.01940        2.06960        3.46390
C         -2.47840        3.25680        4.01960
N         -3.49340        4.03750        3.50160
C         -3.69050        4.09470        2.11340
C         -4.97590        4.10100        1.57780
C         -5.15890        4.05880        0.21100
C         -4.07630        4.03120       -0.66100
C         -4.29110        3.90900       -2.13840
C         -2.79920        4.10060       -0.12050
C         -2.60200        4.12930        1.24600
C         -4.33660        4.75240        4.36700
C         -4.68120        4.23820        5.61400
C         -5.50590        4.95530        6.45660
C         -6.01500        6.19310        6.08430
C         -6.93190        6.94870        6.99710
C         -5.66590        6.69910        4.83820
C         -4.83350        5.99720        3.98930
C         -1.72200        3.59050        5.16920
S         -1.76260        4.87610        6.31850
C         -2.56300        1.38950        2.32630
C         -3.89290        1.11330        2.07220
C         -4.95250        1.20050        3.07580
C         -6.26180        1.50280        2.70920
C         -7.24980        1.58030        3.67190
C         -6.95330        1.34620        5.00280
C         -5.66150        1.00890        5.38650
C         -5.33910        0.68870        6.81820
C         -5.39270       -0.82150        7.05550
C         -4.67610        0.93290        4.41470
C         -4.06170        0.63480        0.75280
S         -5.46550        0.19120       -0.18540
C         -4.43370       -0.22460       -1.51210
C         -4.52950       -0.69940       -2.83410
C         -5.61360       -0.90800       -3.71770
C         -5.34730       -1.25830       -5.09120
N         -6.45380       -1.33760       -5.81210
S         -7.71950       -1.01190       -4.85660
N         -6.90600       -0.75110       -3.48140
C         -4.01960       -1.53980       -5.48840
C         -3.44740       -2.03860       -6.67250
S         -3.90550       -2.42570       -8.29750
C         -2.26130       -2.94670       -8.61030
C         -1.61820       -3.42620       -9.76090
C         -2.31000       -3.48230      -11.05230
C         -3.53650       -4.12880      -11.16630
C         -4.19410       -4.14440      -12.38260
C         -3.64100       -3.51740      -13.48530
C         -2.42730       -2.84760      -13.38330
C         -1.78830       -2.20770      -14.58180
C         -0.72540       -3.13700      -15.17300
C         -1.77690       -2.82850      -12.15970
C         -0.27820       -3.72040       -9.51140
S          0.19840       -3.31470       -7.86880
C         -1.42120       -2.82660       -7.50090
C         -2.09600       -2.29310       -6.40210
N         -1.79780       -1.94120       -5.10880
C         -2.95860       -1.44570       -4.54900
C         -3.19640       -0.85760       -3.29000
N         -2.31740       -0.42060       -2.31480
C         -3.07570       -0.03840       -1.23590
C         -2.86790        0.47710        0.04980
S         -1.50510        0.96160        0.99130
C         -1.00920        0.15880       -2.54120
C         -1.09260        1.68100       -2.63490
C         -0.70020       -2.57540       -4.40780
C         -0.83500       -4.09780       -4.42900
C          0.69020       -4.32810      -10.36530
C          0.40180       -4.91240      -11.59750
C          1.39700       -5.41330      -12.41500
C          2.74770       -5.40620      -12.06990
C          3.07860       -4.90790      -10.77530
N          4.33730       -4.95070      -10.31230
C          4.61630       -4.50230       -9.11000
C          6.00300       -4.66830       -8.65730
C          7.04610       -4.40870       -9.54290
C          8.35840       -4.57030       -9.14080
C          8.64200       -5.00580       -7.85680
C          7.60790       -5.28730       -6.97850
C          6.29380       -5.12000       -7.37210
C          3.59910       -3.91890       -8.29820
N          2.36230       -3.89960       -8.73640
C          2.05390       -4.38150       -9.94390
C          3.85980       -3.30140       -6.99250
C          3.00820       -3.56340       -5.92260
C          3.23800       -2.97760       -4.69210
C          4.30930       -2.11630       -4.52030
C          5.15010       -1.83970       -5.58610
C          4.93150       -2.42910       -6.81680
C          3.73450       -5.89780      -12.98280
C          5.08470       -6.13360      -12.77510
C          5.74270       -6.61110      -13.89660
C          4.91570       -6.75250      -15.00490
C          5.31630       -7.21480      -16.28440
C          4.52130       -7.36810      -17.40280
C          5.06570       -7.84190      -18.61420
N          5.49190       -8.22530      -19.60770
C          3.14660       -7.07780      -17.44930
N          2.02350       -6.85410      -17.53920
C          6.68910       -7.55170      -16.42170
N          7.79780       -7.81930      -16.52710
S          3.28420       -6.28090      -14.61880
H          0.23260        5.90710        8.18490
H          3.33970        5.54080       12.44190
H          0.69040        1.22430       12.39790
H          2.33750        1.58950       15.38850
H          3.62630       -0.19240       13.88740
H          4.84070       -0.03840       16.20970
H          6.25950        2.20710       16.25530
H          5.91980        3.43580       13.95800
H          4.48990        1.83610       12.34430
H          5.86380        0.95150       13.04900
H          3.73060        3.79080       15.43650
H          2.92500        0.31560        6.56840
H          4.76100        0.36680        4.95680
H          6.17760        3.10670        3.52370
H          5.06350        2.64010        2.24360
H          5.92660        1.39690        3.15980
H          3.59430        4.28050        3.73070
H          1.77710        4.25680        5.36680
H          3.03980        1.90320        8.83440
H          2.98830        0.24220       10.65060
H          0.11430       -1.37330       11.82800
H          0.95180       -2.55650       10.83160
H          1.88420       -1.46990       11.86920
H         -0.83330       -1.10210        9.31510
H         -0.77720        0.54370        7.48810
H         -5.82510        4.11560        2.24370
H         -6.16210        4.03160       -0.18900
H         -3.39730        4.19320       -2.68820
H         -5.11860        4.53600       -2.46220
H         -4.53800        2.87720       -2.39330
H         -1.94060        4.13690       -0.77620
H         -1.59930        4.17220        1.64640
H         -4.30950        3.27540        5.92320
H         -5.75800        4.53990        7.42100
H         -6.95730        8.00420        6.73720
H         -6.61380        6.84720        8.03250
H         -7.94600        6.55510        6.91860
H         -6.04270        7.66360        4.52890
H         -4.56130        6.41220        3.02990
H         -6.50010        1.69160        1.67420
H         -8.26030        1.82680        3.38040
H         -7.73090        1.41700        5.74940
H         -6.05720        1.18210        7.47550
H         -4.34270        1.05540        7.07340
H         -5.15620       -1.04980        8.09210
H         -6.38570       -1.20600        6.83170
H         -4.67710       -1.33250        6.41480
H         -3.67580        0.64580        4.70510
H         -3.96080       -4.62880      -10.30870
H         -5.14280       -4.65230      -12.47110
H         -4.15700       -3.54270      -14.43400
H         -1.31980       -1.26470      -14.29160
H         -2.54520       -1.99520      -15.33860
H         -1.17200       -4.08230      -15.47260
H         -0.26470       -2.68170      -16.04620
H          0.05100       -3.34250      -14.43870
H         -0.83730       -2.30260      -12.06010
H         -0.60370       -0.22180       -3.47660
H         -0.35360       -0.12640       -1.71200
H         -1.47160        2.10010       -1.70780
H         -0.10400        2.08960       -2.82600
H         -1.75550        1.96970       -3.44800
H          0.23930       -2.28060       -4.88770
H         -0.70490       -2.24690       -3.36980
H         -0.78040       -4.47880       -5.44440
H         -1.78610       -4.39640       -3.99330
H         -0.03110       -4.54230       -3.84840
H         -0.61990       -4.97880      -11.93110
H          1.11060       -5.83550      -13.36830
H          6.81380       -4.06640      -10.54050
H          9.16180       -4.35830       -9.83050
H          9.66720       -5.13230       -7.54260
H          7.82620       -5.64150       -5.98200
H          5.49100       -5.35800       -6.68990
H          2.17740       -4.23650       -6.06620
H          2.58150       -3.19430       -3.86180
H          4.48740       -1.65900       -3.55840
H          5.98040       -1.16140       -5.45800
H          5.58200       -2.20130       -7.64850
H          5.54830       -5.96430      -11.82160
H          6.79050       -6.85550      -13.92430
