215

C         -6.50020        5.29340        1.50460
C         -7.87000        5.18870        1.59630
C         -8.63590        4.01480        1.14830
O         -8.20540        3.01420        0.60440
C        -10.01940        4.23560        1.62050
C        -11.10830        3.38660        1.45390
C        -12.27650        3.85890        2.00450
C        -12.35390        5.08190        2.68090
C        -11.28410        5.92880        2.85440
C        -10.09040        5.46940        2.29540
C         -8.76790        6.09030        2.26120
C         -8.46900        7.37570        2.64410
C         -7.20900        7.97860        2.46220
N         -6.21970        8.54440        2.31660
C         -9.39810        8.28030        3.18840
N        -10.11170        9.07020        3.62200
C        -13.82030        4.91000        2.99070
C        -14.21000        4.47930        4.42630
C        -13.03300        3.71580        4.98030
C        -12.96140        2.55870        4.33610
C        -14.08910        2.51910        3.33470
C        -15.15860        3.31470        4.09990
C        -13.73530        3.54780        2.23240
C         -5.68440        4.62690        0.58470
C         -5.95190        4.11550       -0.70170
N         -7.08970        4.31200       -1.43220
C         -7.92620        5.41940       -1.22410
C         -7.39450        6.68520       -0.98280
C         -8.23010        7.75400       -0.73730
C         -9.61440        7.59950       -0.72550
C        -10.50640        8.75550       -0.39890
C        -10.13710        6.34470       -1.00890
C         -9.31040        5.26540       -1.25920
C         -7.44540        3.38780       -2.43500
C         -7.93140        3.84190       -3.65590
C         -8.27130        2.93710       -4.64350
C         -8.13100        1.57050       -4.44280
C         -8.47530        0.58710       -5.51900
C         -7.66580        1.12720       -3.20870
C         -7.33060        2.01840       -2.21040
C         -4.81140        3.44920       -1.21110
S         -4.45180        2.64500       -2.70170
C         -2.81590        2.31120       -2.16460
C         -2.54900        2.86070       -0.91700
N         -1.33380        2.83350       -0.24990
C         -1.35760        2.69060        1.14910
C         -0.49370        3.43180        1.95010
C         -0.53600        3.29510        3.32260
C         -1.43770        2.42970        3.93240
C         -1.49900        2.31660        5.42470
C         -2.29360        1.69210        3.12470
C         -2.25470        1.81200        1.74960
C         -0.11070        2.89650       -0.92720
C          0.03060        3.64220       -2.09610
C          1.22050        3.61780       -2.79530
C          2.29950        2.85440       -2.36460
C          3.55770        2.79050       -3.17460
C          2.16740        2.15310       -1.17330
C          0.98590        2.17270       -0.45910
C         -3.69590        3.49910       -0.38850
S         -3.99490        4.38960        1.05580
C         -1.87810        1.51950       -2.90940
C         -1.34360        1.69190       -4.16930
C         -1.83470        2.61780       -5.19070
C         -0.94220        3.45350       -5.85630
C         -1.40030        4.31470       -6.83460
C         -2.74600        4.35810       -7.15090
C         -3.65120        3.52660       -6.50220
C         -5.11800        3.62480       -6.80700
C         -5.70050        4.87720       -6.15080
C         -3.18190        2.65040       -5.53640
C         -0.18170        0.90410       -4.33870
S          1.01100        0.82220       -5.61370
C          1.95880       -0.24230       -4.62970
C          3.22620       -0.84360       -4.62450
C          4.27300       -0.76730       -5.56690
C          5.52160       -1.40030       -5.26510
N          6.42740       -1.21550       -6.21290
S          5.76120       -0.32150       -7.38800
N          4.29360       -0.13400       -6.72980
C          5.63830       -2.13440       -4.06580
C          6.70480       -2.89960       -3.57320
S          8.31740       -3.34550       -4.01630
C          8.41730       -4.32210       -2.56880
C          9.43350       -5.14340       -2.04950
C         10.68100       -5.39870       -2.77270
C         11.09610       -6.70410       -3.02610
C         12.24400       -6.92820       -3.76140
C         12.98270       -5.86200       -4.24550
C         12.57600       -4.55450       -4.01150
C         13.39450       -3.39500       -4.50100
C         14.41630       -2.97970       -3.44050
C         11.42010       -4.33460       -3.27700
C          9.04940       -5.70970       -0.84120
S          7.40870       -5.26710       -0.38630
C          7.24970       -4.28840       -1.79870
C          6.27030       -3.47510       -2.37720
N          4.98090       -3.09750       -2.11770
C          4.56550       -2.25180       -3.13160
C          3.36110       -1.53540       -3.38370
N          2.20390       -1.31850       -2.65460
C          1.36400       -0.54700       -3.40610
C          0.13760        0.10930       -3.24110
S         -1.03740        0.27130       -1.99060
C          1.83670       -1.59040       -1.28510
C          0.82290       -2.73020       -1.18560
C          4.28500       -3.72780       -1.02070
C          4.65160       -3.09830        0.32390
C          9.79680       -6.49020        0.07550
C         11.15920       -6.77560        0.11070
N         11.57460       -7.48960        1.14320
C         10.61850       -7.83880        1.95770
S          9.04090       -7.19850        1.46340
C         10.84530       -8.51810        3.17420
C          9.94860       -9.04130        4.05130
C         10.33730       -9.23360        5.47740
O         11.45940       -9.26690        5.92640
C          9.06080       -9.29920        6.21670
C          8.88660       -9.31940        7.59970
C          7.57160       -9.34170        7.99830
C          6.50180       -9.34270        7.09220
C          6.65640       -9.33500        5.72640
C          7.98720       -9.31440        5.30110
C          8.53490       -9.33530        3.94760
C          7.89440       -9.82110        2.83850
C          6.53200      -10.17680        2.80490
N          5.42300      -10.46070        2.71620
C          8.55970      -10.10450        1.62670
N          9.07000      -10.39660        0.64100
C          5.46710       -9.34700        8.18950
C          4.77040       -8.00200        8.48580
C          4.19620       -8.18960        9.87150
C          5.20780       -8.19240       10.73020
C          6.48260       -8.00600        9.93930
C          5.96550       -7.09820        8.81590
C          6.65880       -9.34950        9.19980
H         -5.97920        5.90730        2.22990
H        -11.00700        2.44950        0.92830
H        -11.35430        6.86380        3.38540
H        -14.48560        5.67440        2.59340
H        -14.59740        5.28160        5.04860
H        -12.35920        4.10770        5.71960
H        -12.21550        1.79120        4.42930
H        -14.36700        1.53600        2.96310
H        -16.00710        3.60640        3.48220
H        -15.51250        2.79690        4.99020
H        -14.34460        3.42410        1.33890
H         -6.32420        6.82830       -0.98320
H         -7.80080        8.72600       -0.54380
H        -11.51020        8.59440       -0.78420
H        -10.57600        8.88090        0.68260
H        -10.10900        9.67960       -0.81290
H        -11.20810        6.20220       -1.01950
H         -9.73160        4.29470       -1.47350
H         -8.03930        4.90310       -3.82680
H         -8.64730        3.30150       -5.58840
H         -7.59290        0.01490       -5.80430
H         -8.86040        1.09220       -6.40100
H         -9.22610       -0.11820       -5.16520
H         -7.57360        0.06630       -3.02680
H         -7.00940        1.66930       -1.24190
H          0.20380        4.11530        1.48880
H          0.13630        3.87960        3.93410
H         -0.51010        2.42780        5.86390
H         -2.13610        3.10340        5.83010
H         -1.91470        1.35790        5.72570
H         -2.99840        1.00910        3.57660
H         -2.91750        1.22210        1.13290
H         -0.79700        4.23500       -2.45730
H          1.31370        4.20270       -3.69840
H          4.30960        2.17970       -2.68040
H          3.96520        3.78860       -3.32940
H          3.35580        2.35930       -4.15510
H          2.99930        1.56940       -0.80400
H          0.89260        1.60470        0.45540
H          0.10530        3.42980       -5.60120
H         -0.70320        4.95790       -7.35120
H         -3.09830        5.03640       -7.91480
H         -5.26960        3.67900       -7.88750
H         -5.64030        2.74520       -6.42690
H         -5.18140        5.76710       -6.49960
H         -6.75640        4.97690       -6.38800
H         -5.59170        4.81480       -5.07040
H         -3.86800        1.96180       -5.06490
H         10.51080       -7.53390       -2.65880
H         12.56220       -7.94060       -3.96010
H         13.88010       -6.04620       -4.81830
H         13.91900       -3.67340       -5.41690
H         12.74060       -2.54980       -4.72370
H         15.01080       -2.14030       -3.79330
H         15.08450       -3.80750       -3.21350
H         13.91180       -2.68650       -2.52250
H         11.09340       -3.32280       -3.08450
H          1.37380       -0.67930       -0.89070
H          2.72770       -1.78740       -0.69740
H          0.63360       -2.96600       -0.14220
H          1.17570       -3.62630       -1.69240
H         -0.11530       -2.43210       -1.64620
H          3.21480       -3.70090       -1.20390
H          4.58980       -4.78000       -1.00390
H          5.69440       -3.29630        0.55670
H          4.51120       -2.01930        0.31280
H          4.03740       -3.52660        1.11100
H         11.87150       -6.44100       -0.62020
H         11.88350       -8.52640        3.48990
H          9.73530       -9.31940        8.26540
H          5.82970       -9.33250        5.03500
H          4.78050      -10.19130        8.19030
H          4.08460       -7.66470        7.71320
H          3.15340       -8.35210       10.07190
H          5.17870       -8.35740       11.79120
H          7.35650       -7.67160       10.49170
H          5.65390       -6.12270        9.18590
H          6.66530       -6.96870        7.99230
H          6.76720      -10.19630        9.87470
