
  xtb     02092201453D
 energy: -425.371883949861 gnorm: 0.000543595545 xtb: 6.4.1 (unknown)
262290  0     0  0            999 V2000
  -11.2418    3.0362    0.7072 C   0  0  0  0  0  0  0  0  0  0  0  0
  -11.9197    2.6719   -0.4358 C   0  0  0  0  0  0  0  0  0  0  0  0
  -11.5194    1.6428   -1.3967 C   0  0  0  0  0  0  0  0  0  0  0  0
  -10.6196    0.8250   -1.2939 O   0  0  0  0  0  0  0  0  0  0  0  0
  -12.4187    1.7882   -2.5564 C   0  0  0  0  0  0  0  0  0  0  0  0
  -12.4021    1.0377   -3.7283 C   0  0  0  0  0  0  0  0  0  0  0  0
  -13.3566    1.4102   -4.6443 C   0  0  0  0  0  0  0  0  0  0  0  0
  -14.2647    2.4493   -4.4076 C   0  0  0  0  0  0  0  0  0  0  0  0
  -14.2978    3.1905   -3.2493 C   0  0  0  0  0  0  0  0  0  0  0  0
  -13.3306    2.8323   -2.3072 C   0  0  0  0  0  0  0  0  0  0  0  0
  -13.0644    3.3685   -0.9713 C   0  0  0  0  0  0  0  0  0  0  0  0
  -13.8012    4.3494   -0.3501 C   0  0  0  0  0  0  0  0  0  0  0  0
  -13.6533    4.7591    0.9883 C   0  0  0  0  0  0  0  0  0  0  0  0
  -13.6344    5.1291    2.0772 N   0  0  0  0  0  0  0  0  0  0  0  0
  -14.8420    5.0740   -0.9620 C   0  0  0  0  0  0  0  0  0  0  0  0
  -15.6818    5.7240   -1.4013 N   0  0  0  0  0  0  0  0  0  0  0  0
  -14.9261    2.2844   -5.7536 C   0  0  0  0  0  0  0  0  0  0  0  0
  -14.5729    3.3062   -6.8625 C   0  0  0  0  0  0  0  0  0  0  0  0
  -13.1913    3.8220   -6.5463 C   0  0  0  0  0  0  0  0  0  0  0  0
  -12.3307    2.8377   -6.7694 C   0  0  0  0  0  0  0  0  0  0  0  0
  -13.1153    1.6385   -7.2408 C   0  0  0  0  0  0  0  0  0  0  0  0
  -14.2445    2.3399   -8.0121 C   0  0  0  0  0  0  0  0  0  0  0  0
  -13.9137    1.1254   -6.0167 C   0  0  0  0  0  0  0  0  0  0  0  0
  -10.0893    2.5060    1.2829 C   0  0  0  0  0  0  0  0  0  0  0  0
   -9.4211    3.0935    2.3894 C   0  0  0  0  0  0  0  0  0  0  0  0
   -9.7099    4.3155    2.9397 N   0  0  0  0  0  0  0  0  0  0  0  0
  -10.1258    5.4099    2.1569 C   0  0  0  0  0  0  0  0  0  0  0  0
  -11.0580    6.3141    2.6593 C   0  0  0  0  0  0  0  0  0  0  0  0
  -11.4719    7.3798    1.8855 C   0  0  0  0  0  0  0  0  0  0  0  0
  -10.9837    7.5669    0.5977 C   0  0  0  0  0  0  0  0  0  0  0  0
  -11.4841    8.6984   -0.2459 C   0  0  0  0  0  0  0  0  0  0  0  0
  -10.0371    6.6709    0.1141 C   0  0  0  0  0  0  0  0  0  0  0  0
   -9.6004    5.6107    0.8825 C   0  0  0  0  0  0  0  0  0  0  0  0
   -9.4746    4.5206    4.3117 C   0  0  0  0  0  0  0  0  0  0  0  0
   -8.9115    5.7116    4.7628 C   0  0  0  0  0  0  0  0  0  0  0  0
   -8.7334    5.9236    6.1140 C   0  0  0  0  0  0  0  0  0  0  0  0
   -9.0989    4.9603    7.0483 C   0  0  0  0  0  0  0  0  0  0  0  0
   -8.9603    5.2332    8.5138 C   0  0  0  0  0  0  0  0  0  0  0  0
   -9.6313    3.7637    6.5873 C   0  0  0  0  0  0  0  0  0  0  0  0
   -9.8249    3.5424    5.2380 C   0  0  0  0  0  0  0  0  0  0  0  0
   -8.3680    2.2762    2.8295 C   0  0  0  0  0  0  0  0  0  0  0  0
   -7.1613    2.4206    4.0712 S   0  0  0  0  0  0  0  0  0  0  0  0
   -6.3834    0.9480    3.5058 C   0  0  0  0  0  0  0  0  0  0  0  0
   -7.0871    0.3447    2.4702 C   0  0  0  0  0  0  0  0  0  0  0  0
   -6.7686   -0.8786    1.8981 N   0  0  0  0  0  0  0  0  0  0  0  0
   -7.0275   -1.0203    0.5218 C   0  0  0  0  0  0  0  0  0  0  0  0
   -7.7335   -2.1104    0.0259 C   0  0  0  0  0  0  0  0  0  0  0  0
   -8.0401   -2.1791   -1.3185 C   0  0  0  0  0  0  0  0  0  0  0  0
   -7.6600   -1.1713   -2.1950 C   0  0  0  0  0  0  0  0  0  0  0  0
   -8.0587   -1.2089   -3.6375 C   0  0  0  0  0  0  0  0  0  0  0  0
   -6.9313   -0.0993   -1.6947 C   0  0  0  0  0  0  0  0  0  0  0  0
   -6.6125   -0.0216   -0.3548 C   0  0  0  0  0  0  0  0  0  0  0  0
   -6.4742   -1.9911    2.6898 C   0  0  0  0  0  0  0  0  0  0  0  0
   -5.6867   -3.0202    2.1760 C   0  0  0  0  0  0  0  0  0  0  0  0
   -5.3714   -4.1142    2.9573 C   0  0  0  0  0  0  0  0  0  0  0  0
   -5.8199   -4.2156    4.2678 C   0  0  0  0  0  0  0  0  0  0  0  0
   -5.4541   -5.3854    5.1297 C   0  0  0  0  0  0  0  0  0  0  0  0
   -6.6120   -3.1898    4.7708 C   0  0  0  0  0  0  0  0  0  0  0  0
   -6.9378   -2.0925    4.0004 C   0  0  0  0  0  0  0  0  0  0  0  0
   -8.2007    1.1202    2.0768 C   0  0  0  0  0  0  0  0  0  0  0  0
   -9.3289    0.9935    0.7785 S   0  0  0  0  0  0  0  0  0  0  0  0
   -5.1094    0.5459    4.0006 C   0  0  0  0  0  0  0  0  0  0  0  0
   -4.5291    0.7614    5.2339 C   0  0  0  0  0  0  0  0  0  0  0  0
   -5.1738    1.4300    6.3780 C   0  0  0  0  0  0  0  0  0  0  0  0
   -5.2727    2.8153    6.3811 C   0  0  0  0  0  0  0  0  0  0  0  0
   -5.8382    3.4751    7.4557 C   0  0  0  0  0  0  0  0  0  0  0  0
   -6.2961    2.7442    8.5356 C   0  0  0  0  0  0  0  0  0  0  0  0
   -6.1910    1.3641    8.5388 C   0  0  0  0  0  0  0  0  0  0  0  0
   -5.6303    0.6827    7.4681 C   0  0  0  0  0  0  0  0  0  0  0  0
   -5.4717   -0.8152    7.4554 C   0  0  0  0  0  0  0  0  0  0  0  0
   -6.4326   -1.5739    8.3636 C   0  0  0  0  0  0  0  0  0  0  0  0
   -3.2166    0.2548    5.2823 C   0  0  0  0  0  0  0  0  0  0  0  0
   -1.9928    0.2431    6.5312 S   0  0  0  0  0  0  0  0  0  0  0  0
   -0.8947   -0.5125    5.4212 C   0  0  0  0  0  0  0  0  0  0  0  0
    0.4421   -0.9518    5.3636 C   0  0  0  0  0  0  0  0  0  0  0  0
    1.4671   -1.0479    6.3311 C   0  0  0  0  0  0  0  0  0  0  0  0
    2.7517   -1.5711    5.9437 C   0  0  0  0  0  0  0  0  0  0  0  0
    3.5934   -1.6440    6.9620 N   0  0  0  0  0  0  0  0  0  0  0  0
    2.8437   -1.1017    8.2910 S   0  0  0  0  0  0  0  0  0  0  0  0
    1.4132   -0.7490    7.6191 N   0  0  0  0  0  0  0  0  0  0  0  0
    2.9990   -1.8523    4.5806 C   0  0  0  0  0  0  0  0  0  0  0  0
    4.1838   -2.1162    3.8714 C   0  0  0  0  0  0  0  0  0  0  0  0
    5.8820   -2.2976    4.1757 S   0  0  0  0  0  0  0  0  0  0  0  0
    6.1677   -2.2807    2.4508 C   0  0  0  0  0  0  0  0  0  0  0  0
    7.3445   -2.2464    1.6849 C   0  0  0  0  0  0  0  0  0  0  0  0
    8.6861   -2.3919    2.2794 C   0  0  0  0  0  0  0  0  0  0  0  0
    9.3835   -1.3044    2.8015 C   0  0  0  0  0  0  0  0  0  0  0  0
    8.8649    0.0997    2.6684 C   0  0  0  0  0  0  0  0  0  0  0  0
    9.6820    0.8748    1.6335 C   0  0  0  0  0  0  0  0  0  0  0  0
   10.6035   -1.5366    3.4227 C   0  0  0  0  0  0  0  0  0  0  0  0
   11.1300   -2.8103    3.5168 C   0  0  0  0  0  0  0  0  0  0  0  0
   10.4396   -3.8838    2.9819 C   0  0  0  0  0  0  0  0  0  0  0  0
    9.2179   -3.6746    2.3744 C   0  0  0  0  0  0  0  0  0  0  0  0
    7.0709   -2.0814    0.3385 C   0  0  0  0  0  0  0  0  0  0  0  0
    5.3415   -2.1105    0.0116 S   0  0  0  0  0  0  0  0  0  0  0  0
    4.9949   -2.1808    1.6983 C   0  0  0  0  0  0  0  0  0  0  0  0
    3.8598   -2.0896    2.5106 C   0  0  0  0  0  0  0  0  0  0  0  0
    2.5196   -1.8543    2.3497 N   0  0  0  0  0  0  0  0  0  0  0  0
    1.9703   -1.7128    3.6100 C   0  0  0  0  0  0  0  0  0  0  0  0
    0.6578   -1.4001    4.0333 C   0  0  0  0  0  0  0  0  0  0  0  0
   -0.5287   -1.3105    3.3252 N   0  0  0  0  0  0  0  0  0  0  0  0
   -1.4585   -0.7530    4.1657 C   0  0  0  0  0  0  0  0  0  0  0  0
   -2.7869   -0.3231    4.0881 C   0  0  0  0  0  0  0  0  0  0  0  0
   -4.0171   -0.2747    2.8821 S   0  0  0  0  0  0  0  0  0  0  0  0
   -0.9617   -2.1673    2.2423 C   0  0  0  0  0  0  0  0  0  0  0  0
   -1.8330   -3.3138    2.7551 C   0  0  0  0  0  0  0  0  0  0  0  0
    2.0127   -1.3826    1.0783 C   0  0  0  0  0  0  0  0  0  0  0  0
    1.8762   -2.5056    0.0520 C   0  0  0  0  0  0  0  0  0  0  0  0
    7.9926   -1.8877   -0.7251 C   0  0  0  0  0  0  0  0  0  0  0  0
    7.7650   -1.3087   -1.9737 C   0  0  0  0  0  0  0  0  0  0  0  0
    6.5992   -0.6950   -2.4077 N   0  0  0  0  0  0  0  0  0  0  0  0
    5.8717    0.1827   -1.6054 C   0  0  0  0  0  0  0  0  0  0  0  0
    6.4629    0.8507   -0.5327 C   0  0  0  0  0  0  0  0  0  0  0  0
    5.6966    1.6203    0.3171 C   0  0  0  0  0  0  0  0  0  0  0  0
    4.3286    1.7724    0.1167 C   0  0  0  0  0  0  0  0  0  0  0  0
    3.5041    2.5708    1.0802 C   0  0  0  0  0  0  0  0  0  0  0  0
    3.7566    1.1538   -0.9882 C   0  0  0  0  0  0  0  0  0  0  0  0
    4.5085    0.3669   -1.8376 C   0  0  0  0  0  0  0  0  0  0  0  0
    6.3043   -0.8069   -3.7837 C   0  0  0  0  0  0  0  0  0  0  0  0
    6.0287    0.3203   -4.5506 C   0  0  0  0  0  0  0  0  0  0  0  0
    5.8221    0.1946   -5.9087 C   0  0  0  0  0  0  0  0  0  0  0  0
    5.8889   -1.0447   -6.5356 C   0  0  0  0  0  0  0  0  0  0  0  0
    5.7424   -1.1522   -8.0198 C   0  0  0  0  0  0  0  0  0  0  0  0
    6.1354   -2.1667   -5.7559 C   0  0  0  0  0  0  0  0  0  0  0  0
    6.3381   -2.0559   -4.3943 C   0  0  0  0  0  0  0  0  0  0  0  0
    8.9191   -1.3823   -2.7876 C   0  0  0  0  0  0  0  0  0  0  0  0
    9.2240   -0.9906   -4.4405 S   0  0  0  0  0  0  0  0  0  0  0  0
   10.9036   -1.5076   -4.2631 C   0  0  0  0  0  0  0  0  0  0  0  0
   11.1610   -2.0335   -2.9661 C   0  0  0  0  0  0  0  0  0  0  0  0
   12.3495   -2.5646   -2.5404 N   0  0  0  0  0  0  0  0  0  0  0  0
   12.7571   -2.3336   -1.2127 C   0  0  0  0  0  0  0  0  0  0  0  0
   12.6138   -1.0668   -0.6521 C   0  0  0  0  0  0  0  0  0  0  0  0
   13.0861   -0.8165    0.6192 C   0  0  0  0  0  0  0  0  0  0  0  0
   13.7112   -1.8111    1.3624 C   0  0  0  0  0  0  0  0  0  0  0  0
   14.3058   -1.4963    2.6998 C   0  0  0  0  0  0  0  0  0  0  0  0
   13.8133   -3.0813    0.8096 C   0  0  0  0  0  0  0  0  0  0  0  0
   13.3426   -3.3469   -0.4611 C   0  0  0  0  0  0  0  0  0  0  0  0
   13.1579   -3.3555   -3.3760 C   0  0  0  0  0  0  0  0  0  0  0  0
   12.5783   -4.2232   -4.2989 C   0  0  0  0  0  0  0  0  0  0  0  0
   13.3767   -4.9833   -5.1296 C   0  0  0  0  0  0  0  0  0  0  0  0
   14.7630   -4.9146   -5.0532 C   0  0  0  0  0  0  0  0  0  0  0  0
   15.6338   -5.7200   -5.9672 C   0  0  0  0  0  0  0  0  0  0  0  0
   15.3308   -4.0676   -4.1084 C   0  0  0  0  0  0  0  0  0  0  0  0
   14.5461   -3.2916   -3.2794 C   0  0  0  0  0  0  0  0  0  0  0  0
   10.0239   -1.9380   -2.1531 C   0  0  0  0  0  0  0  0  0  0  0  0
    9.6650   -2.4076   -0.5202 S   0  0  0  0  0  0  0  0  0  0  0  0
   11.8913   -1.3156   -5.2201 C   0  0  0  0  0  0  0  0  0  0  0  0
   11.8015   -0.8636   -6.5238 C   0  0  0  0  0  0  0  0  0  0  0  0
   10.5656   -0.6363   -7.2724 C   0  0  0  0  0  0  0  0  0  0  0  0
    9.4195   -0.6842   -6.8646 O   0  0  0  0  0  0  0  0  0  0  0  0
   10.9871   -0.3554   -8.6635 C   0  0  0  0  0  0  0  0  0  0  0  0
   10.2396   -0.0901   -9.7940 C   0  0  0  0  0  0  0  0  0  0  0  0
    8.9001   -0.0607   -9.7458 F   0  0  0  0  0  0  0  0  0  0  0  0
   10.8725    0.1500  -11.0075 C   0  0  0  0  0  0  0  0  0  0  0  0
   12.2540    0.1193  -11.0719 C   0  0  0  0  0  0  0  0  0  0  0  0
   13.0279   -0.1465   -9.9477 C   0  0  0  0  0  0  0  0  0  0  0  0
   12.3913   -0.3850   -8.7420 C   0  0  0  0  0  0  0  0  0  0  0  0
   12.9213   -0.6755   -7.4064 C   0  0  0  0  0  0  0  0  0  0  0  0
   14.2579   -0.7165   -7.0815 C   0  0  0  0  0  0  0  0  0  0  0  0
   15.3062   -0.5821   -8.0118 C   0  0  0  0  0  0  0  0  0  0  0  0
   16.2104   -0.4980   -8.7159 N   0  0  0  0  0  0  0  0  0  0  0  0
   14.7790   -0.8610   -5.7822 C   0  0  0  0  0  0  0  0  0  0  0  0
   15.2940   -0.9408   -4.7568 N   0  0  0  0  0  0  0  0  0  0  0  0
  -11.6446    3.8900    1.2365 H   0  0  0  0  0  0  0  0  0  0  0  0
  -11.6894    0.2393   -3.8654 H   0  0  0  0  0  0  0  0  0  0  0  0
  -15.0079    3.9830   -3.0814 H   0  0  0  0  0  0  0  0  0  0  0  0
  -15.9866    2.0406   -5.7375 H   0  0  0  0  0  0  0  0  0  0  0  0
  -15.3362    4.0583   -7.0429 H   0  0  0  0  0  0  0  0  0  0  0  0
  -12.9942    4.8003   -6.1487 H   0  0  0  0  0  0  0  0  0  0  0  0
  -11.2706    2.8296   -6.5953 H   0  0  0  0  0  0  0  0  0  0  0  0
  -12.5513    0.8720   -7.7662 H   0  0  0  0  0  0  0  0  0  0  0  0
  -15.0694    1.6775   -8.2711 H   0  0  0  0  0  0  0  0  0  0  0  0
  -13.8899    2.8523   -8.9053 H   0  0  0  0  0  0  0  0  0  0  0  0
  -14.3142    0.1254   -6.1727 H   0  0  0  0  0  0  0  0  0  0  0  0
  -11.4662    6.1675    3.6468 H   0  0  0  0  0  0  0  0  0  0  0  0
  -12.2057    8.0655    2.2813 H   0  0  0  0  0  0  0  0  0  0  0  0
  -11.4949    9.6264    0.3226 H   0  0  0  0  0  0  0  0  0  0  0  0
  -10.8638    8.8326   -1.1286 H   0  0  0  0  0  0  0  0  0  0  0  0
  -12.5053    8.4968   -0.5705 H   0  0  0  0  0  0  0  0  0  0  0  0
   -9.6290    6.8077   -0.8772 H   0  0  0  0  0  0  0  0  0  0  0  0
   -8.8597    4.9265    0.4948 H   0  0  0  0  0  0  0  0  0  0  0  0
   -8.6220    6.4680    4.0485 H   0  0  0  0  0  0  0  0  0  0  0  0
   -8.3044    6.8561    6.4516 H   0  0  0  0  0  0  0  0  0  0  0  0
   -9.0225    4.3122    9.0871 H   0  0  0  0  0  0  0  0  0  0  0  0
   -8.0147    5.7254    8.7307 H   0  0  0  0  0  0  0  0  0  0  0  0
   -9.7622    5.8948    8.8437 H   0  0  0  0  0  0  0  0  0  0  0  0
   -9.9146    2.9979    7.2943 H   0  0  0  0  0  0  0  0  0  0  0  0
  -10.2677    2.6185    4.8960 H   0  0  0  0  0  0  0  0  0  0  0  0
   -8.0584   -2.8883    0.7013 H   0  0  0  0  0  0  0  0  0  0  0  0
   -8.6063   -3.0219   -1.6881 H   0  0  0  0  0  0  0  0  0  0  0  0
   -7.2535   -0.8494   -4.2754 H   0  0  0  0  0  0  0  0  0  0  0  0
   -8.9211   -0.5589   -3.7863 H   0  0  0  0  0  0  0  0  0  0  0  0
   -8.3319   -2.2158   -3.9436 H   0  0  0  0  0  0  0  0  0  0  0  0
   -6.6178    0.6897   -2.3630 H   0  0  0  0  0  0  0  0  0  0  0  0
   -6.0514    0.8188    0.0286 H   0  0  0  0  0  0  0  0  0  0  0  0
   -5.3209   -2.9493    1.1626 H   0  0  0  0  0  0  0  0  0  0  0  0
   -4.7595   -4.9019    2.5414 H   0  0  0  0  0  0  0  0  0  0  0  0
   -5.0599   -6.2022    4.5305 H   0  0  0  0  0  0  0  0  0  0  0  0
   -6.3210   -5.7417    5.6832 H   0  0  0  0  0  0  0  0  0  0  0  0
   -4.6927   -5.0947    5.8545 H   0  0  0  0  0  0  0  0  0  0  0  0
   -6.9908   -3.2582    5.7802 H   0  0  0  0  0  0  0  0  0  0  0  0
   -7.5641   -1.3134    4.4103 H   0  0  0  0  0  0  0  0  0  0  0  0
   -4.8901    3.3749    5.5400 H   0  0  0  0  0  0  0  0  0  0  0  0
   -5.9133    4.5515    7.4468 H   0  0  0  0  0  0  0  0  0  0  0  0
   -6.7274    3.2477    9.3879 H   0  0  0  0  0  0  0  0  0  0  0  0
   -6.5480    0.8156    9.3962 H   0  0  0  0  0  0  0  0  0  0  0  0
   -5.5975   -1.1704    6.4288 H   0  0  0  0  0  0  0  0  0  0  0  0
   -4.4431   -1.0503    7.7495 H   0  0  0  0  0  0  0  0  0  0  0  0
   -6.2305   -1.3731    9.4125 H   0  0  0  0  0  0  0  0  0  0  0  0
   -7.4629   -1.3001    8.1459 H   0  0  0  0  0  0  0  0  0  0  0  0
   -6.3180   -2.6441    8.2040 H   0  0  0  0  0  0  0  0  0  0  0  0
    8.9322    0.6074    3.6335 H   0  0  0  0  0  0  0  0  0  0  0  0
    7.8162    0.0833    2.3665 H   0  0  0  0  0  0  0  0  0  0  0  0
    9.2668    1.8692    1.4845 H   0  0  0  0  0  0  0  0  0  0  0  0
    9.6851    0.3475    0.6816 H   0  0  0  0  0  0  0  0  0  0  0  0
   10.7134    0.9760    1.9612 H   0  0  0  0  0  0  0  0  0  0  0  0
   11.1384   -0.7003    3.8501 H   0  0  0  0  0  0  0  0  0  0  0  0
   12.0743   -2.9698    4.0138 H   0  0  0  0  0  0  0  0  0  0  0  0
   10.8456   -4.8818    3.0484 H   0  0  0  0  0  0  0  0  0  0  0  0
    8.6604   -4.5061    1.9679 H   0  0  0  0  0  0  0  0  0  0  0  0
   -1.5279   -1.5666    1.5231 H   0  0  0  0  0  0  0  0  0  0  0  0
   -0.0865   -2.5896    1.7593 H   0  0  0  0  0  0  0  0  0  0  0  0
   -2.0794   -3.9767    1.9303 H   0  0  0  0  0  0  0  0  0  0  0  0
   -1.2977   -3.8815    3.5136 H   0  0  0  0  0  0  0  0  0  0  0  0
   -2.7597   -2.9432    3.1845 H   0  0  0  0  0  0  0  0  0  0  0  0
    1.0633   -0.8734    1.2451 H   0  0  0  0  0  0  0  0  0  0  0  0
    2.7249   -0.6460    0.6867 H   0  0  0  0  0  0  0  0  0  0  0  0
    1.2605   -3.3224    0.4219 H   0  0  0  0  0  0  0  0  0  0  0  0
    1.4285   -2.1138   -0.8568 H   0  0  0  0  0  0  0  0  0  0  0  0
    2.8548   -2.9073   -0.1946 H   0  0  0  0  0  0  0  0  0  0  0  0
    7.5233    0.7514   -0.3606 H   0  0  0  0  0  0  0  0  0  0  0  0
    6.1674    2.1137    1.1556 H   0  0  0  0  0  0  0  0  0  0  0  0
    3.4883    2.0863    2.0573 H   0  0  0  0  0  0  0  0  0  0  0  0
    3.9253    3.5662    1.2125 H   0  0  0  0  0  0  0  0  0  0  0  0
    2.4801    2.6702    0.7285 H   0  0  0  0  0  0  0  0  0  0  0  0
    2.6997    1.2756   -1.1808 H   0  0  0  0  0  0  0  0  0  0  0  0
    4.0411   -0.1337   -2.6720 H   0  0  0  0  0  0  0  0  0  0  0  0
    5.9995    1.2916   -4.0783 H   0  0  0  0  0  0  0  0  0  0  0  0
    5.6298    1.0779   -6.4998 H   0  0  0  0  0  0  0  0  0  0  0  0
    4.9963   -0.4531   -8.3914 H   0  0  0  0  0  0  0  0  0  0  0  0
    6.6949   -0.9075   -8.4893 H   0  0  0  0  0  0  0  0  0  0  0  0
    5.4646   -2.1610   -8.3156 H   0  0  0  0  0  0  0  0  0  0  0  0
    6.1809   -3.1407   -6.2213 H   0  0  0  0  0  0  0  0  0  0  0  0
    6.5405   -2.9330   -3.7957 H   0  0  0  0  0  0  0  0  0  0  0  0
   12.1592   -0.2759   -1.2308 H   0  0  0  0  0  0  0  0  0  0  0  0
   12.9928    0.1772    1.0321 H   0  0  0  0  0  0  0  0  0  0  0  0
   15.2411   -0.9513    2.5666 H   0  0  0  0  0  0  0  0  0  0  0  0
   14.5212   -2.4047    3.2563 H   0  0  0  0  0  0  0  0  0  0  0  0
   13.6373   -0.8692    3.2847 H   0  0  0  0  0  0  0  0  0  0  0  0
   14.2773   -3.8748    1.3770 H   0  0  0  0  0  0  0  0  0  0  0  0
   13.4377   -4.3361   -0.8836 H   0  0  0  0  0  0  0  0  0  0  0  0
   11.5022   -4.2917   -4.3659 H   0  0  0  0  0  0  0  0  0  0  0  0
   12.9128   -5.6472   -5.8450 H   0  0  0  0  0  0  0  0  0  0  0  0
   16.3807   -6.2705   -5.3977 H   0  0  0  0  0  0  0  0  0  0  0  0
   16.1626   -5.0614   -6.6562 H   0  0  0  0  0  0  0  0  0  0  0  0
   15.0450   -6.4255   -6.5481 H   0  0  0  0  0  0  0  0  0  0  0  0
   16.4054   -3.9986   -4.0333 H   0  0  0  0  0  0  0  0  0  0  0  0
   15.0032   -2.6223   -2.5681 H   0  0  0  0  0  0  0  0  0  0  0  0
   12.8888   -1.5670   -4.8830 H   0  0  0  0  0  0  0  0  0  0  0  0
   10.2755    0.3573  -11.8815 H   0  0  0  0  0  0  0  0  0  0  0  0
   12.7427    0.3057  -12.0157 H   0  0  0  0  0  0  0  0  0  0  0  0
   14.1016   -0.1644  -10.0305 H   0  0  0  0  0  0  0  0  0  0  0  0
  1  2  2  0  0  0  0
  2  3  1  0  0  0  0
  3  4  2  0  0  0  0
  3  5  1  0  0  0  0
  5  6  2  0  0  0  0
  6  7  1  0  0  0  0
  7  8  2  0  0  0  0
  8  9  1  0  0  0  0
  9 10  2  0  0  0  0
 10 11  1  0  0  0  0
 11 12  2  0  0  0  0
 12 13  1  0  0  0  0
 13 14  3  0  0  0  0
 12 15  1  0  0  0  0
 15 16  3  0  0  0  0
  8 17  1  0  0  0  0
 17 18  1  0  0  0  0
 18 19  1  0  0  0  0
 19 20  2  0  0  0  0
 20 21  1  0  0  0  0
 21 22  1  0  0  0  0
 21 23  1  0  0  0  0
  1 24  1  0  0  0  0
 24 25  2  0  0  0  0
 25 26  1  0  0  0  0
 26 27  1  0  0  0  0
 27 28  2  0  0  0  0
 28 29  1  0  0  0  0
 29 30  2  0  0  0  0
 30 31  1  0  0  0  0
 30 32  1  0  0  0  0
 32 33  2  0  0  0  0
 26 34  1  0  0  0  0
 34 35  2  0  0  0  0
 35 36  1  0  0  0  0
 36 37  2  0  0  0  0
 37 38  1  0  0  0  0
 37 39  1  0  0  0  0
 39 40  2  0  0  0  0
 25 41  1  0  0  0  0
 41 42  1  0  0  0  0
 42 43  1  0  0  0  0
 43 44  2  0  0  0  0
 44 45  1  0  0  0  0
 45 46  1  0  0  0  0
 46 47  2  0  0  0  0
 47 48  1  0  0  0  0
 48 49  2  0  0  0  0
 49 50  1  0  0  0  0
 49 51  1  0  0  0  0
 51 52  2  0  0  0  0
 45 53  1  0  0  0  0
 53 54  2  0  0  0  0
 54 55  1  0  0  0  0
 55 56  2  0  0  0  0
 56 57  1  0  0  0  0
 56 58  1  0  0  0  0
 58 59  2  0  0  0  0
 44 60  1  0  0  0  0
 60 61  1  0  0  0  0
 43 62  1  0  0  0  0
 62 63  2  0  0  0  0
 63 64  1  0  0  0  0
 64 65  2  0  0  0  0
 65 66  1  0  0  0  0
 66 67  2  0  0  0  0
 67 68  1  0  0  0  0
 68 69  2  0  0  0  0
 69 70  1  0  0  0  0
 70 71  1  0  0  0  0
 63 72  1  0  0  0  0
 72 73  1  0  0  0  0
 73 74  1  0  0  0  0
 74 75  1  0  0  0  0
 75 76  1  0  0  0  0
 76 77  1  0  0  0  0
 77 78  2  0  0  0  0
 78 79  1  0  0  0  0
 79 80  1  0  0  0  0
 77 81  1  0  0  0  0
 81 82  1  0  0  0  0
 82 83  1  0  0  0  0
 83 84  1  0  0  0  0
 84 85  1  0  0  0  0
 85 86  1  0  0  0  0
 86 87  2  0  0  0  0
 87 88  1  0  0  0  0
 88 89  1  0  0  0  0
 87 90  1  0  0  0  0
 90 91  2  0  0  0  0
 91 92  1  0  0  0  0
 92 93  2  0  0  0  0
 85 94  2  0  0  0  0
 94 95  1  0  0  0  0
 95 96  1  0  0  0  0
 96 97  1  0  0  0  0
 97 98  1  0  0  0  0
 98 99  1  0  0  0  0
 99100  1  0  0  0  0
100101  1  0  0  0  0
101102  1  0  0  0  0
102103  1  0  0  0  0
103104  1  0  0  0  0
101105  1  0  0  0  0
105106  1  0  0  0  0
 98107  1  0  0  0  0
107108  1  0  0  0  0
 94109  1  0  0  0  0
109110  2  0  0  0  0
110111  1  0  0  0  0
111112  1  0  0  0  0
112113  2  0  0  0  0
113114  1  0  0  0  0
114115  2  0  0  0  0
115116  1  0  0  0  0
115117  1  0  0  0  0
117118  2  0  0  0  0
111119  1  0  0  0  0
119120  2  0  0  0  0
120121  1  0  0  0  0
121122  2  0  0  0  0
122123  1  0  0  0  0
122124  1  0  0  0  0
124125  2  0  0  0  0
110126  1  0  0  0  0
126127  1  0  0  0  0
127128  1  0  0  0  0
128129  2  0  0  0  0
129130  1  0  0  0  0
130131  1  0  0  0  0
131132  2  0  0  0  0
132133  1  0  0  0  0
133134  2  0  0  0  0
134135  1  0  0  0  0
134136  1  0  0  0  0
136137  2  0  0  0  0
130138  1  0  0  0  0
138139  2  0  0  0  0
139140  1  0  0  0  0
140141  2  0  0  0  0
141142  1  0  0  0  0
141143  1  0  0  0  0
143144  2  0  0  0  0
129145  1  0  0  0  0
145146  1  0  0  0  0
128147  1  0  0  0  0
147148  2  0  0  0  0
148149  1  0  0  0  0
149150  2  0  0  0  0
149151  1  0  0  0  0
151152  2  0  0  0  0
152153  1  0  0  0  0
152154  1  0  0  0  0
154155  2  0  0  0  0
155156  1  0  0  0  0
156157  2  0  0  0  0
157158  1  0  0  0  0
158159  2  0  0  0  0
159160  1  0  0  0  0
160161  3  0  0  0  0
159162  1  0  0  0  0
162163  3  0  0  0  0
 11  2  1  0  0  0  0
 23 17  1  0  0  0  0
 61 24  1  0  0  0  0
104 62  1  0  0  0  0
146109  1  0  0  0  0
158148  1  0  0  0  0
 10  5  1  0  0  0  0
 22 18  1  0  0  0  0
 33 27  1  0  0  0  0
 40 34  1  0  0  0  0
 60 41  2  0  0  0  0
 69 64  1  0  0  0  0
103 72  2  0  0  0  0
118112  1  0  0  0  0
125119  1  0  0  0  0
145126  2  0  0  0  0
157151  1  0  0  0  0
 23  7  1  0  0  0  0
 52 46  1  0  0  0  0
 59 53  1  0  0  0  0
102 74  2  0  0  0  0
137131  1  0  0  0  0
144138  1  0  0  0  0
100 75  2  0  0  0  0
 80 76  2  0  0  0  0
 99 81  2  0  0  0  0
 97 82  2  0  0  0  0
 96 84  2  0  0  0  0
 93 86  1  0  0  0  0
  1164  1  0  0  0  0
  6165  1  0  0  0  0
  9166  1  0  0  0  0
 17167  1  0  0  0  0
 18168  1  0  0  0  0
 19169  1  0  0  0  0
 20170  1  0  0  0  0
 21171  1  0  0  0  0
 22172  1  0  0  0  0
 22173  1  0  0  0  0
 23174  1  0  0  0  0
 28175  1  0  0  0  0
 29176  1  0  0  0  0
 31177  1  0  0  0  0
 31178  1  0  0  0  0
 31179  1  0  0  0  0
 32180  1  0  0  0  0
 33181  1  0  0  0  0
 35182  1  0  0  0  0
 36183  1  0  0  0  0
 38184  1  0  0  0  0
 38185  1  0  0  0  0
 38186  1  0  0  0  0
 39187  1  0  0  0  0
 40188  1  0  0  0  0
 47189  1  0  0  0  0
 48190  1  0  0  0  0
 50191  1  0  0  0  0
 50192  1  0  0  0  0
 50193  1  0  0  0  0
 51194  1  0  0  0  0
 52195  1  0  0  0  0
 54196  1  0  0  0  0
 55197  1  0  0  0  0
 57198  1  0  0  0  0
 57199  1  0  0  0  0
 57200  1  0  0  0  0
 58201  1  0  0  0  0
 59202  1  0  0  0  0
 65203  1  0  0  0  0
 66204  1  0  0  0  0
 67205  1  0  0  0  0
 68206  1  0  0  0  0
 70207  1  0  0  0  0
 70208  1  0  0  0  0
 71209  1  0  0  0  0
 71210  1  0  0  0  0
 71211  1  0  0  0  0
 88212  1  0  0  0  0
 88213  1  0  0  0  0
 89214  1  0  0  0  0
 89215  1  0  0  0  0
 89216  1  0  0  0  0
 90217  1  0  0  0  0
 91218  1  0  0  0  0
 92219  1  0  0  0  0
 93220  1  0  0  0  0
105221  1  0  0  0  0
105222  1  0  0  0  0
106223  1  0  0  0  0
106224  1  0  0  0  0
106225  1  0  0  0  0
107226  1  0  0  0  0
107227  1  0  0  0  0
108228  1  0  0  0  0
108229  1  0  0  0  0
108230  1  0  0  0  0
113231  1  0  0  0  0
114232  1  0  0  0  0
116233  1  0  0  0  0
116234  1  0  0  0  0
116235  1  0  0  0  0
117236  1  0  0  0  0
118237  1  0  0  0  0
120238  1  0  0  0  0
121239  1  0  0  0  0
123240  1  0  0  0  0
123241  1  0  0  0  0
123242  1  0  0  0  0
124243  1  0  0  0  0
125244  1  0  0  0  0
132245  1  0  0  0  0
133246  1  0  0  0  0
135247  1  0  0  0  0
135248  1  0  0  0  0
135249  1  0  0  0  0
136250  1  0  0  0  0
137251  1  0  0  0  0
139252  1  0  0  0  0
140253  1  0  0  0  0
142254  1  0  0  0  0
142255  1  0  0  0  0
142256  1  0  0  0  0
143257  1  0  0  0  0
144258  1  0  0  0  0
147259  1  0  0  0  0
154260  1  0  0  0  0
155261  1  0  0  0  0
156262  1  0  0  0  0
M  END
