228

C          4.58080       -9.27490        1.19950
C          5.01970       -9.56810       -0.07350
C          4.96540       -8.61720       -1.19460
O          4.58840       -7.45970       -1.16700
C          5.32760       -9.39410       -2.39820
C          5.39780       -8.92770       -3.70650
C          5.76150       -9.88550       -4.62360
C          6.02410      -11.21310       -4.26670
C          5.95610      -11.68640       -2.97680
C          5.59690      -10.72600       -2.02980
C          5.44010      -10.84310       -0.58080
C          5.79210      -11.92910        0.18440
C          5.75230      -11.94350        1.59210
N          5.77670      -12.01490        2.73870
C          6.31290      -13.12920       -0.33080
N          6.75890      -14.12600       -0.68990
C          6.30450      -11.62480       -5.69100
C          5.20060      -12.40210       -6.44980
C          3.88690      -12.00280       -5.82540
C          3.64360      -10.74370       -6.16370
C          4.78910      -10.26890       -7.02300
C          5.14580      -11.57750       -7.74590
C          6.01720      -10.14240       -6.08820
C          4.50840       -7.99650        1.76060
C          5.23210       -6.81810        1.48280
N          6.34320       -6.71050        0.69880
C          7.17460       -7.80030        0.40160
C          7.50910       -8.74180        1.37330
C          8.29830       -9.82450        1.04700
C          8.77620      -10.00490       -0.24880
C          9.57870      -11.21690       -0.60320
C          8.47250       -9.04070       -1.20070
C          7.68700       -7.94790       -0.88550
C          6.68580       -5.45750        0.14370
C          5.72880       -4.68430       -0.50570
C          6.08110       -3.46020       -1.03820
C          7.38340       -2.98340       -0.94240
C          7.74660       -1.63970       -1.49550
C          8.33440       -3.77430       -0.30860
C          7.99590       -4.99990        0.23110
C          4.71350       -5.73750        2.23560
S          5.06310       -4.04230        2.30460
C          3.79330       -3.80640        3.49250
C          3.11560       -4.97810        3.79540
N          1.98280       -5.06790        4.58880
C          0.99400       -4.07830        4.50830
C          0.72320       -3.44490        3.29750
C         -0.17310       -2.39490        3.24220
C         -0.84050       -1.96040        4.37860
C         -1.78160       -0.79550        4.33670
C         -0.61720       -2.64320        5.56980
C          0.28270       -3.68650        5.64070
C          1.83370       -6.17950        5.42960
C          2.94750       -6.74810        6.04320
C          2.80430       -7.85040        6.86010
C          1.55560       -8.41320        7.09560
C          1.41860       -9.61960        7.97290
C          0.45010       -7.83970        6.48050
C          0.58040       -6.74210        5.65300
C          3.67930       -6.07370        3.09820
S          3.31860       -7.75680        3.05170
C          3.42310       -2.48340        3.89890
C          3.04980       -2.03770        5.15180
C          3.33630       -2.76270        6.38670
C          4.46890       -3.57010        6.48760
C          4.73130       -4.25390        7.65800
C          3.87530       -4.14520        8.74040
C          2.75460       -3.32940        8.66780
C          1.84350       -3.15140        9.84810
C          2.16390       -1.84620       10.57890
C          2.50260       -2.63750        7.49300
C          2.40430       -0.78100        5.06530
S          1.58420        0.23400        6.22890
C          1.12060        1.30980        4.95230
C          0.35100        2.46750        4.74480
C         -0.31210        3.32430        5.65010
C         -0.98450        4.48730        5.14430
N         -1.52330        5.21890        6.10710
S         -1.21710        4.50410        7.52730
N         -0.38500        3.23240        6.96890
C         -1.05270        4.68440        3.74780
C         -1.75540        5.62600        2.97840
S         -2.78740        6.99990        3.19080
C         -3.00600        7.08370        1.45700
C         -3.73520        7.95230        0.62150
C         -4.45520        9.12890        1.09940
C         -4.41610       10.32780        0.38920
C         -5.10590       11.42790        0.85840
C         -5.83110       11.34970        2.03560
C         -5.86900       10.16800        2.76370
C         -6.60570       10.07880        4.06780
C         -5.62950       10.20230        5.23950
C         -5.17410        9.06670        2.28840
C         -3.58490        7.59690       -0.71240
S         -2.49310        6.23620       -0.93620
C         -2.28880        6.09860        0.77030
C         -1.57990        5.26530        1.64000
N         -0.77660        4.16100        1.54770
C         -0.43330        3.78330        2.83500
C          0.36440        2.72700        3.34500
N          1.16330        1.77290        2.73250
C          1.60640        0.92010        3.70510
C          2.34080       -0.26990        3.77060
S          3.09970       -1.31450        2.62860
C          1.84560        1.80620        1.45750
C          2.65120        3.09110        1.28480
C         -0.75640        3.39980        0.31850
C         -1.51890        2.08500        0.46130
C         -4.18250        8.13830       -1.87990
S         -3.27620        8.20440       -3.35870
C         -4.61490        8.85640       -4.28760
C         -5.69130        9.04140       -3.43300
S         -7.28120        9.68350       -3.66370
C         -7.70790        9.28170       -2.01810
C         -9.11140        9.45250       -1.63240
O         -9.57780        9.25270       -0.54150
O         -9.80510        9.84540       -2.70800
C        -11.22260        9.95520       -2.58100
C        -11.82040        9.92410       -3.97540
C         -6.66550        8.73300       -1.32650
C         -5.47150        8.62750       -2.09030
F         -6.78100        8.27300       -0.08700
C         -4.43110        9.10820       -5.65870
C         -5.35640        9.28860       -6.64780
C         -4.94350        9.95650       -7.91420
O         -3.81100       10.19940       -8.26620
C         -6.20140       10.28900       -8.60990
C         -6.34670       10.99140       -9.80370
C         -7.65150       11.14570      -10.20800
C         -8.73680       10.65080       -9.47320
C         -8.60900        9.95400       -8.29460
C         -7.28990        9.77290       -7.87580
C         -6.76690        9.02870       -6.73170
C         -7.45610        8.07190       -6.02220
C         -6.81470        7.11900       -5.20690
N         -6.31580        6.30300       -4.57140
C         -8.84510        7.85910       -6.10440
N         -9.97660        7.66180       -6.09200
C         -9.74670       11.15630      -10.47240
C        -10.37820       10.12210      -11.43710
C         -9.37670        9.00300      -11.58140
C         -8.34930        9.46700      -12.28010
C         -8.63720       10.90850      -12.62010
C        -10.16540       10.84990      -12.77400
C         -8.53720       11.70340      -11.29420
H          4.20370      -10.08120        1.81750
H          5.18300       -7.89650       -3.94110
H          6.15190      -12.71360       -2.71650
H          7.29880      -12.02180       -5.88710
H          5.38300      -13.46940       -6.54260
H          3.31570      -12.63810       -5.17400
H          2.82900      -10.11700       -5.85110
H          4.59710       -9.39350       -7.63840
H          6.09750      -11.53580       -8.27430
H          4.36240      -11.91090       -8.42500
H          6.82590       -9.57140       -6.54110
H          7.14520       -8.62620        2.38320
H          8.54210      -10.54890        1.81020
H         10.18310      -11.03870       -1.48920
H         10.22850      -11.50530        0.22000
H          8.91490      -12.05750       -0.81080
H          8.84230       -9.15110       -2.20980
H          7.45440       -7.20860       -1.63730
H          4.72700       -5.06950       -0.61170
H          5.33280       -2.86660       -1.54290
H          8.80680       -1.58820       -1.73080
H          7.17310       -1.42230       -2.39390
H          7.52470       -0.86560       -0.76020
H          9.35370       -3.42480       -0.23120
H          8.74150       -5.60670        0.72410
H          1.22660       -3.77100        2.39880
H         -0.35090       -1.90430        2.29540
H         -1.50950       -0.05800        5.09090
H         -2.80040       -1.12140        4.54430
H         -1.76590       -0.31660        3.36030
H         -1.14410       -2.33490        6.46130
H          0.46110       -4.19230        6.57740
H          3.92270       -6.31330        5.88460
H          3.67800       -8.27970        7.32840
H          2.03210       -9.51840        8.86600
H          0.38400       -9.76970        8.27100
H          1.75290      -10.50900        7.43840
H         -0.53040       -8.26420        6.64230
H         -0.28830       -6.31880        5.17070
H          5.15050       -3.64490        5.65320
H          5.61210       -4.87550        7.72970
H          4.08350       -4.69120        9.64910
H          1.95890       -3.99130       10.53570
H          0.80500       -3.12590        9.51070
H          1.50410       -1.71740       11.43370
H          3.19260       -1.85410       10.93230
H          2.03760       -0.99760        9.91060
H          1.62990       -2.00590        7.43260
H         -3.83120       10.39960       -0.51660
H         -5.07590       12.35470        0.30370
H         -6.37250       12.21450        2.39070
H         -7.35080       10.87360        4.12870
H         -7.12340        9.11980        4.12940
H         -5.11310       11.15920        5.20220
H         -6.16110       10.13170        6.18540
H         -4.88510        9.41040        5.19870
H         -5.22260        8.13500        2.83120
H          2.52650        0.95140        1.45090
H          1.14360        1.65890        0.63620
H          3.40540        3.16340        2.06510
H          2.01340        3.96950        1.34870
H          3.15060        3.08800        0.31970
H         -1.24640        4.01760       -0.43780
H          0.26820        3.23880       -0.01740
H         -1.09960        1.47100        1.25480
H         -1.48030        1.53070       -0.47250
H         -2.56050        2.28540        0.70160
H        -11.45750       10.89260       -2.06340
H        -11.58380        9.12320       -1.96670
H        -11.47670       10.78150       -4.54820
H        -11.51340        9.01870       -4.49360
H        -12.90390        9.95010       -3.90930
H         -3.39990        9.22780       -5.97770
H         -5.48570       11.35960      -10.33930
H         -9.44990        9.58040       -7.73370
H        -10.47470       11.87300      -10.09750
H        -11.39270        9.82780      -11.18210
H         -9.48910        8.03680      -11.12540
H         -7.43120        8.96560      -12.52480
H         -8.06700       11.33060      -13.44350
H        -10.47970       10.25640      -13.63120
H        -10.63570       11.83150      -12.81360
H         -8.47580       12.77760      -11.45840
