
  xtb     02132221103D
 energy: -381.454149339394 gnorm: 0.000511206087 xtb: 6.4.1 (unknown)
224249  0     0  0            999 V2000
    5.1709    5.3115   -6.7087 C   0  0  0  0  0  0  0  0  0  0  0  0
    6.4412    5.8316   -6.8340 C   0  0  0  0  0  0  0  0  0  0  0  0
    7.0153    6.8367   -5.9269 C   0  0  0  0  0  0  0  0  0  0  0  0
    6.4934    7.3295   -4.9430 O   0  0  0  0  0  0  0  0  0  0  0  0
    8.3077    7.2285   -6.5297 C   0  0  0  0  0  0  0  0  0  0  0  0
    9.2171    8.1594   -6.0376 C   0  0  0  0  0  0  0  0  0  0  0  0
   10.3469    8.3006   -6.8089 C   0  0  0  0  0  0  0  0  0  0  0  0
   10.5477    7.5856   -7.9952 C   0  0  0  0  0  0  0  0  0  0  0  0
    9.6522    6.6710   -8.4979 C   0  0  0  0  0  0  0  0  0  0  0  0
    8.5072    6.4991   -7.7173 C   0  0  0  0  0  0  0  0  0  0  0  0
    7.3681    5.6032   -7.9054 C   0  0  0  0  0  0  0  0  0  0  0  0
    7.2827    4.5932   -8.8340 C   0  0  0  0  0  0  0  0  0  0  0  0
    6.2291    3.6602   -8.8887 C   0  0  0  0  0  0  0  0  0  0  0  0
    5.4212    2.8471   -8.9708 N   0  0  0  0  0  0  0  0  0  0  0  0
    8.2762    4.3018   -9.7854 C   0  0  0  0  0  0  0  0  0  0  0  0
    9.0609    3.9963  -10.5680 N   0  0  0  0  0  0  0  0  0  0  0  0
   11.8934    8.2210   -8.2464 C   0  0  0  0  0  0  0  0  0  0  0  0
   13.1306    7.3550   -7.9291 C   0  0  0  0  0  0  0  0  0  0  0  0
   14.2532    8.3586   -7.7984 C   0  0  0  0  0  0  0  0  0  0  0  0
   14.0657    9.0289   -6.6688 C   0  0  0  0  0  0  0  0  0  0  0  0
   12.8125    8.4901   -6.0175 C   0  0  0  0  0  0  0  0  0  0  0  0
   12.9012    7.0208   -6.4497 C   0  0  0  0  0  0  0  0  0  0  0  0
   11.6729    9.0132   -6.9178 C   0  0  0  0  0  0  0  0  0  0  0  0
    4.4351    5.2087   -5.5265 C   0  0  0  0  0  0  0  0  0  0  0  0
    4.8390    5.1572   -4.1755 C   0  0  0  0  0  0  0  0  0  0  0  0
    6.1116    5.0017   -3.7115 N   0  0  0  0  0  0  0  0  0  0  0  0
    7.1427    4.4306   -4.4713 C   0  0  0  0  0  0  0  0  0  0  0  0
    8.4330    4.9481   -4.3788 C   0  0  0  0  0  0  0  0  0  0  0  0
    9.4527    4.4186   -5.1467 C   0  0  0  0  0  0  0  0  0  0  0  0
    9.2217    3.3646   -6.0200 C   0  0  0  0  0  0  0  0  0  0  0  0
   10.3077    2.8264   -6.8970 C   0  0  0  0  0  0  0  0  0  0  0  0
    7.9396    2.8218   -6.0700 C   0  0  0  0  0  0  0  0  0  0  0  0
    6.9129    3.3406   -5.3097 C   0  0  0  0  0  0  0  0  0  0  0  0
    6.4248    5.3805   -2.3868 C   0  0  0  0  0  0  0  0  0  0  0  0
    7.0964    4.4871   -1.5585 C   0  0  0  0  0  0  0  0  0  0  0  0
    7.4333    4.8605   -0.2731 C   0  0  0  0  0  0  0  0  0  0  0  0
    7.1216    6.1272    0.2087 C   0  0  0  0  0  0  0  0  0  0  0  0
    7.4868    6.5187    1.6072 C   0  0  0  0  0  0  0  0  0  0  0  0
    6.4589    7.0124   -0.6328 C   0  0  0  0  0  0  0  0  0  0  0  0
    6.1031    6.6485   -1.9172 C   0  0  0  0  0  0  0  0  0  0  0  0
    3.7053    5.1110   -3.3273 C   0  0  0  0  0  0  0  0  0  0  0  0
    3.4898    5.0740   -1.6103 S   0  0  0  0  0  0  0  0  0  0  0  0
    1.7532    4.8881   -1.8030 C   0  0  0  0  0  0  0  0  0  0  0  0
    1.3724    4.8646   -3.1327 C   0  0  0  0  0  0  0  0  0  0  0  0
    0.0706    4.7154   -3.5722 N   0  0  0  0  0  0  0  0  0  0  0  0
   -0.1825    3.9737   -4.7362 C   0  0  0  0  0  0  0  0  0  0  0  0
    0.5688    2.8383   -5.0312 C   0  0  0  0  0  0  0  0  0  0  0  0
    0.3328    2.1334   -6.1938 C   0  0  0  0  0  0  0  0  0  0  0  0
   -0.6619    2.5260   -7.0820 C   0  0  0  0  0  0  0  0  0  0  0  0
   -0.8890    1.7607   -8.3492 C   0  0  0  0  0  0  0  0  0  0  0  0
   -1.4220    3.6454   -6.7675 C   0  0  0  0  0  0  0  0  0  0  0  0
   -1.1880    4.3673   -5.6137 C   0  0  0  0  0  0  0  0  0  0  0  0
   -0.9939    5.2404   -2.8238 C   0  0  0  0  0  0  0  0  0  0  0  0
   -0.9047    6.5088   -2.2598 C   0  0  0  0  0  0  0  0  0  0  0  0
   -1.9443    7.0042   -1.4984 C   0  0  0  0  0  0  0  0  0  0  0  0
   -3.0852    6.2481   -1.2629 C   0  0  0  0  0  0  0  0  0  0  0  0
   -4.1813    6.7568   -0.3777 C   0  0  0  0  0  0  0  0  0  0  0  0
   -3.1765    4.9912   -1.8508 C   0  0  0  0  0  0  0  0  0  0  0  0
   -2.1524    4.4920   -2.6294 C   0  0  0  0  0  0  0  0  0  0  0  0
    2.4901    5.0171   -3.9895 C   0  0  0  0  0  0  0  0  0  0  0  0
    2.6807    5.0384   -5.7010 S   0  0  0  0  0  0  0  0  0  0  0  0
    0.8848    4.5515   -0.7000 C   0  0  0  0  0  0  0  0  0  0  0  0
    0.4163    5.2624    0.3806 C   0  0  0  0  0  0  0  0  0  0  0  0
    0.6857    6.6676    0.6917 C   0  0  0  0  0  0  0  0  0  0  0  0
   -0.3558    7.4563    1.1810 C   0  0  0  0  0  0  0  0  0  0  0  0
   -0.1448    8.7894    1.4707 C   0  0  0  0  0  0  0  0  0  0  0  0
    1.1025    9.3562    1.2787 C   0  0  0  0  0  0  0  0  0  0  0  0
    2.1545    8.5865    0.8016 C   0  0  0  0  0  0  0  0  0  0  0  0
    3.5240    9.1800    0.6399 C   0  0  0  0  0  0  0  0  0  0  0  0
    4.3714    8.9039    1.8829 C   0  0  0  0  0  0  0  0  0  0  0  0
    1.9383    7.2452    0.5201 C   0  0  0  0  0  0  0  0  0  0  0  0
   -0.4823    4.4778    1.1490 C   0  0  0  0  0  0  0  0  0  0  0  0
   -1.3440    4.7836    2.6386 S   0  0  0  0  0  0  0  0  0  0  0  0
   -1.9628    3.1683    2.5980 C   0  0  0  0  0  0  0  0  0  0  0  0
   -2.7954    2.3226    3.3562 C   0  0  0  0  0  0  0  0  0  0  0  0
   -3.5984    2.5266    4.5007 C   0  0  0  0  0  0  0  0  0  0  0  0
   -4.4291    1.4506    4.9783 C   0  0  0  0  0  0  0  0  0  0  0  0
   -5.1715    1.8095    6.0136 N   0  0  0  0  0  0  0  0  0  0  0  0
   -4.8528    3.3571    6.3653 S   0  0  0  0  0  0  0  0  0  0  0  0
   -3.7556    3.6341    5.2086 N   0  0  0  0  0  0  0  0  0  0  0  0
   -4.3213    0.1772    4.3752 C   0  0  0  0  0  0  0  0  0  0  0  0
   -4.8553   -1.0847    4.6950 C   0  0  0  0  0  0  0  0  0  0  0  0
   -5.9580   -1.7893    5.8274 S   0  0  0  0  0  0  0  0  0  0  0  0
   -5.6273   -3.3577    5.1347 C   0  0  0  0  0  0  0  0  0  0  0  0
   -6.0891   -4.6482    5.4501 C   0  0  0  0  0  0  0  0  0  0  0  0
   -6.9673   -4.9080    6.5955 C   0  0  0  0  0  0  0  0  0  0  0  0
   -6.5651   -5.7734    7.6097 C   0  0  0  0  0  0  0  0  0  0  0  0
   -7.3739   -5.9590    8.7140 C   0  0  0  0  0  0  0  0  0  0  0  0
   -8.5752   -5.2798    8.8201 C   0  0  0  0  0  0  0  0  0  0  0  0
   -8.9876   -4.4087    7.8199 C   0  0  0  0  0  0  0  0  0  0  0  0
  -10.2578   -3.6212    7.9574 C   0  0  0  0  0  0  0  0  0  0  0  0
   -9.9606   -2.2463    8.5600 C   0  0  0  0  0  0  0  0  0  0  0  0
   -8.1721   -4.2271    6.7127 C   0  0  0  0  0  0  0  0  0  0  0  0
   -5.5549   -5.5966    4.5969 C   0  0  0  0  0  0  0  0  0  0  0  0
   -4.4372   -4.8931    3.4289 S   0  0  0  0  0  0  0  0  0  0  0  0
   -4.7115   -3.3168    4.0806 C   0  0  0  0  0  0  0  0  0  0  0  0
   -4.2632   -2.0150    3.8335 C   0  0  0  0  0  0  0  0  0  0  0  0
   -3.3917   -1.3814    2.9798 N   0  0  0  0  0  0  0  0  0  0  0  0
   -3.4387   -0.0328    3.2854 C   0  0  0  0  0  0  0  0  0  0  0  0
   -2.8003    1.0734    2.6857 C   0  0  0  0  0  0  0  0  0  0  0  0
   -2.0564    1.1691    1.5220 N   0  0  0  0  0  0  0  0  0  0  0  0
   -1.5373    2.4405    1.4848 C   0  0  0  0  0  0  0  0  0  0  0  0
   -0.6894    3.1924    0.6597 C   0  0  0  0  0  0  0  0  0  0  0  0
    0.2161    2.9182   -0.7798 S   0  0  0  0  0  0  0  0  0  0  0  0
   -2.3017    0.4458    0.2898 C   0  0  0  0  0  0  0  0  0  0  0  0
   -3.1684    1.2647   -0.6662 C   0  0  0  0  0  0  0  0  0  0  0  0
   -2.2527   -2.0976    2.4411 C   0  0  0  0  0  0  0  0  0  0  0  0
   -1.4003   -2.7040    3.5557 C   0  0  0  0  0  0  0  0  0  0  0  0
   -5.8508   -6.9826    4.4914 C   0  0  0  0  0  0  0  0  0  0  0  0
   -5.2459   -7.8847    3.6583 C   0  0  0  0  0  0  0  0  0  0  0  0
   -5.7810   -9.1891    3.7427 C   0  0  0  0  0  0  0  0  0  0  0  0
   -5.4181  -10.3344    3.0091 C   0  0  0  0  0  0  0  0  0  0  0  0
   -4.3572  -10.3046    2.0178 C   0  0  0  0  0  0  0  0  0  0  0  0
   -2.7963   -9.6120    2.3485 S   0  0  0  0  0  0  0  0  0  0  0  0
   -2.1856  -10.0068    0.7783 C   0  0  0  0  0  0  0  0  0  0  0  0
   -0.7853   -9.6981    0.3761 C   0  0  0  0  0  0  0  0  0  0  0  0
    0.2140  -10.5902    1.1149 C   0  0  0  0  0  0  0  0  0  0  0  0
   -3.1484  -10.6428    0.0550 C   0  0  0  0  0  0  0  0  0  0  0  0
   -2.9641  -11.0584   -1.2063 F   0  0  0  0  0  0  0  0  0  0  0  0
   -4.3710  -10.8144    0.7486 C   0  0  0  0  0  0  0  0  0  0  0  0
   -5.4482  -11.3720    0.1826 F   0  0  0  0  0  0  0  0  0  0  0  0
   -6.1161  -11.5064    3.2824 C   0  0  0  0  0  0  0  0  0  0  0  0
   -7.1602  -11.5784    4.2422 C   0  0  0  0  0  0  0  0  0  0  0  0
   -7.5622  -10.4159    4.9338 C   0  0  0  0  0  0  0  0  0  0  0  0
   -8.6783  -10.4326    5.8595 C   0  0  0  0  0  0  0  0  0  0  0  0
   -8.6064   -9.6376    7.4037 S   0  0  0  0  0  0  0  0  0  0  0  0
  -10.2307  -10.0747    7.8023 C   0  0  0  0  0  0  0  0  0  0  0  0
  -10.8691   -9.6313    9.0719 C   0  0  0  0  0  0  0  0  0  0  0  0
  -11.1360   -8.1248    9.0492 C   0  0  0  0  0  0  0  0  0  0  0  0
  -10.7864  -10.7888    6.7830 C   0  0  0  0  0  0  0  0  0  0  0  0
   -9.9128  -11.0001    5.6899 C   0  0  0  0  0  0  0  0  0  0  0  0
  -10.2909  -11.6369    4.5745 F   0  0  0  0  0  0  0  0  0  0  0  0
  -12.0453  -11.2449    6.8074 F   0  0  0  0  0  0  0  0  0  0  0  0
   -6.8465   -9.2573    4.6768 C   0  0  0  0  0  0  0  0  0  0  0  0
   -7.1489   -7.7096    5.4149 S   0  0  0  0  0  0  0  0  0  0  0  0
   -7.6348  -12.8935    4.4155 C   0  0  0  0  0  0  0  0  0  0  0  0
   -7.0127  -13.8129    3.6095 C   0  0  0  0  0  0  0  0  0  0  0  0
   -5.7929  -13.0644    2.5913 S   0  0  0  0  0  0  0  0  0  0  0  0
   -7.2204  -15.2105    3.4941 C   0  0  0  0  0  0  0  0  0  0  0  0
   -8.0309  -15.9826    4.2716 C   0  0  0  0  0  0  0  0  0  0  0  0
   -8.1418  -17.3697    4.0239 C   0  0  0  0  0  0  0  0  0  0  0  0
   -8.2295  -18.4949    3.8231 N   0  0  0  0  0  0  0  0  0  0  0  0
   -8.7874  -15.5306    5.3731 C   0  0  0  0  0  0  0  0  0  0  0  0
   -9.3961  -15.2065    6.2902 N   0  0  0  0  0  0  0  0  0  0  0  0
    4.6620    4.9731   -7.6035 H   0  0  0  0  0  0  0  0  0  0  0  0
    9.0212    8.6985   -5.1236 H   0  0  0  0  0  0  0  0  0  0  0  0
    9.8121    6.1364   -9.4196 H   0  0  0  0  0  0  0  0  0  0  0  0
   11.9909    8.7802   -9.1749 H   0  0  0  0  0  0  0  0  0  0  0  0
   13.2923    6.5249   -8.6114 H   0  0  0  0  0  0  0  0  0  0  0  0
   15.0112    8.5117   -8.5441 H   0  0  0  0  0  0  0  0  0  0  0  0
   14.6354    9.8539   -6.2826 H   0  0  0  0  0  0  0  0  0  0  0  0
   12.6861    8.6939   -4.9573 H   0  0  0  0  0  0  0  0  0  0  0  0
   13.7539    6.5103   -6.0043 H   0  0  0  0  0  0  0  0  0  0  0  0
   11.9932    6.4500   -6.2640 H   0  0  0  0  0  0  0  0  0  0  0  0
   11.6294   10.1001   -6.9603 H   0  0  0  0  0  0  0  0  0  0  0  0
    8.6260    5.7756   -3.7127 H   0  0  0  0  0  0  0  0  0  0  0  0
   10.4433    4.8436   -5.0717 H   0  0  0  0  0  0  0  0  0  0  0  0
   10.3308    1.7391   -6.8572 H   0  0  0  0  0  0  0  0  0  0  0  0
   11.2787    3.2126   -6.5978 H   0  0  0  0  0  0  0  0  0  0  0  0
   10.1300    3.1136   -7.9340 H   0  0  0  0  0  0  0  0  0  0  0  0
    7.7422    1.9833   -6.7219 H   0  0  0  0  0  0  0  0  0  0  0  0
    5.9275    2.9031   -5.3682 H   0  0  0  0  0  0  0  0  0  0  0  0
    7.3514    3.5049   -1.9293 H   0  0  0  0  0  0  0  0  0  0  0  0
    7.9503    4.1595    0.3659 H   0  0  0  0  0  0  0  0  0  0  0  0
    6.7334    6.1526    2.3053 H   0  0  0  0  0  0  0  0  0  0  0  0
    8.4431    6.0861    1.8929 H   0  0  0  0  0  0  0  0  0  0  0  0
    7.5434    7.5995    1.7077 H   0  0  0  0  0  0  0  0  0  0  0  0
    6.2339    8.0079   -0.2817 H   0  0  0  0  0  0  0  0  0  0  0  0
    5.6165    7.3455   -2.5817 H   0  0  0  0  0  0  0  0  0  0  0  0
    1.3320    2.5087   -4.3409 H   0  0  0  0  0  0  0  0  0  0  0  0
    0.9283    1.2598   -6.4154 H   0  0  0  0  0  0  0  0  0  0  0  0
   -0.0569    1.9202   -9.0348 H   0  0  0  0  0  0  0  0  0  0  0  0
   -0.9523    0.6926   -8.1480 H   0  0  0  0  0  0  0  0  0  0  0  0
   -1.8045    2.0807   -8.8401 H   0  0  0  0  0  0  0  0  0  0  0  0
   -2.2031    3.9669   -7.4415 H   0  0  0  0  0  0  0  0  0  0  0  0
   -1.7783    5.2430   -5.3870 H   0  0  0  0  0  0  0  0  0  0  0  0
   -0.0166    7.1032   -2.4170 H   0  0  0  0  0  0  0  0  0  0  0  0
   -1.8617    7.9959   -1.0792 H   0  0  0  0  0  0  0  0  0  0  0  0
   -5.1584    6.5054   -0.7853 H   0  0  0  0  0  0  0  0  0  0  0  0
   -4.1149    7.8352   -0.2583 H   0  0  0  0  0  0  0  0  0  0  0  0
   -4.1049    6.2994    0.6100 H   0  0  0  0  0  0  0  0  0  0  0  0
   -4.0624    4.3928   -1.6910 H   0  0  0  0  0  0  0  0  0  0  0  0
   -2.2330    3.5154   -3.0847 H   0  0  0  0  0  0  0  0  0  0  0  0
   -1.3364    7.0291    1.3154 H   0  0  0  0  0  0  0  0  0  0  0  0
   -0.9596    9.3908    1.8467 H   0  0  0  0  0  0  0  0  0  0  0  0
    1.2622   10.4012    1.5030 H   0  0  0  0  0  0  0  0  0  0  0  0
    4.0093    8.7454   -0.2360 H   0  0  0  0  0  0  0  0  0  0  0  0
    3.4435   10.2585    0.4896 H   0  0  0  0  0  0  0  0  0  0  0  0
    3.8814    9.3020    2.7688 H   0  0  0  0  0  0  0  0  0  0  0  0
    5.3494    9.3714    1.7920 H   0  0  0  0  0  0  0  0  0  0  0  0
    4.5054    7.8331    2.0167 H   0  0  0  0  0  0  0  0  0  0  0  0
    2.7659    6.6413    0.1817 H   0  0  0  0  0  0  0  0  0  0  0  0
   -5.6158   -6.2828    7.5355 H   0  0  0  0  0  0  0  0  0  0  0  0
   -7.0610   -6.6306    9.4996 H   0  0  0  0  0  0  0  0  0  0  0  0
   -9.1960   -5.4169    9.6939 H   0  0  0  0  0  0  0  0  0  0  0  0
  -10.9595   -4.1557    8.6006 H   0  0  0  0  0  0  0  0  0  0  0  0
  -10.7211   -3.4917    6.9774 H   0  0  0  0  0  0  0  0  0  0  0  0
  -10.8748   -1.6647    8.6497 H   0  0  0  0  0  0  0  0  0  0  0  0
   -9.5187   -2.3546    9.5479 H   0  0  0  0  0  0  0  0  0  0  0  0
   -9.2602   -1.7011    7.9315 H   0  0  0  0  0  0  0  0  0  0  0  0
   -8.4787   -3.5524    5.9264 H   0  0  0  0  0  0  0  0  0  0  0  0
   -2.8241   -0.4817    0.5182 H   0  0  0  0  0  0  0  0  0  0  0  0
   -1.3398    0.2218   -0.1829 H   0  0  0  0  0  0  0  0  0  0  0  0
   -3.3616    0.6881   -1.5666 H   0  0  0  0  0  0  0  0  0  0  0  0
   -2.6708    2.1890   -0.9454 H   0  0  0  0  0  0  0  0  0  0  0  0
   -4.1184    1.5075   -0.1945 H   0  0  0  0  0  0  0  0  0  0  0  0
   -1.6319   -1.4067    1.8748 H   0  0  0  0  0  0  0  0  0  0  0  0
   -2.6192   -2.8897    1.7801 H   0  0  0  0  0  0  0  0  0  0  0  0
   -1.0783   -1.9262    4.2450 H   0  0  0  0  0  0  0  0  0  0  0  0
   -0.5211   -3.1747    3.1248 H   0  0  0  0  0  0  0  0  0  0  0  0
   -1.9562   -3.4542    4.1106 H   0  0  0  0  0  0  0  0  0  0  0  0
   -4.4402   -7.6081    3.0026 H   0  0  0  0  0  0  0  0  0  0  0  0
   -0.6950   -9.8534   -0.7007 H   0  0  0  0  0  0  0  0  0  0  0  0
   -0.5655   -8.6509    0.5965 H   0  0  0  0  0  0  0  0  0  0  0  0
    1.2269  -10.3541    0.8007 H   0  0  0  0  0  0  0  0  0  0  0  0
    0.1354  -10.4359    2.1887 H   0  0  0  0  0  0  0  0  0  0  0  0
    0.0189  -11.6377    0.8987 H   0  0  0  0  0  0  0  0  0  0  0  0
  -11.8068  -10.1756    9.1978 H   0  0  0  0  0  0  0  0  0  0  0  0
  -10.2129   -9.8695    9.9118 H   0  0  0  0  0  0  0  0  0  0  0  0
  -11.5720   -7.8099    9.9935 H   0  0  0  0  0  0  0  0  0  0  0  0
  -10.2074   -7.5814    8.8879 H   0  0  0  0  0  0  0  0  0  0  0  0
  -11.8260   -7.8741    8.2472 H   0  0  0  0  0  0  0  0  0  0  0  0
   -8.4037  -13.1589    5.1157 H   0  0  0  0  0  0  0  0  0  0  0  0
   -6.6697  -15.7099    2.7061 H   0  0  0  0  0  0  0  0  0  0  0  0
  1  2  2  0  0  0  0
  2  3  1  0  0  0  0
  3  4  2  0  0  0  0
  3  5  1  0  0  0  0
  5  6  2  0  0  0  0
  6  7  1  0  0  0  0
  7  8  2  0  0  0  0
  8  9  1  0  0  0  0
  9 10  2  0  0  0  0
 10 11  1  0  0  0  0
 11 12  2  0  0  0  0
 12 13  1  0  0  0  0
 13 14  3  0  0  0  0
 12 15  1  0  0  0  0
 15 16  3  0  0  0  0
  8 17  1  0  0  0  0
 17 18  1  0  0  0  0
 18 19  1  0  0  0  0
 19 20  2  0  0  0  0
 20 21  1  0  0  0  0
 21 22  1  0  0  0  0
 21 23  1  0  0  0  0
  1 24  1  0  0  0  0
 24 25  2  0  0  0  0
 25 26  1  0  0  0  0
 26 27  1  0  0  0  0
 27 28  2  0  0  0  0
 28 29  1  0  0  0  0
 29 30  2  0  0  0  0
 30 31  1  0  0  0  0
 30 32  1  0  0  0  0
 32 33  2  0  0  0  0
 26 34  1  0  0  0  0
 34 35  2  0  0  0  0
 35 36  1  0  0  0  0
 36 37  2  0  0  0  0
 37 38  1  0  0  0  0
 37 39  1  0  0  0  0
 39 40  2  0  0  0  0
 25 41  1  0  0  0  0
 41 42  1  0  0  0  0
 42 43  1  0  0  0  0
 43 44  2  0  0  0  0
 44 45  1  0  0  0  0
 45 46  1  0  0  0  0
 46 47  2  0  0  0  0
 47 48  1  0  0  0  0
 48 49  2  0  0  0  0
 49 50  1  0  0  0  0
 49 51  1  0  0  0  0
 51 52  2  0  0  0  0
 45 53  1  0  0  0  0
 53 54  2  0  0  0  0
 54 55  1  0  0  0  0
 55 56  2  0  0  0  0
 56 57  1  0  0  0  0
 56 58  1  0  0  0  0
 58 59  2  0  0  0  0
 44 60  1  0  0  0  0
 60 61  1  0  0  0  0
 43 62  1  0  0  0  0
 62 63  2  0  0  0  0
 63 64  1  0  0  0  0
 64 65  2  0  0  0  0
 65 66  1  0  0  0  0
 66 67  2  0  0  0  0
 67 68  1  0  0  0  0
 68 69  1  0  0  0  0
 69 70  1  0  0  0  0
 68 71  2  0  0  0  0
 63 72  1  0  0  0  0
 72 73  1  0  0  0  0
 73 74  1  0  0  0  0
 74 75  1  0  0  0  0
 75 76  1  0  0  0  0
 76 77  1  0  0  0  0
 77 78  2  0  0  0  0
 78 79  1  0  0  0  0
 79 80  1  0  0  0  0
 77 81  1  0  0  0  0
 81 82  1  0  0  0  0
 82 83  1  0  0  0  0
 83 84  1  0  0  0  0
 84 85  1  0  0  0  0
 85 86  1  0  0  0  0
 86 87  2  0  0  0  0
 87 88  1  0  0  0  0
 88 89  2  0  0  0  0
 89 90  1  0  0  0  0
 90 91  1  0  0  0  0
 91 92  1  0  0  0  0
 90 93  2  0  0  0  0
 85 94  2  0  0  0  0
 94 95  1  0  0  0  0
 95 96  1  0  0  0  0
 96 97  1  0  0  0  0
 97 98  1  0  0  0  0
 98 99  1  0  0  0  0
 99100  1  0  0  0  0
100101  1  0  0  0  0
101102  1  0  0  0  0
102103  1  0  0  0  0
103104  1  0  0  0  0
101105  1  0  0  0  0
105106  1  0  0  0  0
 98107  1  0  0  0  0
107108  1  0  0  0  0
 94109  1  0  0  0  0
109110  2  0  0  0  0
110111  1  0  0  0  0
111112  2  0  0  0  0
112113  1  0  0  0  0
113114  1  0  0  0  0
114115  1  0  0  0  0
115116  1  0  0  0  0
116117  1  0  0  0  0
115118  2  0  0  0  0
118119  1  0  0  0  0
118120  1  0  0  0  0
120121  1  0  0  0  0
112122  1  0  0  0  0
122123  2  0  0  0  0
123124  1  0  0  0  0
124125  1  0  0  0  0
125126  1  0  0  0  0
126127  1  0  0  0  0
127128  1  0  0  0  0
128129  1  0  0  0  0
127130  2  0  0  0  0
130131  1  0  0  0  0
131132  1  0  0  0  0
130133  1  0  0  0  0
124134  2  0  0  0  0
134135  1  0  0  0  0
123136  1  0  0  0  0
136137  2  0  0  0  0
137138  1  0  0  0  0
137139  1  0  0  0  0
139140  2  0  0  0  0
140141  1  0  0  0  0
141142  3  0  0  0  0
140143  1  0  0  0  0
143144  3  0  0  0  0
 11  2  1  0  0  0  0
 23 17  1  0  0  0  0
 61 24  1  0  0  0  0
104 62  1  0  0  0  0
135109  1  0  0  0  0
 10  5  1  0  0  0  0
 22 18  1  0  0  0  0
 33 27  1  0  0  0  0
 40 34  1  0  0  0  0
 60 41  2  0  0  0  0
 71 64  1  0  0  0  0
103 72  2  0  0  0  0
134111  1  0  0  0  0
 23  7  1  0  0  0  0
 52 46  1  0  0  0  0
 59 53  1  0  0  0  0
102 74  2  0  0  0  0
120113  2  0  0  0  0
138122  1  0  0  0  0
100 75  2  0  0  0  0
131125  2  0  0  0  0
 80 76  2  0  0  0  0
 99 81  2  0  0  0  0
 97 82  2  0  0  0  0
 96 84  2  0  0  0  0
 93 86  1  0  0  0  0
  1145  1  0  0  0  0
  6146  1  0  0  0  0
  9147  1  0  0  0  0
 17148  1  0  0  0  0
 18149  1  0  0  0  0
 19150  1  0  0  0  0
 20151  1  0  0  0  0
 21152  1  0  0  0  0
 22153  1  0  0  0  0
 22154  1  0  0  0  0
 23155  1  0  0  0  0
 28156  1  0  0  0  0
 29157  1  0  0  0  0
 31158  1  0  0  0  0
 31159  1  0  0  0  0
 31160  1  0  0  0  0
 32161  1  0  0  0  0
 33162  1  0  0  0  0
 35163  1  0  0  0  0
 36164  1  0  0  0  0
 38165  1  0  0  0  0
 38166  1  0  0  0  0
 38167  1  0  0  0  0
 39168  1  0  0  0  0
 40169  1  0  0  0  0
 47170  1  0  0  0  0
 48171  1  0  0  0  0
 50172  1  0  0  0  0
 50173  1  0  0  0  0
 50174  1  0  0  0  0
 51175  1  0  0  0  0
 52176  1  0  0  0  0
 54177  1  0  0  0  0
 55178  1  0  0  0  0
 57179  1  0  0  0  0
 57180  1  0  0  0  0
 57181  1  0  0  0  0
 58182  1  0  0  0  0
 59183  1  0  0  0  0
 65184  1  0  0  0  0
 66185  1  0  0  0  0
 67186  1  0  0  0  0
 69187  1  0  0  0  0
 69188  1  0  0  0  0
 70189  1  0  0  0  0
 70190  1  0  0  0  0
 70191  1  0  0  0  0
 71192  1  0  0  0  0
 87193  1  0  0  0  0
 88194  1  0  0  0  0
 89195  1  0  0  0  0
 91196  1  0  0  0  0
 91197  1  0  0  0  0
 92198  1  0  0  0  0
 92199  1  0  0  0  0
 92200  1  0  0  0  0
 93201  1  0  0  0  0
105202  1  0  0  0  0
105203  1  0  0  0  0
106204  1  0  0  0  0
106205  1  0  0  0  0
106206  1  0  0  0  0
107207  1  0  0  0  0
107208  1  0  0  0  0
108209  1  0  0  0  0
108210  1  0  0  0  0
108211  1  0  0  0  0
110212  1  0  0  0  0
116213  1  0  0  0  0
116214  1  0  0  0  0
117215  1  0  0  0  0
117216  1  0  0  0  0
117217  1  0  0  0  0
128218  1  0  0  0  0
128219  1  0  0  0  0
129220  1  0  0  0  0
129221  1  0  0  0  0
129222  1  0  0  0  0
136223  1  0  0  0  0
139224  1  0  0  0  0
M  END
