
  xtb     02222202223D
 energy: -422.860219597568 gnorm: 0.000378352333 xtb: 6.4.1 (unknown)
253283  0     0  0            999 V2000
    1.8627    5.4965   -0.2769 C   0  0  0  0  0  0  0  0  0  0  0  0
    0.4933    5.4034   -0.3295 C   0  0  0  0  0  0  0  0  0  0  0  0
   -0.3304    4.3412    0.2586 C   0  0  0  0  0  0  0  0  0  0  0  0
   -0.0331    3.5777    1.1606 O   0  0  0  0  0  0  0  0  0  0  0  0
   -1.6123    4.3711   -0.4769 C   0  0  0  0  0  0  0  0  0  0  0  0
   -2.6725    3.4752   -0.3651 C   0  0  0  0  0  0  0  0  0  0  0  0
   -3.7200    3.7320   -1.2183 C   0  0  0  0  0  0  0  0  0  0  0  0
   -3.7170    4.8099   -2.1118 C   0  0  0  0  0  0  0  0  0  0  0  0
   -2.6802    5.7054   -2.2300 C   0  0  0  0  0  0  0  0  0  0  0  0
   -1.6012    5.4537   -1.3798 C   0  0  0  0  0  0  0  0  0  0  0  0
   -0.3248    6.1547   -1.2514 C   0  0  0  0  0  0  0  0  0  0  0  0
    0.0329    7.3019   -1.9169 C   0  0  0  0  0  0  0  0  0  0  0  0
   -0.7363    7.9164   -2.9219 C   0  0  0  0  0  0  0  0  0  0  0  0
   -1.2844    8.4489   -3.7806 N   0  0  0  0  0  0  0  0  0  0  0  0
    1.2132    8.0352   -1.6847 C   0  0  0  0  0  0  0  0  0  0  0  0
    2.1305    8.7117   -1.5353 N   0  0  0  0  0  0  0  0  0  0  0  0
   -5.0749    4.4600   -2.6656 C   0  0  0  0  0  0  0  0  0  0  0  0
   -6.2884    5.2934   -2.1879 C   0  0  0  0  0  0  0  0  0  0  0  0
   -5.9492    5.8095   -0.8116 C   0  0  0  0  0  0  0  0  0  0  0  0
   -5.9601    4.7787    0.0226 C   0  0  0  0  0  0  0  0  0  0  0  0
   -6.3020    3.5458   -0.7765 C   0  0  0  0  0  0  0  0  0  0  0  0
   -7.2524    4.1548   -1.8202 C   0  0  0  0  0  0  0  0  0  0  0  0
   -5.0769    3.2516   -1.6766 C   0  0  0  0  0  0  0  0  0  0  0  0
    2.7975    4.6582    0.3364 C   0  0  0  0  0  0  0  0  0  0  0  0
    4.1422    4.5469   -0.0899 C   0  0  0  0  0  0  0  0  0  0  0  0
    4.6992    5.1889   -1.1697 N   0  0  0  0  0  0  0  0  0  0  0  0
    3.9539    5.4900   -2.3266 C   0  0  0  0  0  0  0  0  0  0  0  0
    4.1196    6.7136   -2.9698 C   0  0  0  0  0  0  0  0  0  0  0  0
    3.3440    7.0276   -4.0680 C   0  0  0  0  0  0  0  0  0  0  0  0
    2.3838    6.1442   -4.5484 C   0  0  0  0  0  0  0  0  0  0  0  0
    1.5080    6.5262   -5.7010 C   0  0  0  0  0  0  0  0  0  0  0  0
    2.2518    4.9103   -3.9207 C   0  0  0  0  0  0  0  0  0  0  0  0
    3.0323    4.5754   -2.8322 C   0  0  0  0  0  0  0  0  0  0  0  0
    6.0571    5.5495   -1.1247 C   0  0  0  0  0  0  0  0  0  0  0  0
    6.8537    5.4437   -2.2609 C   0  0  0  0  0  0  0  0  0  0  0  0
    8.1648    5.8753   -2.2306 C   0  0  0  0  0  0  0  0  0  0  0  0
    8.7174    6.4150   -1.0758 C   0  0  0  0  0  0  0  0  0  0  0  0
   10.1105    6.9659   -1.0657 C   0  0  0  0  0  0  0  0  0  0  0  0
    7.9262    6.4782    0.0655 C   0  0  0  0  0  0  0  0  0  0  0  0
    6.6128    6.0561    0.0479 C   0  0  0  0  0  0  0  0  0  0  0  0
    4.8353    3.6115    0.6913 C   0  0  0  0  0  0  0  0  0  0  0  0
    6.3989    2.8661    0.5549 S   0  0  0  0  0  0  0  0  0  0  0  0
    5.9890    1.7356    1.8424 C   0  0  0  0  0  0  0  0  0  0  0  0
    4.7616    2.0460    2.4353 C   0  0  0  0  0  0  0  0  0  0  0  0
    4.2282    1.4037    3.5468 N   0  0  0  0  0  0  0  0  0  0  0  0
    4.9074    1.3979    4.7701 C   0  0  0  0  0  0  0  0  0  0  0  0
    4.5329    0.4907    5.7609 C   0  0  0  0  0  0  0  0  0  0  0  0
    5.2089    0.4505    6.9630 C   0  0  0  0  0  0  0  0  0  0  0  0
    6.2812    1.2975    7.2137 C   0  0  0  0  0  0  0  0  0  0  0  0
    7.0116    1.2628    8.5212 C   0  0  0  0  0  0  0  0  0  0  0  0
    6.6525    2.1955    6.2201 C   0  0  0  0  0  0  0  0  0  0  0  0
    5.9794    2.2527    5.0165 C   0  0  0  0  0  0  0  0  0  0  0  0
    2.8355    1.1697    3.5008 C   0  0  0  0  0  0  0  0  0  0  0  0
    2.3064    0.4873    2.4101 C   0  0  0  0  0  0  0  0  0  0  0  0
    0.9395    0.3473    2.2759 C   0  0  0  0  0  0  0  0  0  0  0  0
    0.0718    0.8796    3.2210 C   0  0  0  0  0  0  0  0  0  0  0  0
   -1.4084    0.8418    3.0097 C   0  0  0  0  0  0  0  0  0  0  0  0
    0.6123    1.5115    4.3346 C   0  0  0  0  0  0  0  0  0  0  0  0
    1.9771    1.6608    4.4788 C   0  0  0  0  0  0  0  0  0  0  0  0
    4.0818    3.0578    1.7205 C   0  0  0  0  0  0  0  0  0  0  0  0
    2.4385    3.5890    1.6909 S   0  0  0  0  0  0  0  0  0  0  0  0
    6.6677    0.4976    1.9796 C   0  0  0  0  0  0  0  0  0  0  0  0
    7.5144   -0.1096    1.0511 C   0  0  0  0  0  0  0  0  0  0  0  0
    8.2691    0.6065    0.0246 C   0  0  0  0  0  0  0  0  0  0  0  0
    8.2297    0.1975   -1.3053 C   0  0  0  0  0  0  0  0  0  0  0  0
    8.9568    0.8861   -2.2567 C   0  0  0  0  0  0  0  0  0  0  0  0
    9.7337    1.9724   -1.8928 C   0  0  0  0  0  0  0  0  0  0  0  0
    9.7980    2.3840   -0.5682 C   0  0  0  0  0  0  0  0  0  0  0  0
   10.6786    3.5262   -0.1552 C   0  0  0  0  0  0  0  0  0  0  0  0
   12.0093    3.0123    0.3971 C   0  0  0  0  0  0  0  0  0  0  0  0
    9.0634    1.6928    0.3823 C   0  0  0  0  0  0  0  0  0  0  0  0
    7.5135   -1.5094    1.1979 C   0  0  0  0  0  0  0  0  0  0  0  0
    8.0268   -2.8320    0.1611 S   0  0  0  0  0  0  0  0  0  0  0  0
    7.1156   -3.9443    1.1425 C   0  0  0  0  0  0  0  0  0  0  0  0
    6.5357   -5.2296    1.0607 C   0  0  0  0  0  0  0  0  0  0  0  0
    6.5821   -6.2582    0.0915 C   0  0  0  0  0  0  0  0  0  0  0  0
    5.5809   -7.2975    0.1166 C   0  0  0  0  0  0  0  0  0  0  0  0
    5.7362   -8.1669   -0.8674 N   0  0  0  0  0  0  0  0  0  0  0  0
    7.0245   -7.7311   -1.7470 S   0  0  0  0  0  0  0  0  0  0  0  0
    7.4287   -6.4033   -0.9139 N   0  0  0  0  0  0  0  0  0  0  0  0
    4.5231   -7.2150    1.0533 C   0  0  0  0  0  0  0  0  0  0  0  0
    3.2180   -7.7468    1.0503 C   0  0  0  0  0  0  0  0  0  0  0  0
    2.1706   -8.6814    0.0214 S   0  0  0  0  0  0  0  0  0  0  0  0
    0.7729   -8.0694    0.8931 C   0  0  0  0  0  0  0  0  0  0  0  0
   -0.6153   -8.0614    0.6356 C   0  0  0  0  0  0  0  0  0  0  0  0
   -1.2867   -8.8049   -0.4300 C   0  0  0  0  0  0  0  0  0  0  0  0
   -2.4600   -9.5044   -0.1528 C   0  0  0  0  0  0  0  0  0  0  0  0
   -3.0978  -10.2050   -1.1573 C   0  0  0  0  0  0  0  0  0  0  0  0
   -2.5855  -10.2038   -2.4437 C   0  0  0  0  0  0  0  0  0  0  0  0
   -1.4170   -9.5124   -2.7370 C   0  0  0  0  0  0  0  0  0  0  0  0
   -0.8307   -9.5474   -4.1180 C   0  0  0  0  0  0  0  0  0  0  0  0
    0.1880  -10.6833   -4.2301 C   0  0  0  0  0  0  0  0  0  0  0  0
   -0.7687   -8.8266   -1.7199 C   0  0  0  0  0  0  0  0  0  0  0  0
   -1.2809   -7.2240    1.5205 C   0  0  0  0  0  0  0  0  0  0  0  0
   -0.2194   -6.5615    2.7530 S   0  0  0  0  0  0  0  0  0  0  0  0
    1.1416   -7.2797    1.9839 C   0  0  0  0  0  0  0  0  0  0  0  0
    2.5219   -7.0928    2.0701 C   0  0  0  0  0  0  0  0  0  0  0  0
    3.3420   -6.2278    2.7405 N   0  0  0  0  0  0  0  0  0  0  0  0
    4.5644   -6.2471    2.0959 C   0  0  0  0  0  0  0  0  0  0  0  0
    5.6368   -5.3295    2.1570 C   0  0  0  0  0  0  0  0  0  0  0  0
    5.7568   -4.2001    2.9525 N   0  0  0  0  0  0  0  0  0  0  0  0
    6.5791   -3.3338    2.2783 C   0  0  0  0  0  0  0  0  0  0  0  0
    6.7808   -1.9534    2.2982 C   0  0  0  0  0  0  0  0  0  0  0  0
    6.0308   -0.6569    3.1494 S   0  0  0  0  0  0  0  0  0  0  0  0
    5.6340   -4.1219    4.3943 C   0  0  0  0  0  0  0  0  0  0  0  0
    6.9742   -3.8107    5.0582 C   0  0  0  0  0  0  0  0  0  0  0  0
    2.7482   -5.2265    3.5985 C   0  0  0  0  0  0  0  0  0  0  0  0
    2.4624   -3.9277    2.8475 C   0  0  0  0  0  0  0  0  0  0  0  0
   -2.5394   -6.5693    1.4019 C   0  0  0  0  0  0  0  0  0  0  0  0
   -3.3566   -6.4362    0.3130 C   0  0  0  0  0  0  0  0  0  0  0  0
   -4.3104   -5.3972    0.4355 C   0  0  0  0  0  0  0  0  0  0  0  0
   -5.2140   -4.9177   -0.5381 C   0  0  0  0  0  0  0  0  0  0  0  0
   -5.4030   -5.6078   -1.7944 C   0  0  0  0  0  0  0  0  0  0  0  0
   -5.6614   -5.0880   -3.0337 C   0  0  0  0  0  0  0  0  0  0  0  0
   -5.8074   -6.0790   -4.0185 C   0  0  0  0  0  0  0  0  0  0  0  0
   -6.0494   -5.7794   -5.3026 F   0  0  0  0  0  0  0  0  0  0  0  0
   -5.6888   -7.3664   -3.5651 C   0  0  0  0  0  0  0  0  0  0  0  0
   -5.7102   -8.8154   -4.5363 S   0  0  0  0  0  0  0  0  0  0  0  0
   -6.3436  -10.0273   -3.3212 C   0  0  0  0  0  0  0  0  0  0  0  0
   -7.7992   -9.7827   -2.9791 C   0  0  0  0  0  0  0  0  0  0  0  0
   -5.3543   -7.3546   -1.8617 S   0  0  0  0  0  0  0  0  0  0  0  0
   -5.8896   -3.7318   -0.2376 C   0  0  0  0  0  0  0  0  0  0  0  0
   -5.7294   -3.0459    0.9963 C   0  0  0  0  0  0  0  0  0  0  0  0
   -4.8527   -3.5458    1.9875 C   0  0  0  0  0  0  0  0  0  0  0  0
   -4.5742   -2.8166    3.2072 C   0  0  0  0  0  0  0  0  0  0  0  0
   -2.9095   -2.5684    3.6772 S   0  0  0  0  0  0  0  0  0  0  0  0
   -3.3710   -1.6725    5.0856 C   0  0  0  0  0  0  0  0  0  0  0  0
   -2.2331   -0.9611    6.2018 S   0  0  0  0  0  0  0  0  0  0  0  0
   -0.6532   -1.6936    5.6472 C   0  0  0  0  0  0  0  0  0  0  0  0
   -0.5087   -3.1462    6.0570 C   0  0  0  0  0  0  0  0  0  0  0  0
   -4.7380   -1.5820    5.1484 C   0  0  0  0  0  0  0  0  0  0  0  0
   -5.4206   -2.2107    4.0913 C   0  0  0  0  0  0  0  0  0  0  0  0
   -5.3827   -0.9529    6.1422 F   0  0  0  0  0  0  0  0  0  0  0  0
   -4.1759   -4.7086    1.6695 C   0  0  0  0  0  0  0  0  0  0  0  0
   -2.9888   -5.4676    2.6899 S   0  0  0  0  0  0  0  0  0  0  0  0
   -6.4650   -1.8538    1.0303 C   0  0  0  0  0  0  0  0  0  0  0  0
   -7.1720   -1.5933   -0.1272 C   0  0  0  0  0  0  0  0  0  0  0  0
   -6.9488   -2.8632   -1.3123 S   0  0  0  0  0  0  0  0  0  0  0  0
   -7.9480   -0.4225   -0.2700 C   0  0  0  0  0  0  0  0  0  0  0  0
   -8.5804    0.0932   -1.3630 C   0  0  0  0  0  0  0  0  0  0  0  0
   -8.5167   -0.4433   -2.7357 C   0  0  0  0  0  0  0  0  0  0  0  0
   -8.0552   -1.5095   -3.0938 O   0  0  0  0  0  0  0  0  0  0  0  0
   -9.1117    0.5872   -3.6024 C   0  0  0  0  0  0  0  0  0  0  0  0
   -9.1701    0.5769   -4.9943 C   0  0  0  0  0  0  0  0  0  0  0  0
   -9.7443    1.7009   -5.5372 C   0  0  0  0  0  0  0  0  0  0  0  0
  -10.2459    2.7487   -4.7522 C   0  0  0  0  0  0  0  0  0  0  0  0
  -10.2058    2.7657   -3.3789 C   0  0  0  0  0  0  0  0  0  0  0  0
   -9.6027    1.6419   -2.8055 C   0  0  0  0  0  0  0  0  0  0  0  0
   -9.3248    1.3400   -1.4043 C   0  0  0  0  0  0  0  0  0  0  0  0
   -9.7208    2.0974   -0.3332 C   0  0  0  0  0  0  0  0  0  0  0  0
  -10.4648    3.2923   -0.4306 C   0  0  0  0  0  0  0  0  0  0  0  0
  -11.0658    4.2706   -0.4306 N   0  0  0  0  0  0  0  0  0  0  0  0
   -9.4630    1.8027    1.0223 C   0  0  0  0  0  0  0  0  0  0  0  0
   -9.2952    1.6369    2.1465 N   0  0  0  0  0  0  0  0  0  0  0  0
  -10.6485    3.5638   -5.9547 C   0  0  0  0  0  0  0  0  0  0  0  0
   -9.7423    4.7598   -6.3393 C   0  0  0  0  0  0  0  0  0  0  0  0
   -8.3630    4.4343   -5.8221 C   0  0  0  0  0  0  0  0  0  0  0  0
   -7.8774    3.4456   -6.5609 C   0  0  0  0  0  0  0  0  0  0  0  0
   -8.9187    3.0859   -7.5919 C   0  0  0  0  0  0  0  0  0  0  0  0
   -9.5465    4.4675   -7.8354 C   0  0  0  0  0  0  0  0  0  0  0  0
  -10.0812    2.4012   -6.8290 C   0  0  0  0  0  0  0  0  0  0  0  0
    2.3037    6.2684   -0.8940 H   0  0  0  0  0  0  0  0  0  0  0  0
   -2.6352    2.6524    0.3321 H   0  0  0  0  0  0  0  0  0  0  0  0
   -2.6894    6.5255   -2.9284 H   0  0  0  0  0  0  0  0  0  0  0  0
   -5.1156    4.2456   -3.7323 H   0  0  0  0  0  0  0  0  0  0  0  0
   -6.6362    6.0355   -2.9019 H   0  0  0  0  0  0  0  0  0  0  0  0
   -5.6914    6.8309   -0.6029 H   0  0  0  0  0  0  0  0  0  0  0  0
   -5.7148    4.7648    1.0681 H   0  0  0  0  0  0  0  0  0  0  0  0
   -6.6589    2.6897   -0.2079 H   0  0  0  0  0  0  0  0  0  0  0  0
   -7.4700    3.4863   -2.6540 H   0  0  0  0  0  0  0  0  0  0  0  0
   -8.1822    4.5199   -1.3856 H   0  0  0  0  0  0  0  0  0  0  0  0
   -5.1068    2.2488   -2.1010 H   0  0  0  0  0  0  0  0  0  0  0  0
    4.8366    7.4243   -2.5890 H   0  0  0  0  0  0  0  0  0  0  0  0
    3.4683    7.9883   -4.5446 H   0  0  0  0  0  0  0  0  0  0  0  0
    1.0174    5.6533   -6.1247 H   0  0  0  0  0  0  0  0  0  0  0  0
    2.0882    7.0190   -6.4783 H   0  0  0  0  0  0  0  0  0  0  0  0
    0.7372    7.2241   -5.3712 H   0  0  0  0  0  0  0  0  0  0  0  0
    1.5281    4.1980   -4.2907 H   0  0  0  0  0  0  0  0  0  0  0  0
    2.9174    3.6130   -2.3550 H   0  0  0  0  0  0  0  0  0  0  0  0
    6.4351    5.0334   -3.1677 H   0  0  0  0  0  0  0  0  0  0  0  0
    8.7660    5.7983   -3.1249 H   0  0  0  0  0  0  0  0  0  0  0  0
   10.0754    8.0528   -1.1501 H   0  0  0  0  0  0  0  0  0  0  0  0
   10.6899    6.5835   -1.9023 H   0  0  0  0  0  0  0  0  0  0  0  0
   10.6215    6.7220   -0.1370 H   0  0  0  0  0  0  0  0  0  0  0  0
    8.3383    6.8879    0.9764 H   0  0  0  0  0  0  0  0  0  0  0  0
    6.0015    6.1432    0.9341 H   0  0  0  0  0  0  0  0  0  0  0  0
    3.7121   -0.1857    5.5735 H   0  0  0  0  0  0  0  0  0  0  0  0
    4.9025   -0.2595    7.7181 H   0  0  0  0  0  0  0  0  0  0  0  0
    6.7767    0.3567    9.0743 H   0  0  0  0  0  0  0  0  0  0  0  0
    6.7272    2.1193    9.1332 H   0  0  0  0  0  0  0  0  0  0  0  0
    8.0874    1.3102    8.3633 H   0  0  0  0  0  0  0  0  0  0  0  0
    7.4807    2.8673    6.3943 H   0  0  0  0  0  0  0  0  0  0  0  0
    6.2812    2.9666    4.2644 H   0  0  0  0  0  0  0  0  0  0  0  0
    2.9756    0.0935    1.6582 H   0  0  0  0  0  0  0  0  0  0  0  0
    0.5396   -0.1634    1.4118 H   0  0  0  0  0  0  0  0  0  0  0  0
   -1.9452    0.8511    3.9553 H   0  0  0  0  0  0  0  0  0  0  0  0
   -1.7065   -0.0302    2.4305 H   0  0  0  0  0  0  0  0  0  0  0  0
   -1.6937    1.7355    2.4545 H   0  0  0  0  0  0  0  0  0  0  0  0
   -0.0480    1.9227    5.0841 H   0  0  0  0  0  0  0  0  0  0  0  0
    2.3824    2.1878    5.3301 H   0  0  0  0  0  0  0  0  0  0  0  0
    7.6160   -0.6434   -1.5902 H   0  0  0  0  0  0  0  0  0  0  0  0
    8.9166    0.5741   -3.2900 H   0  0  0  0  0  0  0  0  0  0  0  0
   10.2978    2.5057   -2.6443 H   0  0  0  0  0  0  0  0  0  0  0  0
   10.1707    4.1182    0.6088 H   0  0  0  0  0  0  0  0  0  0  0  0
   10.8690    4.1684   -1.0152 H   0  0  0  0  0  0  0  0  0  0  0  0
   12.6464    3.8433    0.6915 H   0  0  0  0  0  0  0  0  0  0  0  0
   11.8423    2.3783    1.2647 H   0  0  0  0  0  0  0  0  0  0  0  0
   12.5299    2.4268   -0.3574 H   0  0  0  0  0  0  0  0  0  0  0  0
    9.1107    1.9938    1.4197 H   0  0  0  0  0  0  0  0  0  0  0  0
   -2.8599   -9.5000    0.8502 H   0  0  0  0  0  0  0  0  0  0  0  0
   -3.9978  -10.7587   -0.9311 H   0  0  0  0  0  0  0  0  0  0  0  0
   -3.0945  -10.7435   -3.2292 H   0  0  0  0  0  0  0  0  0  0  0  0
   -1.6238   -9.6954   -4.8534 H   0  0  0  0  0  0  0  0  0  0  0  0
   -0.3354   -8.5988   -4.3339 H   0  0  0  0  0  0  0  0  0  0  0  0
    0.6165  -10.7116   -5.2290 H   0  0  0  0  0  0  0  0  0  0  0  0
    0.9912  -10.5428   -3.5102 H   0  0  0  0  0  0  0  0  0  0  0  0
   -0.2886  -11.6403   -4.0291 H   0  0  0  0  0  0  0  0  0  0  0  0
    0.1395   -8.2833   -1.9367 H   0  0  0  0  0  0  0  0  0  0  0  0
    4.9127   -3.3410    4.6606 H   0  0  0  0  0  0  0  0  0  0  0  0
    5.2924   -5.0931    4.7552 H   0  0  0  0  0  0  0  0  0  0  0  0
    6.8622   -3.8663    6.1378 H   0  0  0  0  0  0  0  0  0  0  0  0
    7.3129   -2.8113    4.8009 H   0  0  0  0  0  0  0  0  0  0  0  0
    7.7289   -4.5299    4.7472 H   0  0  0  0  0  0  0  0  0  0  0  0
    3.3753   -5.0416    4.4667 H   0  0  0  0  0  0  0  0  0  0  0  0
    1.8072   -5.6484    3.9608 H   0  0  0  0  0  0  0  0  0  0  0  0
    1.7812   -4.1179    2.0218 H   0  0  0  0  0  0  0  0  0  0  0  0
    3.3777   -3.4983    2.4494 H   0  0  0  0  0  0  0  0  0  0  0  0
    2.0000   -3.2055    3.5149 H   0  0  0  0  0  0  0  0  0  0  0  0
   -3.2036   -7.0072   -0.5828 H   0  0  0  0  0  0  0  0  0  0  0  0
   -5.7291   -4.0406   -3.2594 H   0  0  0  0  0  0  0  0  0  0  0  0
   -5.7026   -9.9672   -2.4422 H   0  0  0  0  0  0  0  0  0  0  0  0
   -6.2073  -10.9930   -3.8065 H   0  0  0  0  0  0  0  0  0  0  0  0
   -8.1475  -10.5458   -2.2861 H   0  0  0  0  0  0  0  0  0  0  0  0
   -7.9260   -8.8088   -2.5110 H   0  0  0  0  0  0  0  0  0  0  0  0
   -8.4125   -9.8191   -3.8764 H   0  0  0  0  0  0  0  0  0  0  0  0
   -0.5887   -1.5637    4.5673 H   0  0  0  0  0  0  0  0  0  0  0  0
    0.1039   -1.0707    6.1234 H   0  0  0  0  0  0  0  0  0  0  0  0
   -1.2566   -3.7663    5.5685 H   0  0  0  0  0  0  0  0  0  0  0  0
   -0.6177   -3.2501    7.1340 H   0  0  0  0  0  0  0  0  0  0  0  0
    0.4753   -3.5108    5.7689 H   0  0  0  0  0  0  0  0  0  0  0  0
   -6.4927   -2.2462    4.0300 H   0  0  0  0  0  0  0  0  0  0  0  0
   -6.4635   -1.1768    1.8657 H   0  0  0  0  0  0  0  0  0  0  0  0
   -7.9995    0.1550    0.6456 H   0  0  0  0  0  0  0  0  0  0  0  0
   -8.7769   -0.2540   -5.5591 H   0  0  0  0  0  0  0  0  0  0  0  0
  -10.5898    3.5833   -2.7927 H   0  0  0  0  0  0  0  0  0  0  0  0
  -11.7072    3.7983   -6.0415 H   0  0  0  0  0  0  0  0  0  0  0  0
  -10.1397    5.7334   -6.0659 H   0  0  0  0  0  0  0  0  0  0  0  0
   -7.9209    4.9035   -4.9627 H   0  0  0  0  0  0  0  0  0  0  0  0
   -6.9464    2.9219   -6.4436 H   0  0  0  0  0  0  0  0  0  0  0  0
   -8.5639    2.5366   -8.4599 H   0  0  0  0  0  0  0  0  0  0  0  0
   -8.8595    5.1637   -8.3140 H   0  0  0  0  0  0  0  0  0  0  0  0
  -10.4795    4.4276   -8.3956 H   0  0  0  0  0  0  0  0  0  0  0  0
  -10.7650    1.8807   -7.4962 H   0  0  0  0  0  0  0  0  0  0  0  0
  1  2  2  0  0  0  0
  2  3  1  0  0  0  0
  3  4  2  0  0  0  0
  3  5  1  0  0  0  0
  5  6  2  0  0  0  0
  6  7  1  0  0  0  0
  7  8  2  0  0  0  0
  8  9  1  0  0  0  0
  9 10  2  0  0  0  0
 10 11  1  0  0  0  0
 11 12  2  0  0  0  0
 12 13  1  0  0  0  0
 13 14  3  0  0  0  0
 12 15  1  0  0  0  0
 15 16  3  0  0  0  0
  8 17  1  0  0  0  0
 17 18  1  0  0  0  0
 18 19  1  0  0  0  0
 19 20  2  0  0  0  0
 20 21  1  0  0  0  0
 21 22  1  0  0  0  0
 21 23  1  0  0  0  0
  1 24  1  0  0  0  0
 24 25  2  0  0  0  0
 25 26  1  0  0  0  0
 26 27  1  0  0  0  0
 27 28  2  0  0  0  0
 28 29  1  0  0  0  0
 29 30  2  0  0  0  0
 30 31  1  0  0  0  0
 30 32  1  0  0  0  0
 32 33  2  0  0  0  0
 26 34  1  0  0  0  0
 34 35  2  0  0  0  0
 35 36  1  0  0  0  0
 36 37  2  0  0  0  0
 37 38  1  0  0  0  0
 37 39  1  0  0  0  0
 39 40  2  0  0  0  0
 25 41  1  0  0  0  0
 41 42  1  0  0  0  0
 42 43  1  0  0  0  0
 43 44  2  0  0  0  0
 44 45  1  0  0  0  0
 45 46  1  0  0  0  0
 46 47  2  0  0  0  0
 47 48  1  0  0  0  0
 48 49  2  0  0  0  0
 49 50  1  0  0  0  0
 49 51  1  0  0  0  0
 51 52  2  0  0  0  0
 45 53  1  0  0  0  0
 53 54  2  0  0  0  0
 54 55  1  0  0  0  0
 55 56  2  0  0  0  0
 56 57  1  0  0  0  0
 56 58  1  0  0  0  0
 58 59  2  0  0  0  0
 44 60  1  0  0  0  0
 60 61  1  0  0  0  0
 43 62  1  0  0  0  0
 62 63  2  0  0  0  0
 63 64  1  0  0  0  0
 64 65  2  0  0  0  0
 65 66  1  0  0  0  0
 66 67  2  0  0  0  0
 67 68  1  0  0  0  0
 68 69  1  0  0  0  0
 69 70  1  0  0  0  0
 68 71  2  0  0  0  0
 63 72  1  0  0  0  0
 72 73  1  0  0  0  0
 73 74  1  0  0  0  0
 74 75  1  0  0  0  0
 75 76  1  0  0  0  0
 76 77  1  0  0  0  0
 77 78  2  0  0  0  0
 78 79  1  0  0  0  0
 79 80  1  0  0  0  0
 77 81  1  0  0  0  0
 81 82  1  0  0  0  0
 82 83  1  0  0  0  0
 83 84  1  0  0  0  0
 84 85  1  0  0  0  0
 85 86  1  0  0  0  0
 86 87  2  0  0  0  0
 87 88  1  0  0  0  0
 88 89  2  0  0  0  0
 89 90  1  0  0  0  0
 90 91  1  0  0  0  0
 91 92  1  0  0  0  0
 90 93  2  0  0  0  0
 85 94  2  0  0  0  0
 94 95  1  0  0  0  0
 95 96  1  0  0  0  0
 96 97  1  0  0  0  0
 97 98  1  0  0  0  0
 98 99  1  0  0  0  0
 99100  1  0  0  0  0
100101  1  0  0  0  0
101102  1  0  0  0  0
102103  1  0  0  0  0
103104  1  0  0  0  0
101105  1  0  0  0  0
105106  1  0  0  0  0
 98107  1  0  0  0  0
107108  1  0  0  0  0
 94109  1  0  0  0  0
109110  2  0  0  0  0
110111  1  0  0  0  0
111112  2  0  0  0  0
112113  1  0  0  0  0
113114  2  0  0  0  0
114115  1  0  0  0  0
115116  1  0  0  0  0
115117  2  0  0  0  0
117118  1  0  0  0  0
118119  1  0  0  0  0
119120  1  0  0  0  0
117121  1  0  0  0  0
112122  1  0  0  0  0
122123  2  0  0  0  0
123124  1  0  0  0  0
124125  1  0  0  0  0
125126  1  0  0  0  0
126127  1  0  0  0  0
127128  1  0  0  0  0
128129  1  0  0  0  0
129130  1  0  0  0  0
127131  2  0  0  0  0
131132  1  0  0  0  0
131133  1  0  0  0  0
124134  2  0  0  0  0
134135  1  0  0  0  0
123136  1  0  0  0  0
136137  2  0  0  0  0
137138  1  0  0  0  0
137139  1  0  0  0  0
139140  2  0  0  0  0
140141  1  0  0  0  0
141142  2  0  0  0  0
141143  1  0  0  0  0
143144  2  0  0  0  0
144145  1  0  0  0  0
145146  2  0  0  0  0
146147  1  0  0  0  0
147148  2  0  0  0  0
148149  1  0  0  0  0
149150  2  0  0  0  0
150151  1  0  0  0  0
151152  3  0  0  0  0
150153  1  0  0  0  0
153154  3  0  0  0  0
146155  1  0  0  0  0
155156  1  0  0  0  0
156157  1  0  0  0  0
157158  2  0  0  0  0
158159  1  0  0  0  0
159160  1  0  0  0  0
159161  1  0  0  0  0
 11  2  1  0  0  0  0
 23 17  1  0  0  0  0
 61 24  1  0  0  0  0
104 62  1  0  0  0  0
135109  1  0  0  0  0
149140  1  0  0  0  0
161155  1  0  0  0  0
 10  5  1  0  0  0  0
 22 18  1  0  0  0  0
 33 27  1  0  0  0  0
 40 34  1  0  0  0  0
 60 41  2  0  0  0  0
 71 64  1  0  0  0  0
103 72  2  0  0  0  0
134111  1  0  0  0  0
148143  1  0  0  0  0
160156  1  0  0  0  0
 23  7  1  0  0  0  0
 52 46  1  0  0  0  0
 59 53  1  0  0  0  0
102 74  2  0  0  0  0
121113  1  0  0  0  0
138122  1  0  0  0  0
161145  1  0  0  0  0
100 75  2  0  0  0  0
132125  2  0  0  0  0
 80 76  2  0  0  0  0
 99 81  2  0  0  0  0
 97 82  2  0  0  0  0
 96 84  2  0  0  0  0
 93 86  1  0  0  0  0
  1162  1  0  0  0  0
  6163  1  0  0  0  0
  9164  1  0  0  0  0
 17165  1  0  0  0  0
 18166  1  0  0  0  0
 19167  1  0  0  0  0
 20168  1  0  0  0  0
 21169  1  0  0  0  0
 22170  1  0  0  0  0
 22171  1  0  0  0  0
 23172  1  0  0  0  0
 28173  1  0  0  0  0
 29174  1  0  0  0  0
 31175  1  0  0  0  0
 31176  1  0  0  0  0
 31177  1  0  0  0  0
 32178  1  0  0  0  0
 33179  1  0  0  0  0
 35180  1  0  0  0  0
 36181  1  0  0  0  0
 38182  1  0  0  0  0
 38183  1  0  0  0  0
 38184  1  0  0  0  0
 39185  1  0  0  0  0
 40186  1  0  0  0  0
 47187  1  0  0  0  0
 48188  1  0  0  0  0
 50189  1  0  0  0  0
 50190  1  0  0  0  0
 50191  1  0  0  0  0
 51192  1  0  0  0  0
 52193  1  0  0  0  0
 54194  1  0  0  0  0
 55195  1  0  0  0  0
 57196  1  0  0  0  0
 57197  1  0  0  0  0
 57198  1  0  0  0  0
 58199  1  0  0  0  0
 59200  1  0  0  0  0
 65201  1  0  0  0  0
 66202  1  0  0  0  0
 67203  1  0  0  0  0
 69204  1  0  0  0  0
 69205  1  0  0  0  0
 70206  1  0  0  0  0
 70207  1  0  0  0  0
 70208  1  0  0  0  0
 71209  1  0  0  0  0
 87210  1  0  0  0  0
 88211  1  0  0  0  0
 89212  1  0  0  0  0
 91213  1  0  0  0  0
 91214  1  0  0  0  0
 92215  1  0  0  0  0
 92216  1  0  0  0  0
 92217  1  0  0  0  0
 93218  1  0  0  0  0
105219  1  0  0  0  0
105220  1  0  0  0  0
106221  1  0  0  0  0
106222  1  0  0  0  0
106223  1  0  0  0  0
107224  1  0  0  0  0
107225  1  0  0  0  0
108226  1  0  0  0  0
108227  1  0  0  0  0
108228  1  0  0  0  0
110229  1  0  0  0  0
114230  1  0  0  0  0
119231  1  0  0  0  0
119232  1  0  0  0  0
120233  1  0  0  0  0
120234  1  0  0  0  0
120235  1  0  0  0  0
129236  1  0  0  0  0
129237  1  0  0  0  0
130238  1  0  0  0  0
130239  1  0  0  0  0
130240  1  0  0  0  0
132241  1  0  0  0  0
136242  1  0  0  0  0
139243  1  0  0  0  0
144244  1  0  0  0  0
147245  1  0  0  0  0
155246  1  0  0  0  0
156247  1  0  0  0  0
157248  1  0  0  0  0
158249  1  0  0  0  0
159250  1  0  0  0  0
160251  1  0  0  0  0
160252  1  0  0  0  0
161253  1  0  0  0  0
M  END
