307

C         -2.40630      -14.04280        4.24520
C         -1.43820      -14.71860        4.95590
C         -0.19780      -14.15450        5.48840
O          0.14930      -12.98490        5.50460
C          0.58640      -15.29340        6.00290
C          1.84980      -15.24730        6.58660
C          2.33680      -16.47660        6.96220
C          1.62100      -17.66400        6.76680
C          0.37280      -17.72240        6.19220
C         -0.14310      -16.48210        5.80710
C         -1.42750      -16.14110        5.19270
C         -2.43970      -17.03430        4.92910
C         -3.73010      -16.70070        4.47720
N         -4.81820      -16.52300        4.14880
C         -2.34440      -18.42710        5.11320
N         -2.33950      -19.57170        5.21750
C          2.70540      -18.51380        7.38240
C          2.45930      -19.00800        8.82340
C          3.83810      -19.37960        9.31920
C          4.51650      -18.25460        9.50580
C          3.60740      -17.10380        9.13940
C          2.25630      -17.68590        9.57470
C          3.50360      -17.18880        7.60190
C         -2.52180      -12.69160        3.93070
C         -3.57590      -12.16810        3.13620
N         -4.47540      -12.91080        2.41830
C         -4.11420      -14.10210        1.76180
C         -5.03410      -15.14170        1.65080
C         -4.67810      -16.31200        1.01070
C         -3.40580      -16.48270        0.47790
C         -3.02250      -17.77750       -0.16980
C         -2.50230      -15.43070        0.57580
C         -2.84860      -14.24880        1.19880
C         -5.76830      -12.39160        2.21420
C         -6.36390      -12.44120        0.95780
C         -7.63180      -11.92740        0.77450
C         -8.33370      -11.35240        1.82760
C         -9.69550      -10.76790        1.61350
C         -7.73210      -11.31310        3.07980
C         -6.46690      -11.82780        3.27810
C         -3.56900      -10.76390        3.15710
S         -4.53470       -9.53960        2.39200
C         -3.50620       -8.29040        3.07040
C         -2.43790       -8.80720        3.79390
N         -1.38870       -8.06460        4.31210
C         -0.90040       -6.95000        3.61810
C         -0.48990       -5.81200        4.30800
C         -0.11640       -4.67370        3.61820
C         -0.14650       -4.63430        2.23130
C          0.18930       -3.38500        1.47700
C         -0.50690       -5.79090        1.54760
C         -0.86850       -6.93610        2.22400
C         -0.77450       -8.50060        5.49600
C         -1.54260       -9.03120        6.52950
C         -0.93420       -9.50730        7.67320
C          0.44550       -9.45700        7.82460
C          1.10020      -10.01920        9.04880
C          1.20170       -8.90120        6.80000
C          0.60710       -8.42990        5.64720
C         -2.50710      -10.21820        3.86820
S         -1.47810      -11.41560        4.56740
C         -3.73350       -6.90750        2.79600
S         -4.08500       -6.37280        1.15360
C         -3.85880       -4.73360        1.63580
C         -3.77920       -3.44250        1.11630
S         -3.88210       -2.63700       -0.41240
C         -3.49010       -1.15200        0.39170
C         -3.23290        0.17310       -0.07540
C         -3.20360        0.68970       -1.36710
C         -2.74650        1.97790       -1.51670
C         -2.48050        2.73750       -2.81400
C         -1.52450        1.94020       -3.68630
C         -1.60290        1.94250       -5.07120
C         -0.67320        1.23180       -5.81650
C          0.30530        0.48510       -5.19740
C          0.36740        0.43920       -3.80300
O          1.31510       -0.37990       -3.27490
C          1.21130       -0.79700       -1.92610
C          1.95000        0.11190       -0.94900
C         -0.52760        1.19840       -3.06130
C         -3.81760        3.01540       -3.47310
C         -4.49370        1.99530       -4.13860
C         -5.73100        2.23870       -4.69810
C         -6.32630        3.48700       -4.61210
C         -5.66660        4.50930       -3.94230
O         -6.10830        5.79000       -3.80330
C         -7.40510        6.14030       -4.24120
C         -8.49640        5.66110       -3.28880
C         -4.41730        4.25690       -3.37060
C         -1.81230        3.99060       -2.28270
C         -1.78790        3.95380       -0.89920
C         -2.33990        2.73430       -0.39840
C         -2.41930        2.23510        0.89930
C         -2.86490        0.94300        1.04780
C         -2.97780        0.11640        2.32720
C         -1.66620        0.10420        3.08880
C         -0.47630        0.00410        2.38220
C          0.73090       -0.02350        3.06120
C          0.76580        0.04560        4.43780
C         -0.42380        0.14310        5.16110
O         -0.28820        0.18740        6.51360
C         -1.41520        0.41780        7.33550
C         -1.88520        1.86930        7.31490
C         -1.63470        0.16240        4.47760
C         -4.13620        0.69850        3.11850
C         -5.38660        0.09060        3.13880
C         -6.42220        0.66770        3.85010
C         -6.24430        1.84730        4.55130
C         -5.00230        2.47310        4.52580
O         -4.66890        3.61580        5.18660
C         -5.66940        4.37110        5.83900
C         -6.54150        5.15690        4.86480
C         -3.96480        1.89370        3.79740
C         -3.29690       -1.25230        1.75850
C         -3.45670       -2.57780        2.19340
N         -3.34690       -3.32010        3.34210
C         -3.58570       -4.62680        3.01210
C         -3.52680       -5.86300        3.66530
C         -3.01500       -2.86630        4.66640
C         -4.25400       -2.43190        5.44770
S         -1.06050        5.32890       -0.13390
C         -0.77420        5.99790       -1.70290
C         -0.16750        7.11140       -2.27940
S          0.73360        8.52020       -1.86710
C          1.05410        8.81630       -3.57470
C          0.39990        7.93700       -4.40250
C         -0.27220        6.94830       -3.67310
N         -0.91020        5.77100       -3.95750
C         -1.14690        5.28530       -5.29130
C         -2.44950        5.82620       -5.87650
C         -1.22640        5.17280       -2.76430
C          2.02450        9.79410       -3.95880
C          3.31440        9.92000       -3.45700
N          3.90280        9.08450       -2.52660
C          3.58480        7.71970       -2.47700
C          3.48930        7.06800       -1.24840
C          3.04140        5.76490       -1.18790
C          2.68090        5.07330       -2.33980
C          2.13130        3.68260       -2.25470
C          2.85120        5.70350       -3.56440
C          3.30400        7.00650       -3.63970
C          4.91560        9.60460       -1.70220
C          6.07780        8.87700       -1.46790
C          7.09050        9.41990       -0.70300
C          6.97630       10.69250       -0.15760
C          8.09930       11.30310        0.62210
C          5.80130       11.40110       -0.37570
C          4.77780       10.86750       -1.13250
C          4.00600       10.97570       -4.09720
S          5.61690       11.57500       -3.95860
C          5.30770       12.73080       -5.26120
C          4.00660       12.56290       -5.81870
N          3.51120       13.23880       -6.89870
C          4.30030       13.56370       -8.01750
C          5.32020       12.71400       -8.43950
C          6.08340       13.04510       -9.54090
C          5.84230       14.21170      -10.25770
C          6.68260       14.58460      -11.43970
C          4.80410       15.03820       -9.84430
C          4.04160       14.72830       -8.73610
C          2.12540       13.49040       -6.95640
C          1.40690       13.25100       -8.12230
C          0.05060       13.50940       -8.16240
C         -0.61880       14.00560       -7.05110
C         -2.09150       14.27340       -7.08540
C          0.11040       14.24430       -5.89070
C          1.46590       13.99490       -5.83840
C          3.28000       11.59750       -5.10650
S          1.69670       10.90220       -5.28220
C          6.15960       13.76530       -5.61820
C          7.42690       14.08610       -5.16080
C          8.23890       13.28980       -4.24700
O          7.94350       12.25150       -3.68280
C          9.54270       13.98650       -4.15110
C          9.51770       15.12860       -4.97090
C         10.63420       15.94370       -5.05190
C         11.75880       15.60690       -4.31090
C         11.77450       14.48350       -3.50050
Br        13.33370       14.08460       -2.50770
C         10.65760       13.64620       -3.40590
Cl        10.66790       12.25670       -2.40450
C          8.19380       15.22420       -5.59050
C          7.78330       16.25700       -6.40350
C          8.62240       17.29810       -6.84400
N          9.25530       18.16450       -7.25560
C          6.47480       16.45290       -6.88200
N          5.42810       16.71540       -7.28050
H         -3.21150      -14.65320        3.85710
H          2.36780      -14.30910        6.71220
H         -0.16210      -18.64580        6.04610
H          3.13390      -19.27890        6.73740
H          1.68410      -19.76330        8.91930
H          4.18530      -20.39070        9.42540
H          5.54360      -18.13830        9.79880
H          3.87880      -16.12440        9.52490
H          1.39620      -17.11140        9.23600
H          2.19750      -17.82940       10.65250
H          4.46420      -17.07150        7.10330
H         -6.01770      -15.03340        2.07960
H         -5.39580      -17.11550        0.94320
H         -2.91050      -18.55340        0.58780
H         -2.08150      -17.68320       -0.70600
H         -3.79400      -18.10280       -0.86520
H         -1.51370      -15.53350        0.15170
H         -2.13750      -13.43790        1.25950
H         -5.82600      -12.87810        0.12960
H         -8.08200      -11.96740       -0.20660
H         -9.60790       -9.71180        1.35600
H        -10.29780      -10.84500        2.51570
H        -10.21110      -11.27120        0.79910
H         -8.26460      -10.87930        3.91360
H         -6.01460      -11.80480        4.25890
H         -0.48260       -5.82150        5.38880
H          0.18300       -3.79280        4.16910
H          0.50340       -2.59520        2.15440
H          0.98540       -3.57270        0.75760
H         -0.68250       -3.03630        0.92340
H         -0.51090       -5.78890        0.46720
H         -1.14620       -7.82400        1.67570
H         -2.61780       -9.07200        6.42770
H         -1.54220       -9.92670        8.46190
H          1.25980      -11.08990        8.91790
H          0.47230       -9.87860        9.92620
H          2.06610       -9.55170        9.22550
H          2.27660       -8.85120        6.89820
H          1.20880       -8.01770        4.85060
H         -3.48240        0.07220       -2.20620
H         -2.39930        2.47090       -5.57390
H         -0.73110        1.24840       -6.89480
H          1.01810       -0.09060       -5.76570
H          1.67240       -1.79010       -1.91210
H          0.15750       -0.90140       -1.63910
H          1.48100        1.08960       -0.88020
H          1.94960       -0.34810        0.03540
H          2.97820        0.24360       -1.27650
H         -0.47320        1.20900       -1.98480
H         -4.04860        1.01710       -4.22790
H         -6.24940        1.44400       -5.21410
H         -7.29140        3.64020       -5.06780
H         -7.39270        7.23350       -4.27140
H         -7.58400        5.77110       -5.25880
H         -8.50180        4.57600       -3.21890
H         -8.32110        6.06690       -2.29560
H         -9.46670        5.99820       -3.64300
H         -3.94060        5.06830       -2.84330
H         -2.09020        2.83520        1.73260
H         -0.49450       -0.04650        1.30410
H          1.65730       -0.09150        2.50980
H          1.69820        0.03020        4.97890
H         -2.23550       -0.26150        7.07030
H         -1.06710        0.15750        8.33930
H         -2.25980        2.15360        6.33510
H         -1.05800        2.52620        7.57170
H         -2.68050        2.00320        8.04310
H         -2.56430        0.24000        5.01790
H         -5.55760       -0.82670        2.59710
H         -7.39000        0.18810        3.86390
H         -7.07320        2.26020        5.10360
H         -6.28290        3.72820        6.48280
H         -5.11060        5.06120        6.47730
H         -7.25420        5.76270        5.41750
H         -5.91830        5.80840        4.25750
H         -7.08450        4.48730        4.20190
H         -3.01480        2.40420        3.79050
H         -3.34120       -6.00780        4.71350
H         -2.51870       -3.69330        5.18090
H         -2.30820       -2.03820        4.57990
H         -4.97190       -3.24760        5.49780
H         -3.97600       -2.15390        6.46130
H         -4.72920       -1.57950        4.96670
H          0.47850        7.98450       -5.47360
H         -1.16540        4.19510       -5.25870
H         -0.30310        5.59890       -5.91370
H         -3.29740        5.50140       -5.27850
H         -2.57740        5.46120       -6.89210
H         -2.43210        6.91360       -5.89470
H          3.72910        7.60720       -0.34430
H          2.93700        5.28450       -0.22590
H          1.57280        3.42490       -3.15220
H          2.94130        2.96190       -2.14020
H          1.47200        3.59000       -1.39360
H          2.61270        5.17160       -4.47480
H          3.42420        7.48410       -4.60110
H          6.18570        7.89340       -1.90110
H          7.99410        8.84990       -0.54140
H          8.78040       10.54030        0.99150
H          7.72140       11.87890        1.46450
H          8.66340       11.98080       -0.01910
H          5.68710       12.38710        0.05170
H          3.86630       11.42610       -1.29030
H          5.51280       11.79830       -7.89990
H          6.87420       12.37880       -9.85410
H          7.31400       13.75530      -11.74860
H          7.32320       15.43020      -11.18870
H          6.05560       14.88220      -12.27800
H          4.60020       15.94870      -10.38680
H          3.25210       15.38970       -8.41660
H          1.91470       12.85900       -8.99100
H         -0.49690       13.31590       -9.07340
H         -2.30760       15.27170       -6.70910
H         -2.61660       13.55880       -6.45190
H         -2.48050       14.18790       -8.09660
H         -0.39170       14.63810       -5.01920
H          2.02520       14.19670       -4.93660
H          5.75630       14.43220       -6.36940
H         10.65220       16.82500       -5.67070
H         12.63900       16.22920       -4.36050
