154

C         -7.97360        6.61920       -1.09340
C         -8.33220        7.18440       -2.26670
C         -7.39410        7.40810       -3.40430
O         -6.29280        6.93170       -3.56920
C         -8.04880        8.41680       -4.25620
C         -7.50880        9.02030       -5.39140
C         -8.33550        9.94590       -5.97980
C         -9.60880       10.25330       -5.47800
C        -10.15520        9.66560       -4.36300
C         -9.32830        8.71990       -3.74600
C         -9.55810        7.91730       -2.55240
C        -10.73220        7.80440       -1.86060
C        -10.92320        6.94070       -0.75990
N        -11.14990        6.24810        0.12690
C        -11.91640        8.50310       -2.17720
N        -12.90630        9.04650       -2.38300
C         -9.87230       11.27840       -6.55230
C         -9.72810       12.75920       -6.14110
C         -9.56560       13.48530       -7.45700
C         -8.36160       13.19390       -7.93280
C         -7.69000       12.26590       -6.94630
C         -8.28010       12.80280       -5.63590
C         -8.45460       10.93490       -7.11220
C         -6.72930        5.90060       -0.89340
C         -6.36110        4.84240       -1.72480
C         -5.14760        4.21270       -1.55630
C         -4.24380        4.67390       -0.60040
C         -4.63170        5.69950        0.26500
C         -5.87270        6.28090        0.14200
C         -2.89340        4.14320       -0.51960
C         -1.73090        4.87960       -0.50240
C         -1.69050        6.33010       -0.69770
C         -0.81800        7.12300        0.04120
C         -0.81430        8.49400       -0.13880
C         -1.67550        9.08420       -1.04680
C         -2.54320        8.30570       -1.80430
C         -3.45340        8.92710       -2.82470
C         -2.72370        9.10680       -4.15700
C         -2.53150        6.93190       -1.63070
C         -0.60100        4.04410       -0.34320
S          1.11360        4.36100       -0.24640
C          1.39730        2.66310       -0.05990
C          2.47380        1.77620        0.13450
C          3.87470        1.95220        0.12410
C          4.72270        0.80070        0.28450
N          6.00760        1.10400        0.19200
S          6.14330        2.69680       -0.06730
N          4.56600        3.06370       -0.07160
C          4.13660       -0.44620        0.59800
C          4.69350       -1.66040        1.03660
S          6.25140       -2.36900        1.29650
C          5.47010       -3.79020        1.94630
C          5.97570       -4.98130        2.51450
C          7.41100       -5.20960        2.70150
C          7.91320       -5.63250        3.93000
C          9.27470       -5.79420        4.09610
C         10.14390       -5.53130        3.05050
C          9.66030       -5.10220        1.82170
C         10.59340       -4.75320        0.69890
C         10.86250       -3.24700        0.68750
C          8.29170       -4.94290        1.66010
C          4.95810       -5.80800        2.93690
S          3.36940       -5.11050        2.65280
C          4.07950       -3.70150        1.94900
C          3.63200       -2.48310        1.41820
N          2.43600       -1.85010        1.19340
C          2.72720       -0.59690        0.67670
C          1.90400        0.48580        0.28340
N          0.53320        0.57130        0.10550
C          0.23040        1.89720       -0.08420
C         -0.91400        2.68840       -0.25660
S         -2.61900        2.42200       -0.37610
C         -0.32630       -0.46240       -0.42810
C         -0.59480       -0.25240       -1.91800
C          1.24760       -2.28960        1.89690
C          0.80150       -1.28410        2.95330
C          5.03270       -7.12920        3.52040
C          6.06390       -8.01430        3.18830
C          6.13370       -9.25780        3.77380
C          5.15600       -9.68860        4.67540
C          4.11790       -8.80950        4.99350
C          4.06030       -7.55420        4.42930
C          5.29550      -10.98690        5.30740
C          4.36890      -11.90420        5.63990
C          4.88090      -13.00680        6.48890
O          6.05960      -13.19890        6.68660
N          3.93100      -13.74240        7.19980
C          4.39700      -14.52670        8.34000
C          4.82330      -15.92140        7.90170
C          2.61370      -13.84080        6.84670
O          1.76670      -14.34110        7.54280
C          2.33630      -13.30860        5.44520
C          2.96350      -14.23370        4.52990
N          3.47750      -14.97380        3.82720
C          2.90750      -11.89040        5.26670
C          2.66340      -11.44700        3.82170
H         -8.59940        6.75270       -0.21890
H         -6.52500        8.75270       -5.74390
H        -11.13330        9.91350       -3.98550
H        -10.74090       11.09380       -7.18120
H        -10.50390       13.12360       -5.47340
H        -10.33820       14.07220       -7.91760
H         -7.92770       13.48870       -8.87010
H         -6.60860       12.18150       -7.01190
H         -7.95000       13.81790       -5.42180
H         -8.09160       12.16910       -4.77110
H         -8.37650       10.52120       -8.11580
H         -7.03950        4.51260       -2.49670
H         -4.86660        3.39210       -2.20050
H         -3.94680        6.03580        1.02880
H         -6.16630        7.07700        0.81050
H         -0.15820        6.66800        0.76460
H         -0.13880        9.10690        0.43990
H         -1.67430       10.15780       -1.17100
H         -4.32430        8.28600       -2.97680
H         -3.79750        9.90100       -2.46800
H         -1.84840        9.74070       -4.03040
H         -3.38160        9.56520       -4.89190
H         -2.39640        8.14230       -4.53780
H         -3.18730        6.32260       -2.23470
H          7.23560       -5.82330        4.74900
H          9.66240       -6.12120        5.04970
H         11.20770       -5.65730        3.19120
H         11.53660       -5.29000        0.81730
H         10.15010       -5.04550       -0.25530
H         11.53240       -2.98620       -0.12840
H          9.93210       -2.69730        0.56470
H         11.31980       -2.93850        1.62510
H          7.90310       -4.61780        0.70570
H          0.17320       -1.42000       -0.30650
H         -1.27080       -0.46330        0.12580
H         -1.19000       -1.07760       -2.29960
H         -1.13720        0.67220       -2.09180
H          0.34430       -0.21470       -2.46620
H          1.51040       -3.23360        2.38080
H          0.42790       -2.50110        1.20620
H          0.50120       -0.34470        2.49780
H         -0.04160       -1.68780        3.50700
H          1.61390       -1.08670        3.64910
H          6.81000       -7.71610        2.46850
H          6.94080       -9.92670        3.51480
H          3.37580       -9.09870        5.72230
H          3.26100       -6.87950        4.70110
H          6.31470      -11.24550        5.57840
H          3.57070      -14.58060        9.05130
H          5.24040      -13.99450        8.78310
H          3.98830      -16.44500        7.44140
H          5.16040      -16.48850        8.76460
H          5.63730      -15.85340        7.18450
H          1.25470      -13.32050        5.27450
H          2.35710      -11.22800        5.94800
H          3.25570      -12.05320        3.13970
H          2.92850      -10.40550        3.67490
H          1.61170      -11.57060        3.57000
