
  xtb     02282207563D
 energy: -321.804770895124 gnorm: 0.000667864433 xtb: 6.4.1 (unknown)
208229  0     0  0            999 V2000
    1.6538    4.6570   -7.9388 C   0  0  0  0  0  0  0  0  0  0  0  0
    1.5166    4.1757   -9.2255 C   0  0  0  0  0  0  0  0  0  0  0  0
    2.0004    2.8593   -9.6666 C   0  0  0  0  0  0  0  0  0  0  0  0
    2.5612    2.0135   -8.9931 O   0  0  0  0  0  0  0  0  0  0  0  0
    1.7811    2.8186  -11.1286 C   0  0  0  0  0  0  0  0  0  0  0  0
    2.0701    1.7674  -11.9921 C   0  0  0  0  0  0  0  0  0  0  0  0
    1.7135    2.0018  -13.2995 C   0  0  0  0  0  0  0  0  0  0  0  0
    1.1334    3.2038  -13.7198 C   0  0  0  0  0  0  0  0  0  0  0  0
    0.8603    4.2575  -12.8791 C   0  0  0  0  0  0  0  0  0  0  0  0
    1.1958    4.0297  -11.5436 C   0  0  0  0  0  0  0  0  0  0  0  0
    1.0076    4.8785  -10.3676 C   0  0  0  0  0  0  0  0  0  0  0  0
    0.3013    6.0578  -10.3332 C   0  0  0  0  0  0  0  0  0  0  0  0
    0.0140    6.7698   -9.1529 C   0  0  0  0  0  0  0  0  0  0  0  0
   -0.2861    7.3856   -8.2301 N   0  0  0  0  0  0  0  0  0  0  0  0
   -0.2967    6.6604  -11.4540 C   0  0  0  0  0  0  0  0  0  0  0  0
   -0.8200    7.1923  -12.3285 N   0  0  0  0  0  0  0  0  0  0  0  0
    1.0248    2.7446  -15.1524 C   0  0  0  0  0  0  0  0  0  0  0  0
   -0.3671    2.2932  -15.6596 C   0  0  0  0  0  0  0  0  0  0  0  0
   -1.1289    1.8040  -14.4533 C   0  0  0  0  0  0  0  0  0  0  0  0
   -0.5778    0.6629  -14.0616 C   0  0  0  0  0  0  0  0  0  0  0  0
    0.5687    0.3622  -14.9942 C   0  0  0  0  0  0  0  0  0  0  0  0
    0.0142    0.9497  -16.3018 C   0  0  0  0  0  0  0  0  0  0  0  0
    1.6729    1.4035  -14.6848 C   0  0  0  0  0  0  0  0  0  0  0  0
    1.7396    3.8827   -6.7811 C   0  0  0  0  0  0  0  0  0  0  0  0
    1.3064    2.5670   -6.5082 C   0  0  0  0  0  0  0  0  0  0  0  0
    0.5365    1.7693   -7.3074 N   0  0  0  0  0  0  0  0  0  0  0  0
   -0.3580    2.2835   -8.2541 C   0  0  0  0  0  0  0  0  0  0  0  0
   -1.0879    3.4440   -8.0026 C   0  0  0  0  0  0  0  0  0  0  0  0
   -1.9293    3.9586   -8.9671 C   0  0  0  0  0  0  0  0  0  0  0  0
   -2.0720    3.3369  -10.2037 C   0  0  0  0  0  0  0  0  0  0  0  0
   -2.9320    3.9360  -11.2716 C   0  0  0  0  0  0  0  0  0  0  0  0
   -1.3782    2.1542  -10.4295 C   0  0  0  0  0  0  0  0  0  0  0  0
   -0.5341    1.6274   -9.4715 C   0  0  0  0  0  0  0  0  0  0  0  0
    0.5874    0.3722   -7.1183 C   0  0  0  0  0  0  0  0  0  0  0  0
   -0.5883   -0.3638   -7.0230 C   0  0  0  0  0  0  0  0  0  0  0  0
   -0.5311   -1.7261   -6.7981 C   0  0  0  0  0  0  0  0  0  0  0  0
    0.6872   -2.3802   -6.6653 C   0  0  0  0  0  0  0  0  0  0  0  0
    0.7524   -3.8490   -6.3788 C   0  0  0  0  0  0  0  0  0  0  0  0
    1.8564   -1.6370   -6.7914 C   0  0  0  0  0  0  0  0  0  0  0  0
    1.8149   -0.2765   -7.0172 C   0  0  0  0  0  0  0  0  0  0  0  0
    1.6567    2.1984   -5.1913 C   0  0  0  0  0  0  0  0  0  0  0  0
    1.3852    0.7800   -4.2419 S   0  0  0  0  0  0  0  0  0  0  0  0
    2.0825    1.5533   -2.8168 C   0  0  0  0  0  0  0  0  0  0  0  0
    2.4694    2.8668   -3.0766 C   0  0  0  0  0  0  0  0  0  0  0  0
    2.9930    3.7812   -2.1750 N   0  0  0  0  0  0  0  0  0  0  0  0
    3.9898    4.6548   -2.6422 C   0  0  0  0  0  0  0  0  0  0  0  0
    5.0141    4.1684   -3.4501 C   0  0  0  0  0  0  0  0  0  0  0  0
    5.9832    5.0244   -3.9342 C   0  0  0  0  0  0  0  0  0  0  0  0
    5.9649    6.3776   -3.6210 C   0  0  0  0  0  0  0  0  0  0  0  0
    7.0018    7.3094   -4.1687 C   0  0  0  0  0  0  0  0  0  0  0  0
    4.9432    6.8527   -2.8065 C   0  0  0  0  0  0  0  0  0  0  0  0
    3.9631    6.0099   -2.3239 C   0  0  0  0  0  0  0  0  0  0  0  0
    2.4336    3.9574   -0.9068 C   0  0  0  0  0  0  0  0  0  0  0  0
    3.2351    4.3670    0.1603 C   0  0  0  0  0  0  0  0  0  0  0  0
    2.7043    4.4659    1.4284 C   0  0  0  0  0  0  0  0  0  0  0  0
    1.3704    4.1580    1.6786 C   0  0  0  0  0  0  0  0  0  0  0  0
    0.8346    4.2104    3.0753 C   0  0  0  0  0  0  0  0  0  0  0  0
    0.5717    3.7833    0.6076 C   0  0  0  0  0  0  0  0  0  0  0  0
    1.0871    3.6904   -0.6711 C   0  0  0  0  0  0  0  0  0  0  0  0
    2.2426    3.2011   -4.4342 C   0  0  0  0  0  0  0  0  0  0  0  0
    2.4339    4.6553   -5.3441 S   0  0  0  0  0  0  0  0  0  0  0  0
    2.1268    0.7499   -1.6479 C   0  0  0  0  0  0  0  0  0  0  0  0
    1.5735   -0.5175   -1.5470 C   0  0  0  0  0  0  0  0  0  0  0  0
    1.7473   -1.0818   -0.2895 C   0  0  0  0  0  0  0  0  0  0  0  0
    1.2434   -2.3105    0.4155 C   0  0  0  0  0  0  0  0  0  0  0  0
    1.8576   -3.6032   -0.1470 C   0  0  0  0  0  0  0  0  0  0  0  0
    1.6555   -3.7977   -1.6452 C   0  0  0  0  0  0  0  0  0  0  0  0
   -0.3029   -2.2696    0.3156 C   0  0  0  0  0  0  0  0  0  0  0  0
   -1.0533   -3.5279    0.7306 C   0  0  0  0  0  0  0  0  0  0  0  0
    1.7085   -2.0295    1.8447 C   0  0  0  0  0  0  0  0  0  0  0  0
    2.3862   -0.7841    1.9190 C   0  0  0  0  0  0  0  0  0  0  0  0
    2.4229   -0.2528    0.5885 C   0  0  0  0  0  0  0  0  0  0  0  0
    2.9042    1.2224   -0.1552 S   0  0  0  0  0  0  0  0  0  0  0  0
    2.7824   -0.2107    3.1417 C   0  0  0  0  0  0  0  0  0  0  0  0
    3.4567    0.9715    3.2557 O   0  0  0  0  0  0  0  0  0  0  0  0
    4.6104    1.1752    2.4526 C   0  0  0  0  0  0  0  0  0  0  0  0
    5.8531    1.2774    3.3311 C   0  0  0  0  0  0  0  0  0  0  0  0
    2.3413   -0.8459    4.2913 C   0  0  0  0  0  0  0  0  0  0  0  0
    1.6844   -2.0880    4.2149 C   0  0  0  0  0  0  0  0  0  0  0  0
    1.4544   -2.7485    3.0026 C   0  0  0  0  0  0  0  0  0  0  0  0
    0.9374   -4.0303    3.0170 O   0  0  0  0  0  0  0  0  0  0  0  0
    1.9206   -5.0579    3.0200 C   0  0  0  0  0  0  0  0  0  0  0  0
    2.6461   -5.2362    4.3487 C   0  0  0  0  0  0  0  0  0  0  0  0
    1.2563   -2.4170    5.5402 C   0  0  0  0  0  0  0  0  0  0  0  0
    1.6266   -1.4281    6.4340 C   0  0  0  0  0  0  0  0  0  0  0  0
    2.4085   -0.3565    5.7277 C   0  0  0  0  0  0  0  0  0  0  0  0
    3.8576   -0.2808    6.2424 C   0  0  0  0  0  0  0  0  0  0  0  0
    4.6155   -1.5934    6.0862 C   0  0  0  0  0  0  0  0  0  0  0  0
    1.7398    1.0216    5.8802 C   0  0  0  0  0  0  0  0  0  0  0  0
    0.2932    1.0390    5.4016 C   0  0  0  0  0  0  0  0  0  0  0  0
    1.1179   -1.6340    7.7139 C   0  0  0  0  0  0  0  0  0  0  0  0
    0.3359   -2.7719    7.7959 C   0  0  0  0  0  0  0  0  0  0  0  0
    0.2626   -3.6105    6.2556 S   0  0  0  0  0  0  0  0  0  0  0  0
   -0.4489   -3.2415    8.9041 C   0  0  0  0  0  0  0  0  0  0  0  0
   -1.3178   -4.3310    8.7504 C   0  0  0  0  0  0  0  0  0  0  0  0
   -2.1765   -4.7084    9.7522 C   0  0  0  0  0  0  0  0  0  0  0  0
   -2.1983   -4.0165   10.9705 C   0  0  0  0  0  0  0  0  0  0  0  0
   -1.2494   -3.0015   11.1685 C   0  0  0  0  0  0  0  0  0  0  0  0
   -0.4083   -2.6092   10.1568 C   0  0  0  0  0  0  0  0  0  0  0  0
   -3.1313   -4.3124   12.0210 C   0  0  0  0  0  0  0  0  0  0  0  0
   -4.4268   -4.7017   11.8805 C   0  0  0  0  0  0  0  0  0  0  0  0
   -5.2358   -4.6059   10.6344 C   0  0  0  0  0  0  0  0  0  0  0  0
   -4.8647   -4.3540    9.5087 O   0  0  0  0  0  0  0  0  0  0  0  0
   -6.6367   -4.7958   11.0563 C   0  0  0  0  0  0  0  0  0  0  0  0
   -7.7609   -4.7417   10.2340 C   0  0  0  0  0  0  0  0  0  0  0  0
   -8.9469   -4.9493   10.8947 C   0  0  0  0  0  0  0  0  0  0  0  0
   -9.0127   -5.1861   12.2749 C   0  0  0  0  0  0  0  0  0  0  0  0
   -7.9127   -5.2450   13.0964 C   0  0  0  0  0  0  0  0  0  0  0  0
   -6.6923   -5.0408   12.4422 C   0  0  0  0  0  0  0  0  0  0  0  0
   -5.3321   -5.0340   12.9692 C   0  0  0  0  0  0  0  0  0  0  0  0
   -4.9679   -5.3594   14.2493 C   0  0  0  0  0  0  0  0  0  0  0  0
   -5.8742   -5.6926   15.2773 C   0  0  0  0  0  0  0  0  0  0  0  0
   -6.5564   -5.9640   16.1603 N   0  0  0  0  0  0  0  0  0  0  0  0
   -3.6393   -5.4396   14.7184 C   0  0  0  0  0  0  0  0  0  0  0  0
   -2.5920   -5.5472   15.1777 N   0  0  0  0  0  0  0  0  0  0  0  0
  -10.5177   -5.2883   12.2660 C   0  0  0  0  0  0  0  0  0  0  0  0
  -11.2961   -4.0582   12.7794 C   0  0  0  0  0  0  0  0  0  0  0  0
  -12.6861   -4.2508   12.2175 C   0  0  0  0  0  0  0  0  0  0  0  0
  -12.6260   -4.0356   10.9095 C   0  0  0  0  0  0  0  0  0  0  0  0
  -11.1945   -3.6927   10.5656 C   0  0  0  0  0  0  0  0  0  0  0  0
  -10.7854   -2.9530   11.8458 C   0  0  0  0  0  0  0  0  0  0  0  0
  -10.4439   -5.0315   10.7266 C   0  0  0  0  0  0  0  0  0  0  0  0
    1.7260    5.7281   -7.7922 H   0  0  0  0  0  0  0  0  0  0  0  0
    2.5229    0.8579  -11.6282 H   0  0  0  0  0  0  0  0  0  0  0  0
    0.4282    5.1838  -13.2201 H   0  0  0  0  0  0  0  0  0  0  0  0
    1.5602    3.3397  -15.8897 H   0  0  0  0  0  0  0  0  0  0  0  0
   -0.8776    3.0208  -16.2848 H   0  0  0  0  0  0  0  0  0  0  0  0
   -1.9297    2.3522  -13.9924 H   0  0  0  0  0  0  0  0  0  0  0  0
   -0.8249    0.0578  -13.2083 H   0  0  0  0  0  0  0  0  0  0  0  0
    0.9121   -0.6690  -15.0151 H   0  0  0  0  0  0  0  0  0  0  0  0
   -0.8487    0.4016  -16.6778 H   0  0  0  0  0  0  0  0  0  0  0  0
    0.7623    1.0417  -17.0880 H   0  0  0  0  0  0  0  0  0  0  0  0
    2.6343    1.1269  -15.1140 H   0  0  0  0  0  0  0  0  0  0  0  0
   -0.9913    3.9463   -7.0518 H   0  0  0  0  0  0  0  0  0  0  0  0
   -2.4781    4.8652   -8.7574 H   0  0  0  0  0  0  0  0  0  0  0  0
   -3.6641    4.6174  -10.8460 H   0  0  0  0  0  0  0  0  0  0  0  0
   -2.3148    4.5020  -11.9709 H   0  0  0  0  0  0  0  0  0  0  0  0
   -3.4512    3.1609  -11.8313 H   0  0  0  0  0  0  0  0  0  0  0  0
   -1.4833    1.6500  -11.3786 H   0  0  0  0  0  0  0  0  0  0  0  0
    0.0079    0.7136   -9.6635 H   0  0  0  0  0  0  0  0  0  0  0  0
   -1.5413    0.1368   -7.1145 H   0  0  0  0  0  0  0  0  0  0  0  0
   -1.4508   -2.2869   -6.7147 H   0  0  0  0  0  0  0  0  0  0  0  0
    1.0575   -4.0131   -5.3449 H   0  0  0  0  0  0  0  0  0  0  0  0
   -0.2156   -4.3202   -6.5289 H   0  0  0  0  0  0  0  0  0  0  0  0
    1.4842   -4.3345   -7.0217 H   0  0  0  0  0  0  0  0  0  0  0  0
    2.8123   -2.1340   -6.7126 H   0  0  0  0  0  0  0  0  0  0  0  0
    2.7207    0.2959   -7.1409 H   0  0  0  0  0  0  0  0  0  0  0  0
    5.0452    3.1164   -3.6949 H   0  0  0  0  0  0  0  0  0  0  0  0
    6.7696    4.6325   -4.5629 H   0  0  0  0  0  0  0  0  0  0  0  0
    6.6358    7.7732   -5.0854 H   0  0  0  0  0  0  0  0  0  0  0  0
    7.2250    8.1026   -3.4587 H   0  0  0  0  0  0  0  0  0  0  0  0
    7.9197    6.7759   -4.4040 H   0  0  0  0  0  0  0  0  0  0  0  0
    4.9076    7.9031   -2.5563 H   0  0  0  0  0  0  0  0  0  0  0  0
    3.1665    6.3966   -1.7058 H   0  0  0  0  0  0  0  0  0  0  0  0
    4.2793    4.5812   -0.0134 H   0  0  0  0  0  0  0  0  0  0  0  0
    3.3397    4.7695    2.2481 H   0  0  0  0  0  0  0  0  0  0  0  0
    1.3199    3.4484    3.6837 H   0  0  0  0  0  0  0  0  0  0  0  0
   -0.2376    4.0317    3.0896 H   0  0  0  0  0  0  0  0  0  0  0  0
    1.0353    5.1796    3.5291 H   0  0  0  0  0  0  0  0  0  0  0  0
   -0.4715    3.5545    0.7725 H   0  0  0  0  0  0  0  0  0  0  0  0
    0.4486    3.3943   -1.4907 H   0  0  0  0  0  0  0  0  0  0  0  0
    1.0416   -0.9679   -2.3659 H   0  0  0  0  0  0  0  0  0  0  0  0
    1.4208   -4.4471    0.3848 H   0  0  0  0  0  0  0  0  0  0  0  0
    2.9313   -3.5861    0.0618 H   0  0  0  0  0  0  0  0  0  0  0  0
    2.0525   -4.7670   -1.9413 H   0  0  0  0  0  0  0  0  0  0  0  0
    2.1776   -3.0306   -2.2108 H   0  0  0  0  0  0  0  0  0  0  0  0
    0.6012   -3.7679   -1.9065 H   0  0  0  0  0  0  0  0  0  0  0  0
   -0.5599   -2.0340   -0.7195 H   0  0  0  0  0  0  0  0  0  0  0  0
   -0.6422   -1.4326    0.9314 H   0  0  0  0  0  0  0  0  0  0  0  0
   -2.1227   -3.3297    0.6928 H   0  0  0  0  0  0  0  0  0  0  0  0
   -0.7948   -3.8238    1.7412 H   0  0  0  0  0  0  0  0  0  0  0  0
   -0.8422   -4.3544    0.0567 H   0  0  0  0  0  0  0  0  0  0  0  0
    4.4661    2.1107    1.9007 H   0  0  0  0  0  0  0  0  0  0  0  0
    4.7326    0.3570    1.7374 H   0  0  0  0  0  0  0  0  0  0  0  0
    6.0266    0.3421    3.8582 H   0  0  0  0  0  0  0  0  0  0  0  0
    5.7306    2.0746    4.0597 H   0  0  0  0  0  0  0  0  0  0  0  0
    6.7174    1.4977    2.7108 H   0  0  0  0  0  0  0  0  0  0  0  0
    1.3629   -5.9654    2.7743 H   0  0  0  0  0  0  0  0  0  0  0  0
    2.6598   -4.8674    2.2309 H   0  0  0  0  0  0  0  0  0  0  0  0
    1.9419   -5.4859    5.1370 H   0  0  0  0  0  0  0  0  0  0  0  0
    3.3687   -6.0426    4.2524 H   0  0  0  0  0  0  0  0  0  0  0  0
    3.1752   -4.3261    4.6232 H   0  0  0  0  0  0  0  0  0  0  0  0
    4.3712    0.5085    5.6938 H   0  0  0  0  0  0  0  0  0  0  0  0
    3.8338   -0.0003    7.2977 H   0  0  0  0  0  0  0  0  0  0  0  0
    5.6310   -1.4868    6.4618 H   0  0  0  0  0  0  0  0  0  0  0  0
    4.1270   -2.3899    6.6437 H   0  0  0  0  0  0  0  0  0  0  0  0
    4.6636   -1.8871    5.0394 H   0  0  0  0  0  0  0  0  0  0  0  0
    2.3222    1.7425    5.3052 H   0  0  0  0  0  0  0  0  0  0  0  0
    1.7786    1.3101    6.9331 H   0  0  0  0  0  0  0  0  0  0  0  0
   -0.3081    0.3222    5.9566 H   0  0  0  0  0  0  0  0  0  0  0  0
   -0.1352    2.0284    5.5459 H   0  0  0  0  0  0  0  0  0  0  0  0
    0.2372    0.7890    4.3445 H   0  0  0  0  0  0  0  0  0  0  0  0
    1.2840   -0.9700    8.5426 H   0  0  0  0  0  0  0  0  0  0  0  0
   -1.3263   -4.8675    7.8130 H   0  0  0  0  0  0  0  0  0  0  0  0
   -2.8241   -5.5570    9.6076 H   0  0  0  0  0  0  0  0  0  0  0  0
   -1.2166   -2.4914   12.1207 H   0  0  0  0  0  0  0  0  0  0  0  0
    0.2854   -1.8011   10.3284 H   0  0  0  0  0  0  0  0  0  0  0  0
   -2.7618   -4.1365   13.0251 H   0  0  0  0  0  0  0  0  0  0  0  0
   -7.6623   -4.5557    9.1760 H   0  0  0  0  0  0  0  0  0  0  0  0
   -7.9802   -5.4285   14.1556 H   0  0  0  0  0  0  0  0  0  0  0  0
  -10.9320   -6.2308   12.6188 H   0  0  0  0  0  0  0  0  0  0  0  0
  -11.2198   -3.8857   13.8494 H   0  0  0  0  0  0  0  0  0  0  0  0
  -13.5303   -4.5684   12.8010 H   0  0  0  0  0  0  0  0  0  0  0  0
  -13.4100   -4.1375   10.1822 H   0  0  0  0  0  0  0  0  0  0  0  0
  -11.0265   -3.1868    9.6186 H   0  0  0  0  0  0  0  0  0  0  0  0
   -9.7168   -2.7622   11.9256 H   0  0  0  0  0  0  0  0  0  0  0  0
  -11.3322   -2.0204   11.9749 H   0  0  0  0  0  0  0  0  0  0  0  0
  -10.8040   -5.8062   10.0521 H   0  0  0  0  0  0  0  0  0  0  0  0
  1  2  2  0  0  0  0
  2  3  1  0  0  0  0
  3  4  2  0  0  0  0
  3  5  1  0  0  0  0
  5  6  2  0  0  0  0
  6  7  1  0  0  0  0
  7  8  2  0  0  0  0
  8  9  1  0  0  0  0
  9 10  2  0  0  0  0
 10 11  1  0  0  0  0
 11 12  2  0  0  0  0
 12 13  1  0  0  0  0
 13 14  3  0  0  0  0
 12 15  1  0  0  0  0
 15 16  3  0  0  0  0
  8 17  1  0  0  0  0
 17 18  1  0  0  0  0
 18 19  1  0  0  0  0
 19 20  2  0  0  0  0
 20 21  1  0  0  0  0
 21 22  1  0  0  0  0
 21 23  1  0  0  0  0
  1 24  1  0  0  0  0
 24 25  2  0  0  0  0
 25 26  1  0  0  0  0
 26 27  1  0  0  0  0
 27 28  2  0  0  0  0
 28 29  1  0  0  0  0
 29 30  2  0  0  0  0
 30 31  1  0  0  0  0
 30 32  1  0  0  0  0
 32 33  2  0  0  0  0
 26 34  1  0  0  0  0
 34 35  2  0  0  0  0
 35 36  1  0  0  0  0
 36 37  2  0  0  0  0
 37 38  1  0  0  0  0
 37 39  1  0  0  0  0
 39 40  2  0  0  0  0
 25 41  1  0  0  0  0
 41 42  1  0  0  0  0
 42 43  1  0  0  0  0
 43 44  2  0  0  0  0
 44 45  1  0  0  0  0
 45 46  1  0  0  0  0
 46 47  2  0  0  0  0
 47 48  1  0  0  0  0
 48 49  2  0  0  0  0
 49 50  1  0  0  0  0
 49 51  1  0  0  0  0
 51 52  2  0  0  0  0
 45 53  1  0  0  0  0
 53 54  2  0  0  0  0
 54 55  1  0  0  0  0
 55 56  2  0  0  0  0
 56 57  1  0  0  0  0
 56 58  1  0  0  0  0
 58 59  2  0  0  0  0
 44 60  1  0  0  0  0
 60 61  1  0  0  0  0
 43 62  1  0  0  0  0
 62 63  2  0  0  0  0
 63 64  1  0  0  0  0
 64 65  1  0  0  0  0
 65 66  1  0  0  0  0
 66 67  1  0  0  0  0
 65 68  1  0  0  0  0
 68 69  1  0  0  0  0
 65 70  1  0  0  0  0
 70 71  2  0  0  0  0
 71 72  1  0  0  0  0
 72 73  1  0  0  0  0
 71 74  1  0  0  0  0
 74 75  1  0  0  0  0
 75 76  1  0  0  0  0
 76 77  1  0  0  0  0
 74 78  2  0  0  0  0
 78 79  1  0  0  0  0
 79 80  2  0  0  0  0
 80 81  1  0  0  0  0
 81 82  1  0  0  0  0
 82 83  1  0  0  0  0
 79 84  1  0  0  0  0
 84 85  2  0  0  0  0
 85 86  1  0  0  0  0
 86 87  1  0  0  0  0
 87 88  1  0  0  0  0
 86 89  1  0  0  0  0
 89 90  1  0  0  0  0
 85 91  1  0  0  0  0
 91 92  2  0  0  0  0
 92 93  1  0  0  0  0
 92 94  1  0  0  0  0
 94 95  2  0  0  0  0
 95 96  1  0  0  0  0
 96 97  2  0  0  0  0
 97 98  1  0  0  0  0
 98 99  2  0  0  0  0
 97100  1  0  0  0  0
100101  2  0  0  0  0
101102  1  0  0  0  0
102103  2  0  0  0  0
102104  1  0  0  0  0
104105  2  0  0  0  0
105106  1  0  0  0  0
106107  2  0  0  0  0
107108  1  0  0  0  0
108109  2  0  0  0  0
109110  1  0  0  0  0
110111  2  0  0  0  0
111112  1  0  0  0  0
112113  3  0  0  0  0
111114  1  0  0  0  0
114115  3  0  0  0  0
107116  1  0  0  0  0
116117  1  0  0  0  0
117118  1  0  0  0  0
118119  2  0  0  0  0
119120  1  0  0  0  0
120121  1  0  0  0  0
120122  1  0  0  0  0
 11  2  1  0  0  0  0
 23 17  1  0  0  0  0
 61 24  1  0  0  0  0
 73 62  1  0  0  0  0
 86 78  1  0  0  0  0
 99 94  1  0  0  0  0
110101  1  0  0  0  0
122116  1  0  0  0  0
 10  5  1  0  0  0  0
 22 18  1  0  0  0  0
 33 27  1  0  0  0  0
 40 34  1  0  0  0  0
 60 41  2  0  0  0  0
 72 64  2  0  0  0  0
 93 84  1  0  0  0  0
109104  1  0  0  0  0
121117  1  0  0  0  0
 23  7  1  0  0  0  0
 52 46  1  0  0  0  0
 59 53  1  0  0  0  0
 80 70  1  0  0  0  0
122106  1  0  0  0  0
  1123  1  0  0  0  0
  6124  1  0  0  0  0
  9125  1  0  0  0  0
 17126  1  0  0  0  0
 18127  1  0  0  0  0
 19128  1  0  0  0  0
 20129  1  0  0  0  0
 21130  1  0  0  0  0
 22131  1  0  0  0  0
 22132  1  0  0  0  0
 23133  1  0  0  0  0
 28134  1  0  0  0  0
 29135  1  0  0  0  0
 31136  1  0  0  0  0
 31137  1  0  0  0  0
 31138  1  0  0  0  0
 32139  1  0  0  0  0
 33140  1  0  0  0  0
 35141  1  0  0  0  0
 36142  1  0  0  0  0
 38143  1  0  0  0  0
 38144  1  0  0  0  0
 38145  1  0  0  0  0
 39146  1  0  0  0  0
 40147  1  0  0  0  0
 47148  1  0  0  0  0
 48149  1  0  0  0  0
 50150  1  0  0  0  0
 50151  1  0  0  0  0
 50152  1  0  0  0  0
 51153  1  0  0  0  0
 52154  1  0  0  0  0
 54155  1  0  0  0  0
 55156  1  0  0  0  0
 57157  1  0  0  0  0
 57158  1  0  0  0  0
 57159  1  0  0  0  0
 58160  1  0  0  0  0
 59161  1  0  0  0  0
 63162  1  0  0  0  0
 66163  1  0  0  0  0
 66164  1  0  0  0  0
 67165  1  0  0  0  0
 67166  1  0  0  0  0
 67167  1  0  0  0  0
 68168  1  0  0  0  0
 68169  1  0  0  0  0
 69170  1  0  0  0  0
 69171  1  0  0  0  0
 69172  1  0  0  0  0
 76173  1  0  0  0  0
 76174  1  0  0  0  0
 77175  1  0  0  0  0
 77176  1  0  0  0  0
 77177  1  0  0  0  0
 82178  1  0  0  0  0
 82179  1  0  0  0  0
 83180  1  0  0  0  0
 83181  1  0  0  0  0
 83182  1  0  0  0  0
 87183  1  0  0  0  0
 87184  1  0  0  0  0
 88185  1  0  0  0  0
 88186  1  0  0  0  0
 88187  1  0  0  0  0
 89188  1  0  0  0  0
 89189  1  0  0  0  0
 90190  1  0  0  0  0
 90191  1  0  0  0  0
 90192  1  0  0  0  0
 91193  1  0  0  0  0
 95194  1  0  0  0  0
 96195  1  0  0  0  0
 98196  1  0  0  0  0
 99197  1  0  0  0  0
100198  1  0  0  0  0
105199  1  0  0  0  0
108200  1  0  0  0  0
116201  1  0  0  0  0
117202  1  0  0  0  0
118203  1  0  0  0  0
119204  1  0  0  0  0
120205  1  0  0  0  0
121206  1  0  0  0  0
121207  1  0  0  0  0
122208  1  0  0  0  0
M  END
