
  xtb     02192220313D
 energy: -416.520821238532 gnorm: 0.000867412819 xtb: 6.4.1 (unknown)
255286  0     0  0            999 V2000
   -5.2242   -8.2191   -5.8510 C   0  0  0  0  0  0  0  0  0  0  0  0
   -4.6604   -8.2810   -7.1038 C   0  0  0  0  0  0  0  0  0  0  0  0
   -4.2297   -7.1454   -7.9229 C   0  0  0  0  0  0  0  0  0  0  0  0
   -4.4851   -5.9648   -7.7567 O   0  0  0  0  0  0  0  0  0  0  0  0
   -3.4061   -7.7119   -9.0078 C   0  0  0  0  0  0  0  0  0  0  0  0
   -2.7363   -7.0118  -10.0072 C   0  0  0  0  0  0  0  0  0  0  0  0
   -2.0208   -7.8114  -10.8664 C   0  0  0  0  0  0  0  0  0  0  0  0
   -1.9820   -9.2060  -10.7457 C   0  0  0  0  0  0  0  0  0  0  0  0
   -2.6486   -9.9100   -9.7702 C   0  0  0  0  0  0  0  0  0  0  0  0
   -3.3744   -9.1150   -8.8801 C   0  0  0  0  0  0  0  0  0  0  0  0
   -4.2005   -9.4949   -7.7343 C   0  0  0  0  0  0  0  0  0  0  0  0
   -4.4793  -10.7835   -7.3451 C   0  0  0  0  0  0  0  0  0  0  0  0
   -3.8836  -11.9328   -7.8982 C   0  0  0  0  0  0  0  0  0  0  0  0
   -3.4144  -12.9142   -8.2691 N   0  0  0  0  0  0  0  0  0  0  0  0
   -5.4151  -11.1484   -6.3589 C   0  0  0  0  0  0  0  0  0  0  0  0
   -6.1903  -11.5357   -5.6029 N   0  0  0  0  0  0  0  0  0  0  0  0
   -1.0610   -9.3630  -11.9299 C   0  0  0  0  0  0  0  0  0  0  0  0
    0.4362   -9.6410  -11.6469 C   0  0  0  0  0  0  0  0  0  0  0  0
    0.7330   -9.0525  -10.2901 C   0  0  0  0  0  0  0  0  0  0  0  0
    0.6963   -7.7317  -10.4047 C   0  0  0  0  0  0  0  0  0  0  0  0
    0.3737   -7.4033  -11.8414 C   0  0  0  0  0  0  0  0  0  0  0  0
    1.0742   -8.5734  -12.5502 C   0  0  0  0  0  0  0  0  0  0  0  0
   -1.1046   -7.8083  -12.0649 C   0  0  0  0  0  0  0  0  0  0  0  0
   -5.5437   -7.1199   -5.0540 C   0  0  0  0  0  0  0  0  0  0  0  0
   -5.8911   -7.2284   -3.6845 C   0  0  0  0  0  0  0  0  0  0  0  0
   -5.8607   -8.3757   -2.9334 N   0  0  0  0  0  0  0  0  0  0  0  0
   -4.8925   -9.3803   -3.1187 C   0  0  0  0  0  0  0  0  0  0  0  0
   -3.5814   -9.0515   -3.4571 C   0  0  0  0  0  0  0  0  0  0  0  0
   -2.6567  -10.0498   -3.6876 C   0  0  0  0  0  0  0  0  0  0  0  0
   -3.0004  -11.3915   -3.5617 C   0  0  0  0  0  0  0  0  0  0  0  0
   -2.0126  -12.4753   -3.8641 C   0  0  0  0  0  0  0  0  0  0  0  0
   -4.2961  -11.7062   -3.1707 C   0  0  0  0  0  0  0  0  0  0  0  0
   -5.2380  -10.7193   -2.9570 C   0  0  0  0  0  0  0  0  0  0  0  0
   -6.7761   -8.5055   -1.8717 C   0  0  0  0  0  0  0  0  0  0  0  0
   -6.3687   -9.0070   -0.6400 C   0  0  0  0  0  0  0  0  0  0  0  0
   -7.2797   -9.1329    0.3903 C   0  0  0  0  0  0  0  0  0  0  0  0
   -8.6080   -8.7617    0.2244 C   0  0  0  0  0  0  0  0  0  0  0  0
   -9.5920   -8.8763    1.3473 C   0  0  0  0  0  0  0  0  0  0  0  0
   -9.0061   -8.2645   -1.0119 C   0  0  0  0  0  0  0  0  0  0  0  0
   -8.1081   -8.1398   -2.0515 C   0  0  0  0  0  0  0  0  0  0  0  0
   -6.2447   -5.9740   -3.1589 C   0  0  0  0  0  0  0  0  0  0  0  0
   -6.6358   -5.4056   -1.5660 S   0  0  0  0  0  0  0  0  0  0  0  0
   -6.6963   -3.7541   -2.1613 C   0  0  0  0  0  0  0  0  0  0  0  0
   -6.3877   -3.6548   -3.5094 C   0  0  0  0  0  0  0  0  0  0  0  0
   -6.2674   -2.4772   -4.2269 N   0  0  0  0  0  0  0  0  0  0  0  0
   -6.6648   -2.4755   -5.5738 C   0  0  0  0  0  0  0  0  0  0  0  0
   -7.7992   -3.1769   -5.9707 C   0  0  0  0  0  0  0  0  0  0  0  0
   -8.1696   -3.2029   -7.3001 C   0  0  0  0  0  0  0  0  0  0  0  0
   -7.4304   -2.5299   -8.2639 C   0  0  0  0  0  0  0  0  0  0  0  0
   -7.8136   -2.5919   -9.7107 C   0  0  0  0  0  0  0  0  0  0  0  0
   -6.3068   -1.8209   -7.8563 C   0  0  0  0  0  0  0  0  0  0  0  0
   -5.9212   -1.7926   -6.5319 C   0  0  0  0  0  0  0  0  0  0  0  0
   -5.6983   -1.3341   -3.6541 C   0  0  0  0  0  0  0  0  0  0  0  0
   -6.1805   -0.0682   -3.9827 C   0  0  0  0  0  0  0  0  0  0  0  0
   -5.6711    1.0538   -3.3630 C   0  0  0  0  0  0  0  0  0  0  0  0
   -4.6642    0.9568   -2.4083 C   0  0  0  0  0  0  0  0  0  0  0  0
   -4.1420    2.1856   -1.7284 C   0  0  0  0  0  0  0  0  0  0  0  0
   -4.1507   -0.3016   -2.1271 C   0  0  0  0  0  0  0  0  0  0  0  0
   -4.6504   -1.4339   -2.7421 C   0  0  0  0  0  0  0  0  0  0  0  0
   -6.1527   -4.9330   -4.0727 C   0  0  0  0  0  0  0  0  0  0  0  0
   -5.6030   -5.4485   -5.6249 S   0  0  0  0  0  0  0  0  0  0  0  0
   -6.9076   -2.6467   -1.2747 C   0  0  0  0  0  0  0  0  0  0  0  0
   -7.7198   -1.5505   -1.4858 C   0  0  0  0  0  0  0  0  0  0  0  0
   -8.7985   -1.5298   -2.4704 C   0  0  0  0  0  0  0  0  0  0  0  0
   -9.4930   -2.6981   -2.7834 C   0  0  0  0  0  0  0  0  0  0  0  0
  -10.5059   -2.6721   -3.7215 C   0  0  0  0  0  0  0  0  0  0  0  0
  -10.8415   -1.4895   -4.3583 C   0  0  0  0  0  0  0  0  0  0  0  0
  -10.1766   -0.3122   -4.0449 C   0  0  0  0  0  0  0  0  0  0  0  0
  -10.5647    0.9931   -4.6773 C   0  0  0  0  0  0  0  0  0  0  0  0
  -11.4717    1.7904   -3.7381 C   0  0  0  0  0  0  0  0  0  0  0  0
   -9.1670   -0.3432   -3.0950 C   0  0  0  0  0  0  0  0  0  0  0  0
   -7.3729   -0.4917   -0.6143 C   0  0  0  0  0  0  0  0  0  0  0  0
   -7.8789    1.1766   -0.4962 S   0  0  0  0  0  0  0  0  0  0  0  0
   -6.6473    1.4560    0.6882 C   0  0  0  0  0  0  0  0  0  0  0  0
   -6.0038    2.5366    1.3169 C   0  0  0  0  0  0  0  0  0  0  0  0
   -6.1355    3.9336    1.1509 C   0  0  0  0  0  0  0  0  0  0  0  0
   -5.1081    4.7998    1.6669 C   0  0  0  0  0  0  0  0  0  0  0  0
   -5.3082    6.0673    1.3433 N   0  0  0  0  0  0  0  0  0  0  0  0
   -6.6719    6.1695    0.4759 S   0  0  0  0  0  0  0  0  0  0  0  0
   -7.0566    4.5958    0.4692 N   0  0  0  0  0  0  0  0  0  0  0  0
   -4.0650    4.2438    2.4396 C   0  0  0  0  0  0  0  0  0  0  0  0
   -2.9325    4.8041    3.0605 C   0  0  0  0  0  0  0  0  0  0  0  0
   -2.0938    6.3175    3.1446 S   0  0  0  0  0  0  0  0  0  0  0  0
   -0.8433    5.5474    4.0923 C   0  0  0  0  0  0  0  0  0  0  0  0
    0.3846    6.0057    4.6091 C   0  0  0  0  0  0  0  0  0  0  0  0
    0.8377    7.3952    4.5127 C   0  0  0  0  0  0  0  0  0  0  0  0
    1.2498    8.0826    5.6514 C   0  0  0  0  0  0  0  0  0  0  0  0
    1.6295    9.4067    5.5536 C   0  0  0  0  0  0  0  0  0  0  0  0
    1.6190   10.0481    4.3265 C   0  0  0  0  0  0  0  0  0  0  0  0
    1.2223    9.3731    3.1801 C   0  0  0  0  0  0  0  0  0  0  0  0
    1.2768   10.0409    1.8374 C   0  0  0  0  0  0  0  0  0  0  0  0
    2.6244    9.7625    1.1677 C   0  0  0  0  0  0  0  0  0  0  0  0
    0.8217    8.0494    3.2869 C   0  0  0  0  0  0  0  0  0  0  0  0
    1.0696    4.9867    5.2444 C   0  0  0  0  0  0  0  0  0  0  0  0
    0.1748    3.4747    5.2603 S   0  0  0  0  0  0  0  0  0  0  0  0
   -1.1021    4.2004    4.3527 C   0  0  0  0  0  0  0  0  0  0  0  0
   -2.2940    3.7747    3.7562 C   0  0  0  0  0  0  0  0  0  0  0  0
   -2.9786    2.5961    3.5913 N   0  0  0  0  0  0  0  0  0  0  0  0
   -4.0428    2.8575    2.7447 C   0  0  0  0  0  0  0  0  0  0  0  0
   -4.9278    1.9869    2.0647 C   0  0  0  0  0  0  0  0  0  0  0  0
   -4.9035    0.6196    1.8679 N   0  0  0  0  0  0  0  0  0  0  0  0
   -5.9319    0.3046    1.0212 C   0  0  0  0  0  0  0  0  0  0  0  0
   -6.3431   -0.8049    0.2709 C   0  0  0  0  0  0  0  0  0  0  0  0
   -5.8048   -2.4323    0.0746 S   0  0  0  0  0  0  0  0  0  0  0  0
   -3.8398   -0.3308    2.1002 C   0  0  0  0  0  0  0  0  0  0  0  0
   -4.2469   -1.4177    3.0938 C   0  0  0  0  0  0  0  0  0  0  0  0
   -2.9024    1.5656    4.6048 C   0  0  0  0  0  0  0  0  0  0  0  0
   -3.2478    2.1181    5.9875 C   0  0  0  0  0  0  0  0  0  0  0  0
    2.4249    4.9794    5.6885 C   0  0  0  0  0  0  0  0  0  0  0  0
    3.4467    5.7738    5.2540 C   0  0  0  0  0  0  0  0  0  0  0  0
    4.7101    5.4002    5.7685 C   0  0  0  0  0  0  0  0  0  0  0  0
    5.9597    5.9389    5.4185 C   0  0  0  0  0  0  0  0  0  0  0  0
    6.0714    7.1185    4.5501 C   0  0  0  0  0  0  0  0  0  0  0  0
    6.8855    7.0753    3.3985 C   0  0  0  0  0  0  0  0  0  0  0  0
    7.0078    8.1699    2.5931 C   0  0  0  0  0  0  0  0  0  0  0  0
    6.3460    9.3764    2.9035 C   0  0  0  0  0  0  0  0  0  0  0  0
    6.4650   10.5292    2.1006 C   0  0  0  0  0  0  0  0  0  0  0  0
    5.8261   11.6879    2.4441 C   0  0  0  0  0  0  0  0  0  0  0  0
    5.0455   11.7483    3.6099 C   0  0  0  0  0  0  0  0  0  0  0  0
    4.9061   10.6466    4.4060 C   0  0  0  0  0  0  0  0  0  0  0  0
    5.5404    9.4319    4.0711 C   0  0  0  0  0  0  0  0  0  0  0  0
    5.4078    8.2793    4.8675 C   0  0  0  0  0  0  0  0  0  0  0  0
    7.0717    5.3110    5.9490 C   0  0  0  0  0  0  0  0  0  0  0  0
    7.0016    4.2201    6.8549 C   0  0  0  0  0  0  0  0  0  0  0  0
    5.7441    3.6742    7.2029 C   0  0  0  0  0  0  0  0  0  0  0  0
    5.6319    2.5202    8.0635 C   0  0  0  0  0  0  0  0  0  0  0  0
    6.4195    1.4001    8.1112 C   0  0  0  0  0  0  0  0  0  0  0  0
    6.0013    0.4516    9.0566 C   0  0  0  0  0  0  0  0  0  0  0  0
    4.8870    0.8470    9.7455 C   0  0  0  0  0  0  0  0  0  0  0  0
    4.0917   -0.0683   10.9957 S   0  0  0  0  0  0  0  0  0  0  0  0
    2.6555    1.0126   11.3535 C   0  0  0  0  0  0  0  0  0  0  0  0
    1.7635    0.3550   12.3871 C   0  0  0  0  0  0  0  0  0  0  0  0
    4.3336    2.4057    9.2231 S   0  0  0  0  0  0  0  0  0  0  0  0
    4.6302    4.2862    6.6390 C   0  0  0  0  0  0  0  0  0  0  0  0
    2.9795    3.7476    6.8052 S   0  0  0  0  0  0  0  0  0  0  0  0
    8.2814    3.8371    7.3048 C   0  0  0  0  0  0  0  0  0  0  0  0
    9.3108    4.5724    6.7700 C   0  0  0  0  0  0  0  0  0  0  0  0
    8.7185    5.7823    5.6435 S   0  0  0  0  0  0  0  0  0  0  0  0
   10.6910    4.3124    6.9623 C   0  0  0  0  0  0  0  0  0  0  0  0
   11.7610    5.0520    6.5722 C   0  0  0  0  0  0  0  0  0  0  0  0
   13.0840    4.3999    6.3687 C   0  0  0  0  0  0  0  0  0  0  0  0
   13.4381    3.3248    6.7963 O   0  0  0  0  0  0  0  0  0  0  0  0
   13.8253    5.3125    5.4754 C   0  0  0  0  0  0  0  0  0  0  0  0
   15.0540    5.0777    4.8601 C   0  0  0  0  0  0  0  0  0  0  0  0
   15.4779    6.1010    4.0468 C   0  0  0  0  0  0  0  0  0  0  0  0
   14.7353    7.2736    3.8490 C   0  0  0  0  0  0  0  0  0  0  0  0
   13.5258    7.5234    4.4522 C   0  0  0  0  0  0  0  0  0  0  0  0
   13.0809    6.4972    5.2893 C   0  0  0  0  0  0  0  0  0  0  0  0
   11.8765    6.4187    6.1095 C   0  0  0  0  0  0  0  0  0  0  0  0
   11.1566    7.4818    6.5857 C   0  0  0  0  0  0  0  0  0  0  0  0
   10.2127    7.3526    7.6275 C   0  0  0  0  0  0  0  0  0  0  0  0
    9.4912    7.2951    8.5184 N   0  0  0  0  0  0  0  0  0  0  0  0
   11.3557    8.8147    6.1771 C   0  0  0  0  0  0  0  0  0  0  0  0
   11.4785    9.9136    5.8680 N   0  0  0  0  0  0  0  0  0  0  0  0
   15.7568    7.8566    2.9048 C   0  0  0  0  0  0  0  0  0  0  0  0
   16.6795    8.9519    3.4800 C   0  0  0  0  0  0  0  0  0  0  0  0
   17.8472    8.9810    2.5204 C   0  0  0  0  0  0  0  0  0  0  0  0
   18.5523    7.8730    2.7093 C   0  0  0  0  0  0  0  0  0  0  0  0
   17.8732    7.0763    3.8000 C   0  0  0  0  0  0  0  0  0  0  0  0
   17.3282    8.2216    4.6630 C   0  0  0  0  0  0  0  0  0  0  0  0
   16.5866    6.5516    3.1280 C   0  0  0  0  0  0  0  0  0  0  0  0
   -5.3989   -9.1732   -5.3711 H   0  0  0  0  0  0  0  0  0  0  0  0
   -2.7961   -5.9361  -10.0653 H   0  0  0  0  0  0  0  0  0  0  0  0
   -2.6116  -10.9839   -9.6924 H   0  0  0  0  0  0  0  0  0  0  0  0
   -1.4433   -9.9575  -12.7574 H   0  0  0  0  0  0  0  0  0  0  0  0
    0.7403  -10.6731  -11.7991 H   0  0  0  0  0  0  0  0  0  0  0  0
    0.8764   -9.6392   -9.4016 H   0  0  0  0  0  0  0  0  0  0  0  0
    0.8026   -6.9940   -9.6309 H   0  0  0  0  0  0  0  0  0  0  0  0
    0.6216   -6.3976  -12.1712 H   0  0  0  0  0  0  0  0  0  0  0  0
    0.7994   -8.6723  -13.5995 H   0  0  0  0  0  0  0  0  0  0  0  0
    2.1585   -8.5349  -12.4560 H   0  0  0  0  0  0  0  0  0  0  0  0
   -1.5155   -7.3880  -12.9810 H   0  0  0  0  0  0  0  0  0  0  0  0
   -3.2982   -8.0137   -3.5566 H   0  0  0  0  0  0  0  0  0  0  0  0
   -1.6479   -9.7808   -3.9667 H   0  0  0  0  0  0  0  0  0  0  0  0
   -2.0929  -13.2844   -3.1413 H   0  0  0  0  0  0  0  0  0  0  0  0
   -0.9952  -12.0917   -3.8556 H   0  0  0  0  0  0  0  0  0  0  0  0
   -2.2121  -12.8920   -4.8524 H   0  0  0  0  0  0  0  0  0  0  0  0
   -4.5823  -12.7410   -3.0593 H   0  0  0  0  0  0  0  0  0  0  0  0
   -6.2488  -10.9815   -2.6866 H   0  0  0  0  0  0  0  0  0  0  0  0
   -5.3373   -9.2927   -0.4955 H   0  0  0  0  0  0  0  0  0  0  0  0
   -6.9491   -9.5215    1.3426 H   0  0  0  0  0  0  0  0  0  0  0  0
   -9.7936   -7.8909    1.7681 H   0  0  0  0  0  0  0  0  0  0  0  0
  -10.5357   -9.2856    0.9919 H   0  0  0  0  0  0  0  0  0  0  0  0
   -9.2076   -9.5136    2.1394 H   0  0  0  0  0  0  0  0  0  0  0  0
  -10.0371   -7.9796   -1.1634 H   0  0  0  0  0  0  0  0  0  0  0  0
   -8.4329   -7.7682   -3.0125 H   0  0  0  0  0  0  0  0  0  0  0  0
   -8.3903   -3.6956   -5.2308 H   0  0  0  0  0  0  0  0  0  0  0  0
   -9.0508   -3.7554   -7.5927 H   0  0  0  0  0  0  0  0  0  0  0  0
   -7.2846   -3.4131  -10.1956 H   0  0  0  0  0  0  0  0  0  0  0  0
   -8.8813   -2.7648   -9.8242 H   0  0  0  0  0  0  0  0  0  0  0  0
   -7.5470   -1.6707  -10.2241 H   0  0  0  0  0  0  0  0  0  0  0  0
   -5.7153   -1.2933   -8.5907 H   0  0  0  0  0  0  0  0  0  0  0  0
   -5.0361   -1.2507   -6.2329 H   0  0  0  0  0  0  0  0  0  0  0  0
   -6.9696    0.0196   -4.7141 H   0  0  0  0  0  0  0  0  0  0  0  0
   -6.0725    2.0262   -3.6096 H   0  0  0  0  0  0  0  0  0  0  0  0
   -3.5828    1.9311   -0.8304 H   0  0  0  0  0  0  0  0  0  0  0  0
   -3.4794    2.7350   -2.3978 H   0  0  0  0  0  0  0  0  0  0  0  0
   -4.9607    2.8480   -1.4535 H   0  0  0  0  0  0  0  0  0  0  0  0
   -3.3424   -0.4011   -1.4154 H   0  0  0  0  0  0  0  0  0  0  0  0
   -4.2309   -2.4033   -2.5146 H   0  0  0  0  0  0  0  0  0  0  0  0
   -9.2484   -3.6204   -2.2776 H   0  0  0  0  0  0  0  0  0  0  0  0
  -11.0413   -3.5807   -3.9574 H   0  0  0  0  0  0  0  0  0  0  0  0
  -11.6296   -1.4800   -5.0973 H   0  0  0  0  0  0  0  0  0  0  0  0
   -9.6685    1.5795   -4.8914 H   0  0  0  0  0  0  0  0  0  0  0  0
  -11.0862    0.8095   -5.6186 H   0  0  0  0  0  0  0  0  0  0  0  0
  -10.9589    1.9940   -2.8008 H   0  0  0  0  0  0  0  0  0  0  0  0
  -12.3763    1.2274   -3.5186 H   0  0  0  0  0  0  0  0  0  0  0  0
  -11.7534    2.7369   -4.1935 H   0  0  0  0  0  0  0  0  0  0  0  0
   -8.6468    0.5699   -2.8507 H   0  0  0  0  0  0  0  0  0  0  0  0
    1.2547    7.5787    6.6067 H   0  0  0  0  0  0  0  0  0  0  0  0
    1.9299    9.9436    6.4419 H   0  0  0  0  0  0  0  0  0  0  0  0
    1.9167   11.0837    4.2553 H   0  0  0  0  0  0  0  0  0  0  0  0
    0.4717    9.6647    1.2031 H   0  0  0  0  0  0  0  0  0  0  0  0
    1.1483   11.1186    1.9529 H   0  0  0  0  0  0  0  0  0  0  0  0
    2.7664    8.6925    1.0316 H   0  0  0  0  0  0  0  0  0  0  0  0
    3.4388   10.1377    1.7832 H   0  0  0  0  0  0  0  0  0  0  0  0
    2.6728   10.2454    0.1945 H   0  0  0  0  0  0  0  0  0  0  0  0
    0.5035    7.5137    2.4040 H   0  0  0  0  0  0  0  0  0  0  0  0
   -3.6110   -0.8115    1.1418 H   0  0  0  0  0  0  0  0  0  0  0  0
   -2.9478    0.2033    2.4276 H   0  0  0  0  0  0  0  0  0  0  0  0
   -3.3995   -2.0668    3.2948 H   0  0  0  0  0  0  0  0  0  0  0  0
   -5.0499   -2.0198    2.6773 H   0  0  0  0  0  0  0  0  0  0  0  0
   -4.5955   -0.9952    4.0336 H   0  0  0  0  0  0  0  0  0  0  0  0
   -1.8881    1.1524    4.6157 H   0  0  0  0  0  0  0  0  0  0  0  0
   -3.6146    0.7833    4.3611 H   0  0  0  0  0  0  0  0  0  0  0  0
   -3.2418    1.3092    6.7130 H   0  0  0  0  0  0  0  0  0  0  0  0
   -2.5259    2.8666    6.3012 H   0  0  0  0  0  0  0  0  0  0  0  0
   -4.2372    2.5708    5.9749 H   0  0  0  0  0  0  0  0  0  0  0  0
    3.3145    6.5656    4.5399 H   0  0  0  0  0  0  0  0  0  0  0  0
    7.3936    6.1546    3.1512 H   0  0  0  0  0  0  0  0  0  0  0  0
    7.6212    8.1277    1.7044 H   0  0  0  0  0  0  0  0  0  0  0  0
    7.0753   10.4806    1.2101 H   0  0  0  0  0  0  0  0  0  0  0  0
    5.9217   12.5677    1.8249 H   0  0  0  0  0  0  0  0  0  0  0  0
    4.5595   12.6769    3.8721 H   0  0  0  0  0  0  0  0  0  0  0  0
    4.3151   10.6866    5.3086 H   0  0  0  0  0  0  0  0  0  0  0  0
    4.7932    8.3268    5.7555 H   0  0  0  0  0  0  0  0  0  0  0  0
    7.2473    1.2372    7.4448 H   0  0  0  0  0  0  0  0  0  0  0  0
    6.4891   -0.4902    9.2271 H   0  0  0  0  0  0  0  0  0  0  0  0
    3.0466    1.9648   11.7139 H   0  0  0  0  0  0  0  0  0  0  0  0
    2.1270    1.1692   10.4122 H   0  0  0  0  0  0  0  0  0  0  0  0
    0.9093    0.9957   12.5950 H   0  0  0  0  0  0  0  0  0  0  0  0
    1.4015   -0.6039   12.0236 H   0  0  0  0  0  0  0  0  0  0  0  0
    2.3097    0.1893   13.3127 H   0  0  0  0  0  0  0  0  0  0  0  0
    8.4523    3.0693    8.0371 H   0  0  0  0  0  0  0  0  0  0  0  0
   10.9252    3.3357    7.3746 H   0  0  0  0  0  0  0  0  0  0  0  0
   15.5932    4.1591    5.0305 H   0  0  0  0  0  0  0  0  0  0  0  0
   12.9522    8.4210    4.2873 H   0  0  0  0  0  0  0  0  0  0  0  0
   15.4013    8.0828    1.9012 H   0  0  0  0  0  0  0  0  0  0  0  0
   16.1881    9.8992    3.6840 H   0  0  0  0  0  0  0  0  0  0  0  0
   18.0037    9.7520    1.7889 H   0  0  0  0  0  0  0  0  0  0  0  0
   19.4153    7.5335    2.1671 H   0  0  0  0  0  0  0  0  0  0  0  0
   18.4713    6.3159    4.2950 H   0  0  0  0  0  0  0  0  0  0  0  0
   16.6231    7.9043    5.4289 H   0  0  0  0  0  0  0  0  0  0  0  0
   18.1242    8.8064    5.1209 H   0  0  0  0  0  0  0  0  0  0  0  0
   16.7854    5.9079    2.2729 H   0  0  0  0  0  0  0  0  0  0  0  0
  1  2  2  0  0  0  0
  2  3  1  0  0  0  0
  3  4  2  0  0  0  0
  3  5  1  0  0  0  0
  5  6  2  0  0  0  0
  6  7  1  0  0  0  0
  7  8  2  0  0  0  0
  8  9  1  0  0  0  0
  9 10  2  0  0  0  0
 10 11  1  0  0  0  0
 11 12  2  0  0  0  0
 12 13  1  0  0  0  0
 13 14  3  0  0  0  0
 12 15  1  0  0  0  0
 15 16  3  0  0  0  0
  8 17  1  0  0  0  0
 17 18  1  0  0  0  0
 18 19  1  0  0  0  0
 19 20  2  0  0  0  0
 20 21  1  0  0  0  0
 21 22  1  0  0  0  0
 21 23  1  0  0  0  0
  1 24  1  0  0  0  0
 24 25  2  0  0  0  0
 25 26  1  0  0  0  0
 26 27  1  0  0  0  0
 27 28  2  0  0  0  0
 28 29  1  0  0  0  0
 29 30  2  0  0  0  0
 30 31  1  0  0  0  0
 30 32  1  0  0  0  0
 32 33  2  0  0  0  0
 26 34  1  0  0  0  0
 34 35  2  0  0  0  0
 35 36  1  0  0  0  0
 36 37  2  0  0  0  0
 37 38  1  0  0  0  0
 37 39  1  0  0  0  0
 39 40  2  0  0  0  0
 25 41  1  0  0  0  0
 41 42  1  0  0  0  0
 42 43  1  0  0  0  0
 43 44  2  0  0  0  0
 44 45  1  0  0  0  0
 45 46  1  0  0  0  0
 46 47  2  0  0  0  0
 47 48  1  0  0  0  0
 48 49  2  0  0  0  0
 49 50  1  0  0  0  0
 49 51  1  0  0  0  0
 51 52  2  0  0  0  0
 45 53  1  0  0  0  0
 53 54  2  0  0  0  0
 54 55  1  0  0  0  0
 55 56  2  0  0  0  0
 56 57  1  0  0  0  0
 56 58  1  0  0  0  0
 58 59  2  0  0  0  0
 44 60  1  0  0  0  0
 60 61  1  0  0  0  0
 43 62  1  0  0  0  0
 62 63  2  0  0  0  0
 63 64  1  0  0  0  0
 64 65  2  0  0  0  0
 65 66  1  0  0  0  0
 66 67  2  0  0  0  0
 67 68  1  0  0  0  0
 68 69  1  0  0  0  0
 69 70  1  0  0  0  0
 68 71  2  0  0  0  0
 63 72  1  0  0  0  0
 72 73  1  0  0  0  0
 73 74  1  0  0  0  0
 74 75  1  0  0  0  0
 75 76  1  0  0  0  0
 76 77  1  0  0  0  0
 77 78  2  0  0  0  0
 78 79  1  0  0  0  0
 79 80  1  0  0  0  0
 77 81  1  0  0  0  0
 81 82  1  0  0  0  0
 82 83  1  0  0  0  0
 83 84  1  0  0  0  0
 84 85  1  0  0  0  0
 85 86  1  0  0  0  0
 86 87  2  0  0  0  0
 87 88  1  0  0  0  0
 88 89  2  0  0  0  0
 89 90  1  0  0  0  0
 90 91  1  0  0  0  0
 91 92  1  0  0  0  0
 90 93  2  0  0  0  0
 85 94  2  0  0  0  0
 94 95  1  0  0  0  0
 95 96  1  0  0  0  0
 96 97  1  0  0  0  0
 97 98  1  0  0  0  0
 98 99  1  0  0  0  0
 99100  1  0  0  0  0
100101  1  0  0  0  0
101102  1  0  0  0  0
102103  1  0  0  0  0
103104  1  0  0  0  0
101105  1  0  0  0  0
105106  1  0  0  0  0
 98107  1  0  0  0  0
107108  1  0  0  0  0
 94109  1  0  0  0  0
109110  2  0  0  0  0
110111  1  0  0  0  0
111112  2  0  0  0  0
112113  1  0  0  0  0
113114  2  0  0  0  0
114115  1  0  0  0  0
115116  2  0  0  0  0
116117  1  0  0  0  0
117118  2  0  0  0  0
118119  1  0  0  0  0
119120  2  0  0  0  0
120121  1  0  0  0  0
121122  2  0  0  0  0
112123  1  0  0  0  0
123124  2  0  0  0  0
124125  1  0  0  0  0
125126  1  0  0  0  0
126127  2  0  0  0  0
127128  1  0  0  0  0
128129  2  0  0  0  0
129130  1  0  0  0  0
130131  1  0  0  0  0
131132  1  0  0  0  0
129133  1  0  0  0  0
125134  2  0  0  0  0
134135  1  0  0  0  0
124136  1  0  0  0  0
136137  2  0  0  0  0
137138  1  0  0  0  0
137139  1  0  0  0  0
139140  2  0  0  0  0
140141  1  0  0  0  0
141142  2  0  0  0  0
141143  1  0  0  0  0
143144  2  0  0  0  0
144145  1  0  0  0  0
145146  2  0  0  0  0
146147  1  0  0  0  0
147148  2  0  0  0  0
148149  1  0  0  0  0
149150  2  0  0  0  0
150151  1  0  0  0  0
151152  3  0  0  0  0
150153  1  0  0  0  0
153154  3  0  0  0  0
146155  1  0  0  0  0
155156  1  0  0  0  0
156157  1  0  0  0  0
157158  2  0  0  0  0
158159  1  0  0  0  0
159160  1  0  0  0  0
159161  1  0  0  0  0
 11  2  1  0  0  0  0
 23 17  1  0  0  0  0
 61 24  1  0  0  0  0
104 62  1  0  0  0  0
135109  1  0  0  0  0
149140  1  0  0  0  0
161155  1  0  0  0  0
 10  5  1  0  0  0  0
 22 18  1  0  0  0  0
 33 27  1  0  0  0  0
 40 34  1  0  0  0  0
 60 41  2  0  0  0  0
 71 64  1  0  0  0  0
103 72  2  0  0  0  0
134111  1  0  0  0  0
148143  1  0  0  0  0
160156  1  0  0  0  0
 23  7  1  0  0  0  0
 52 46  1  0  0  0  0
 59 53  1  0  0  0  0
102 74  2  0  0  0  0
122113  1  0  0  0  0
138123  1  0  0  0  0
161145  1  0  0  0  0
100 75  2  0  0  0  0
121116  1  0  0  0  0
133126  1  0  0  0  0
 80 76  2  0  0  0  0
 99 81  2  0  0  0  0
 97 82  2  0  0  0  0
 96 84  2  0  0  0  0
 93 86  1  0  0  0  0
  1162  1  0  0  0  0
  6163  1  0  0  0  0
  9164  1  0  0  0  0
 17165  1  0  0  0  0
 18166  1  0  0  0  0
 19167  1  0  0  0  0
 20168  1  0  0  0  0
 21169  1  0  0  0  0
 22170  1  0  0  0  0
 22171  1  0  0  0  0
 23172  1  0  0  0  0
 28173  1  0  0  0  0
 29174  1  0  0  0  0
 31175  1  0  0  0  0
 31176  1  0  0  0  0
 31177  1  0  0  0  0
 32178  1  0  0  0  0
 33179  1  0  0  0  0
 35180  1  0  0  0  0
 36181  1  0  0  0  0
 38182  1  0  0  0  0
 38183  1  0  0  0  0
 38184  1  0  0  0  0
 39185  1  0  0  0  0
 40186  1  0  0  0  0
 47187  1  0  0  0  0
 48188  1  0  0  0  0
 50189  1  0  0  0  0
 50190  1  0  0  0  0
 50191  1  0  0  0  0
 51192  1  0  0  0  0
 52193  1  0  0  0  0
 54194  1  0  0  0  0
 55195  1  0  0  0  0
 57196  1  0  0  0  0
 57197  1  0  0  0  0
 57198  1  0  0  0  0
 58199  1  0  0  0  0
 59200  1  0  0  0  0
 65201  1  0  0  0  0
 66202  1  0  0  0  0
 67203  1  0  0  0  0
 69204  1  0  0  0  0
 69205  1  0  0  0  0
 70206  1  0  0  0  0
 70207  1  0  0  0  0
 70208  1  0  0  0  0
 71209  1  0  0  0  0
 87210  1  0  0  0  0
 88211  1  0  0  0  0
 89212  1  0  0  0  0
 91213  1  0  0  0  0
 91214  1  0  0  0  0
 92215  1  0  0  0  0
 92216  1  0  0  0  0
 92217  1  0  0  0  0
 93218  1  0  0  0  0
105219  1  0  0  0  0
105220  1  0  0  0  0
106221  1  0  0  0  0
106222  1  0  0  0  0
106223  1  0  0  0  0
107224  1  0  0  0  0
107225  1  0  0  0  0
108226  1  0  0  0  0
108227  1  0  0  0  0
108228  1  0  0  0  0
110229  1  0  0  0  0
114230  1  0  0  0  0
115231  1  0  0  0  0
117232  1  0  0  0  0
118233  1  0  0  0  0
119234  1  0  0  0  0
120235  1  0  0  0  0
122236  1  0  0  0  0
127237  1  0  0  0  0
128238  1  0  0  0  0
131239  1  0  0  0  0
131240  1  0  0  0  0
132241  1  0  0  0  0
132242  1  0  0  0  0
132243  1  0  0  0  0
136244  1  0  0  0  0
139245  1  0  0  0  0
144246  1  0  0  0  0
147247  1  0  0  0  0
155248  1  0  0  0  0
156249  1  0  0  0  0
157250  1  0  0  0  0
158251  1  0  0  0  0
159252  1  0  0  0  0
160253  1  0  0  0  0
160254  1  0  0  0  0
161255  1  0  0  0  0
M  END
