225

C         -7.26020       -5.16540        4.63970
C         -8.24470       -5.78250        3.91600
C         -9.40430       -6.39950        4.59690
O         -9.49530       -6.69550        5.76960
C        -10.44950       -6.51310        3.55410
C        -11.77670       -6.90200        3.72180
C        -12.52270       -6.86460        2.56720
C        -11.99030       -6.47790        1.33070
C        -10.68020       -6.10570        1.14560
C         -9.90940       -6.12860        2.30960
C         -8.49430       -5.82150        2.49670
C         -7.53880       -5.83920        1.50860
C         -7.81860       -5.89020        0.13250
N         -7.99310       -5.89650       -1.00350
C         -6.15970       -5.87340        1.79440
N         -5.03400       -5.96760        2.00490
C        -13.30680       -6.65430        0.61590
C        -14.09100       -5.36530        0.29180
C        -15.50180       -5.85090        0.05050
C        -16.00780       -6.21760        1.22100
C        -14.94760       -5.98520        2.27320
C        -14.25980       -4.74640        1.68530
C        -13.90190       -7.08590        1.99450
C         -6.42420       -4.12270        4.21080
C         -5.35760       -3.54060        4.91580
N         -4.81310       -4.03750        6.06560
C         -4.76300       -5.42290        6.32850
C         -4.47220       -6.32930        5.31330
C         -4.42120       -7.67950        5.59450
C         -4.64160       -8.15740        6.88160
C         -4.60990       -9.62610        7.17090
C         -4.91390       -7.24040        7.88930
C         -4.97630       -5.88670        7.62230
C         -4.20170       -3.15340        6.97340
C         -2.98650       -3.47630        7.56910
C         -2.40140       -2.60030        8.46120
C         -3.00320       -1.38830        8.77980
C         -2.34670       -0.42870        9.72340
C         -4.22130       -1.07920        8.18630
C         -4.82090       -1.94890        7.29810
C         -4.89260       -2.37710        4.25820
S         -3.59980       -1.25910        4.53960
C         -4.00480       -0.39490        3.06410
C         -5.04240       -0.98740        2.35670
N         -5.49610       -0.61830        1.11030
C         -4.66790       -0.01480        0.15260
C         -5.19980        0.96160       -0.68500
C         -4.38810        1.62350       -1.58380
C         -3.03450        1.32480       -1.68440
C         -2.14700        2.09390       -2.61490
C         -2.52750        0.30230       -0.89220
C         -3.32960       -0.36920        0.01000
C         -6.77980       -1.05200        0.71120
C         -7.89500       -0.74080        1.48220
C         -9.13400       -1.24190        1.13420
C         -9.28990       -2.05640        0.01820
C        -10.63400       -2.62160       -0.32730
C         -8.17630       -2.32460       -0.76860
C         -6.93230       -1.82710       -0.43320
C         -5.55740       -2.09080        3.07600
S         -6.80770       -3.22440        2.74140
C         -3.32110        0.80110        2.66910
C         -3.93320        1.97070        2.26470
C         -5.34220        2.25090        2.53490
C         -6.12910        2.96400        1.63530
C         -7.46660        3.17830        1.91050
C         -8.03010        2.70460        3.08320
C         -7.24990        2.03040        4.01460
C         -7.82600        1.51930        5.30620
C         -8.03300        0.00380        5.26660
C         -5.91120        1.81340        3.72860
C         -3.01110        2.83310        1.63350
S         -3.17090        4.37570        0.83280
C         -1.48240        4.33310        0.44870
C         -0.53470        5.06430       -0.28970
C         -0.65950        6.18630       -1.13980
C          0.46180        6.58230       -1.95010
N          0.17020        7.59150       -2.75510
S         -1.37350        8.01460       -2.51280
N         -1.73450        6.92230       -1.37370
C          1.69800        5.92160       -1.77820
C          2.96670        6.10000       -2.36080
S          3.72050        7.03260       -3.60980
C          5.23180        6.22260       -3.27540
C          6.49810        6.27250       -3.88940
C          6.80250        7.05100       -5.08850
C          6.39990        8.37920       -5.18860
C          6.70260        9.10340       -6.32620
C          7.39780        8.51310       -7.36670
C          7.78950        7.18120       -7.29180
C          8.50070        6.51590       -8.43330
C          7.49000        5.95880       -9.43750
C          7.47760        6.45780       -6.15240
C          7.37720        5.38930       -3.28530
S          6.63250        4.46140       -1.99150
C          5.13780        5.29120       -2.23820
C          3.84310        5.22310       -1.71420
N          3.17030        4.50380       -0.75810
C          1.84280        4.88890       -0.81460
C          0.69440        4.35980       -0.18000
N          0.48740        3.20580        0.56080
C         -0.83110        3.19760        0.93480
C         -1.70800        2.33750        1.60810
S         -1.59050        0.80010        2.38470
C          1.22800        1.95900        0.53420
C          1.57440        1.52570       -0.88610
C          3.86680        3.97780        0.39530
C          4.68750        5.05950        1.09670
C          8.74570        5.16180       -3.59410
S          9.41680        3.55660       -3.47390
C         10.98800        4.06600       -4.06340
C         10.98380        5.44360       -4.27300
C         11.94340        6.39000       -4.71360
C         11.44530        7.64940       -4.77920
C         12.12340        8.91060       -5.18940
C         13.59000        8.72220       -5.55710
S          9.75360        7.74750       -4.31060
C          9.71880        6.03610       -4.03100
C         12.06230        3.17720       -4.22880
C         12.00620        1.82010       -4.37840
C         13.17440        0.97110       -4.04370
O         14.31230        1.34110       -3.84980
C         12.63800       -0.40240       -3.94040
C         13.31240       -1.54370       -3.51410
C         12.53560       -2.67760       -3.48930
C         11.18450       -2.68150       -3.86010
C         10.50820       -1.56620       -4.29460
C         11.28130       -0.40430       -4.32740
C         10.92080        0.94660       -4.75250
C          9.89040        1.25990       -5.60530
C          8.91030        0.34430       -6.03210
N          8.07420       -0.35180       -6.40060
C          9.74990        2.51620       -6.22710
N          9.62320        3.50790       -6.79380
C         11.02540       -4.15230       -3.56760
C         10.31300       -4.55490       -2.25260
C         10.52550       -3.41840       -1.28360
C         11.80530       -3.41680       -0.93560
C         12.48150       -4.55220       -1.66330
C         11.33020       -5.56970       -1.70670
C         12.53190       -4.14960       -3.15810
H         -7.21770       -5.42640        5.69150
H        -12.14990       -7.20000        4.68910
H        -10.27440       -5.80850        0.19300
H        -13.31170       -7.37290       -0.20140
H        -13.64710       -4.74460       -0.48210
H        -15.95130       -5.92970       -0.92200
H        -16.96440       -6.66350        1.42140
H        -15.28590       -5.92830        3.30440
H        -14.91600       -3.87750        1.67350
H        -13.32160       -4.48840        2.17330
H        -14.30530       -8.09180        2.09500
H         -4.29550       -5.98030        4.30720
H         -4.19750       -8.37270        4.79720
H         -5.61110      -10.04480        7.06360
H         -3.95240      -10.14450        6.47700
H         -4.27410       -9.81540        8.18790
H         -5.08780       -7.58970        8.89650
H         -5.19640       -5.18330        8.41220
H         -2.50580       -4.41160        7.32430
H         -1.45560       -2.86000        8.91390
H         -3.08920        0.14590       10.27240
H         -1.71000       -0.95330       10.43160
H         -1.72490        0.27210        9.16530
H         -4.71200       -0.14800        8.42970
H         -5.77770       -1.70610        6.85930
H         -6.24970        1.20220       -0.61030
H         -4.80950        2.39650       -2.20990
H         -1.35620        1.46130       -3.01310
H         -1.68330        2.92880       -2.08650
H         -2.71810        2.50320       -3.44430
H         -1.48770        0.02030       -0.98190
H         -2.92170       -1.17290        0.60550
H         -7.77430       -0.11180        2.35080
H         -9.99460       -1.00520        1.74370
H        -11.29550       -1.83280       -0.68610
H        -11.09700       -3.07190        0.54970
H        -10.54510       -3.37580       -1.10480
H         -8.27630       -2.95360       -1.64060
H         -6.06860       -2.05640       -1.03980
H         -5.69360        3.33670        0.72150
H         -8.07690        3.72090        1.20370
H         -9.07830        2.87340        3.28430
H         -7.14170        1.76120        6.12330
H         -8.78070        2.00870        5.50670
H         -8.38410       -0.35680        6.23110
H         -8.77040       -0.26480        4.51340
H         -7.09980       -0.50140        5.02440
H         -5.29240        1.31310        4.45960
H          5.87260        8.84330       -4.36890
H          6.39790       10.13710       -6.39850
H          7.63810        9.08950       -8.24880
H          9.11510        5.69750       -8.05620
H          9.14880        7.23730       -8.93620
H          6.85690        5.21570       -8.95880
H          6.85520        6.75410       -9.82350
H          8.00540        5.48790      -10.27100
H          7.76550        5.41750       -6.09530
H          0.57720        1.21010        0.99220
H          2.13110        2.01380        1.14700
H          2.25350        2.22800       -1.36050
H          0.67020        1.46250       -1.48650
H          2.04760        0.54780       -0.86190
H          4.52140        3.15970        0.07730
H          3.12710        3.60610        1.09900
H          5.13630        4.64660        1.99610
H          5.48210        5.42850        0.45510
H          4.04750        5.89370        1.37620
H         12.95370        6.12760       -4.96480
H         11.58070        9.33180       -6.04160
H         12.03760        9.63410       -4.37270
H         14.15050        8.32850       -4.71280
H         13.69060        8.03710       -6.39500
H         14.02380        9.67760       -5.84110
H         13.05640        3.60740       -4.16100
H         14.35410       -1.50190       -3.23670
H          9.46710       -1.57520       -4.57340
H         10.72620       -4.77540       -4.40810
H          9.28770       -4.89210       -2.37970
H          9.76020       -2.71790       -1.00470
H         12.32250       -2.71490       -0.30780
H         13.43060       -4.88760       -1.25330
H         11.06260       -5.94570       -0.72020
H         11.51430       -6.40470       -2.38120
H         13.21630       -4.77090       -3.73240
