
  xtb     02252210003D
 energy: -412.057857456939 gnorm: 0.000573358130 xtb: 6.4.1 (unknown)
257287  0     0  0            999 V2000
   -3.1213   -1.1258   -5.5873 C   0  0  0  0  0  0  0  0  0  0  0  0
   -1.7402   -1.1348   -5.5794 C   0  0  0  0  0  0  0  0  0  0  0  0
   -0.9470   -1.5259   -4.4059 C   0  0  0  0  0  0  0  0  0  0  0  0
   -1.3473   -1.9946   -3.3544 O   0  0  0  0  0  0  0  0  0  0  0  0
    0.4365   -1.0963   -4.6931 C   0  0  0  0  0  0  0  0  0  0  0  0
    1.5359   -1.1967   -3.8460 C   0  0  0  0  0  0  0  0  0  0  0  0
    2.6944   -0.6709   -4.3675 C   0  0  0  0  0  0  0  0  0  0  0  0
    2.7528   -0.0819   -5.6358 C   0  0  0  0  0  0  0  0  0  0  0  0
    1.6740    0.0164   -6.4850 C   0  0  0  0  0  0  0  0  0  0  0  0
    0.4879   -0.5154   -5.9740 C   0  0  0  0  0  0  0  0  0  0  0  0
   -0.8529   -0.5747   -6.5569 C   0  0  0  0  0  0  0  0  0  0  0  0
   -1.1859   -0.2713   -7.8555 C   0  0  0  0  0  0  0  0  0  0  0  0
   -2.4778   -0.4403   -8.3894 C   0  0  0  0  0  0  0  0  0  0  0  0
   -3.5022   -0.5725   -8.8929 N   0  0  0  0  0  0  0  0  0  0  0  0
   -0.2705    0.1742   -8.8246 C   0  0  0  0  0  0  0  0  0  0  0  0
    0.4371    0.5221   -9.6613 N   0  0  0  0  0  0  0  0  0  0  0  0
    4.2180    0.2565   -5.4982 C   0  0  0  0  0  0  0  0  0  0  0  0
    4.5672    1.7230   -5.1656 C   0  0  0  0  0  0  0  0  0  0  0  0
    5.9791    1.6423   -4.6332 C   0  0  0  0  0  0  0  0  0  0  0  0
    5.9255    1.0806   -3.4321 C   0  0  0  0  0  0  0  0  0  0  0  0
    4.4773    0.7652   -3.1374 C   0  0  0  0  0  0  0  0  0  0  0  0
    3.7996    1.9382   -3.8551 C   0  0  0  0  0  0  0  0  0  0  0  0
    4.1541   -0.4092   -4.0862 C   0  0  0  0  0  0  0  0  0  0  0  0
   -3.9195   -1.8996   -4.7433 C   0  0  0  0  0  0  0  0  0  0  0  0
   -3.6594   -3.1438   -4.1262 C   0  0  0  0  0  0  0  0  0  0  0  0
   -2.7097   -4.0393   -4.4953 N   0  0  0  0  0  0  0  0  0  0  0  0
   -2.3580   -5.1047   -3.6273 C   0  0  0  0  0  0  0  0  0  0  0  0
   -1.8916   -4.8541   -2.3417 C   0  0  0  0  0  0  0  0  0  0  0  0
   -1.5600   -5.9104   -1.5158 C   0  0  0  0  0  0  0  0  0  0  0  0
   -1.6817   -7.2254   -1.9489 C   0  0  0  0  0  0  0  0  0  0  0  0
   -1.2983   -8.3595   -1.0499 C   0  0  0  0  0  0  0  0  0  0  0  0
   -2.1306   -7.4599   -3.2428 C   0  0  0  0  0  0  0  0  0  0  0  0
   -2.4634   -6.4132   -4.0811 C   0  0  0  0  0  0  0  0  0  0  0  0
   -2.0001   -3.9556   -5.7070 C   0  0  0  0  0  0  0  0  0  0  0  0
   -2.6553   -3.7396   -6.9166 C   0  0  0  0  0  0  0  0  0  0  0  0
   -1.9306   -3.6333   -8.0853 C   0  0  0  0  0  0  0  0  0  0  0  0
   -0.5413   -3.7323   -8.0834 C   0  0  0  0  0  0  0  0  0  0  0  0
    0.2354   -3.5566   -9.3504 C   0  0  0  0  0  0  0  0  0  0  0  0
    0.0996   -3.9822   -6.8772 C   0  0  0  0  0  0  0  0  0  0  0  0
   -0.6163   -4.1027   -5.7005 C   0  0  0  0  0  0  0  0  0  0  0  0
   -4.6006   -3.3828   -3.0988 C   0  0  0  0  0  0  0  0  0  0  0  0
   -4.7342   -4.5549   -1.8317 S   0  0  0  0  0  0  0  0  0  0  0  0
   -6.0330   -3.6353   -1.0676 C   0  0  0  0  0  0  0  0  0  0  0  0
   -6.3847   -2.5247   -1.8185 C   0  0  0  0  0  0  0  0  0  0  0  0
   -7.3947   -1.5983   -1.5142 N   0  0  0  0  0  0  0  0  0  0  0  0
   -7.1661   -0.6511   -0.5137 C   0  0  0  0  0  0  0  0  0  0  0  0
   -8.2314   -0.1282    0.2211 C   0  0  0  0  0  0  0  0  0  0  0  0
   -7.9948    0.7516    1.2550 C   0  0  0  0  0  0  0  0  0  0  0  0
   -6.7006    1.1373    1.5937 C   0  0  0  0  0  0  0  0  0  0  0  0
   -6.4660    2.0972    2.7217 C   0  0  0  0  0  0  0  0  0  0  0  0
   -5.6467    0.6237    0.8523 C   0  0  0  0  0  0  0  0  0  0  0  0
   -5.8690   -0.2548   -0.1913 C   0  0  0  0  0  0  0  0  0  0  0  0
   -8.4020   -1.4434   -2.4740 C   0  0  0  0  0  0  0  0  0  0  0  0
   -8.8520   -2.5598   -3.1765 C   0  0  0  0  0  0  0  0  0  0  0  0
   -9.8355   -2.4319   -4.1365 C   0  0  0  0  0  0  0  0  0  0  0  0
  -10.4038   -1.1971   -4.4213 C   0  0  0  0  0  0  0  0  0  0  0  0
  -11.4575   -1.0570   -5.4771 C   0  0  0  0  0  0  0  0  0  0  0  0
   -9.9467   -0.0876   -3.7199 C   0  0  0  0  0  0  0  0  0  0  0  0
   -8.9567   -0.1994   -2.7649 C   0  0  0  0  0  0  0  0  0  0  0  0
   -5.5791   -2.4073   -2.9735 C   0  0  0  0  0  0  0  0  0  0  0  0
   -5.4527   -1.1937   -4.1904 S   0  0  0  0  0  0  0  0  0  0  0  0
   -6.3264   -3.9836    0.2888 C   0  0  0  0  0  0  0  0  0  0  0  0
   -6.0823   -5.2121    0.8932 C   0  0  0  0  0  0  0  0  0  0  0  0
   -5.9552   -6.4560    0.1374 C   0  0  0  0  0  0  0  0  0  0  0  0
   -4.9967   -7.4074    0.4742 C   0  0  0  0  0  0  0  0  0  0  0  0
   -4.8812   -8.5632   -0.2738 C   0  0  0  0  0  0  0  0  0  0  0  0
   -5.7094   -8.7811   -1.3597 C   0  0  0  0  0  0  0  0  0  0  0  0
   -6.6804   -7.8487   -1.7054 C   0  0  0  0  0  0  0  0  0  0  0  0
   -7.6177   -8.1051   -2.8506 C   0  0  0  0  0  0  0  0  0  0  0  0
   -8.8568   -8.8621   -2.3690 C   0  0  0  0  0  0  0  0  0  0  0  0
   -6.7998   -6.6980   -0.9449 C   0  0  0  0  0  0  0  0  0  0  0  0
   -5.9280   -5.0769    2.2898 C   0  0  0  0  0  0  0  0  0  0  0  0
   -5.3236   -6.1315    3.5576 S   0  0  0  0  0  0  0  0  0  0  0  0
   -5.1040   -4.7516    4.5944 C   0  0  0  0  0  0  0  0  0  0  0  0
   -4.3466   -4.3757    5.7239 C   0  0  0  0  0  0  0  0  0  0  0  0
   -3.5970   -5.0968    6.6818 C   0  0  0  0  0  0  0  0  0  0  0  0
   -2.7061   -4.3828    7.5642 C   0  0  0  0  0  0  0  0  0  0  0  0
   -2.0765   -5.1885    8.4018 N   0  0  0  0  0  0  0  0  0  0  0  0
   -2.5561   -6.7098    8.1171 S   0  0  0  0  0  0  0  0  0  0  0  0
   -3.5805   -6.4005    6.9013 N   0  0  0  0  0  0  0  0  0  0  0  0
   -2.4991   -2.9979    7.3561 C   0  0  0  0  0  0  0  0  0  0  0  0
   -1.4124   -2.1582    7.6672 C   0  0  0  0  0  0  0  0  0  0  0  0
    0.1518   -2.2632    8.4157 S   0  0  0  0  0  0  0  0  0  0  0  0
    0.6335   -0.7911    7.5921 C   0  0  0  0  0  0  0  0  0  0  0  0
    1.8792   -0.1582    7.3895 C   0  0  0  0  0  0  0  0  0  0  0  0
    3.1318   -0.5524    8.0350 C   0  0  0  0  0  0  0  0  0  0  0  0
    3.4776   -1.8948    8.1569 C   0  0  0  0  0  0  0  0  0  0  0  0
    4.6704   -2.2467    8.7609 C   0  0  0  0  0  0  0  0  0  0  0  0
    5.5200   -1.2724    9.2529 C   0  0  0  0  0  0  0  0  0  0  0  0
    5.1867    0.0734    9.1491 C   0  0  0  0  0  0  0  0  0  0  0  0
    6.0778    1.1330    9.7311 C   0  0  0  0  0  0  0  0  0  0  0  0
    5.6975    1.4088   11.1870 C   0  0  0  0  0  0  0  0  0  0  0  0
    3.9909    0.4199    8.5418 C   0  0  0  0  0  0  0  0  0  0  0  0
    1.7660    0.8814    6.4789 C   0  0  0  0  0  0  0  0  0  0  0  0
    0.1095    1.1548    5.9662 S   0  0  0  0  0  0  0  0  0  0  0  0
   -0.4143   -0.2160    6.8719 C   0  0  0  0  0  0  0  0  0  0  0  0
   -1.5787   -0.9904    6.9172 C   0  0  0  0  0  0  0  0  0  0  0  0
   -2.7449   -1.0463    6.2048 N   0  0  0  0  0  0  0  0  0  0  0  0
   -3.3146   -2.2805    6.4394 C   0  0  0  0  0  0  0  0  0  0  0  0
   -4.3453   -2.9546    5.7423 C   0  0  0  0  0  0  0  0  0  0  0  0
   -5.1892   -2.4850    4.7521 N   0  0  0  0  0  0  0  0  0  0  0  0
   -5.5941   -3.5739    4.0259 C   0  0  0  0  0  0  0  0  0  0  0  0
   -6.0842   -3.7640    2.7318 C   0  0  0  0  0  0  0  0  0  0  0  0
   -6.5169   -2.6864    1.4615 S   0  0  0  0  0  0  0  0  0  0  0  0
   -5.9473   -1.2523    4.7306 C   0  0  0  0  0  0  0  0  0  0  0  0
   -7.4295   -1.5152    4.9916 C   0  0  0  0  0  0  0  0  0  0  0  0
   -2.9896   -0.0823    5.1573 C   0  0  0  0  0  0  0  0  0  0  0  0
   -3.5286    1.2330    5.7148 C   0  0  0  0  0  0  0  0  0  0  0  0
    2.7810    1.5169    5.7025 C   0  0  0  0  0  0  0  0  0  0  0  0
    4.0420    1.0605    5.4395 C   0  0  0  0  0  0  0  0  0  0  0  0
    4.6870    1.7483    4.3850 C   0  0  0  0  0  0  0  0  0  0  0  0
    5.9421    1.4532    3.8225 C   0  0  0  0  0  0  0  0  0  0  0  0
    6.8060    0.4467    4.4522 C   0  0  0  0  0  0  0  0  0  0  0  0
    7.3666   -0.5919    3.7154 C   0  0  0  0  0  0  0  0  0  0  0  0
    8.1323   -1.5582    4.3390 C   0  0  0  0  0  0  0  0  0  0  0  0
    8.3660   -1.5121    5.7072 C   0  0  0  0  0  0  0  0  0  0  0  0
    9.1339   -2.6009    6.3980 C   0  0  0  0  0  0  0  0  0  0  0  0
    8.1722   -3.6709    6.9200 C   0  0  0  0  0  0  0  0  0  0  0  0
    7.8217   -0.4624    6.4371 C   0  0  0  0  0  0  0  0  0  0  0  0
    7.0522    0.5037    5.8228 C   0  0  0  0  0  0  0  0  0  0  0  0
    6.2728    2.1350    2.6617 C   0  0  0  0  0  0  0  0  0  0  0  0
    5.4382    3.1367    2.0932 C   0  0  0  0  0  0  0  0  0  0  0  0
    4.2228    3.4954    2.7126 C   0  0  0  0  0  0  0  0  0  0  0  0
    3.3902    4.5736    2.1666 C   0  0  0  0  0  0  0  0  0  0  0  0
    2.0416    4.3708    1.8910 C   0  0  0  0  0  0  0  0  0  0  0  0
    1.2745    5.3932    1.3675 C   0  0  0  0  0  0  0  0  0  0  0  0
    1.8254    6.6430    1.1161 C   0  0  0  0  0  0  0  0  0  0  0  0
    1.0044    7.7350    0.4945 C   0  0  0  0  0  0  0  0  0  0  0  0
    1.1339    7.6886   -1.0297 C   0  0  0  0  0  0  0  0  0  0  0  0
    3.1705    6.8448    1.4011 C   0  0  0  0  0  0  0  0  0  0  0  0
    3.9462    5.8258    1.9157 C   0  0  0  0  0  0  0  0  0  0  0  0
    3.8644    2.7605    3.8256 C   0  0  0  0  0  0  0  0  0  0  0  0
    2.3563    2.8918    4.6960 S   0  0  0  0  0  0  0  0  0  0  0  0
    5.9344    3.6227    0.8687 C   0  0  0  0  0  0  0  0  0  0  0  0
    7.1247    3.0538    0.4879 C   0  0  0  0  0  0  0  0  0  0  0  0
    7.6994    1.8966    1.6945 S   0  0  0  0  0  0  0  0  0  0  0  0
    7.9411    3.2461   -0.6491 C   0  0  0  0  0  0  0  0  0  0  0  0
    7.6795    3.8624   -1.8405 C   0  0  0  0  0  0  0  0  0  0  0  0
    6.3812    4.3435   -2.3682 C   0  0  0  0  0  0  0  0  0  0  0  0
    5.3205    4.4718   -1.7897 O   0  0  0  0  0  0  0  0  0  0  0  0
    6.6030    4.6129   -3.8004 C   0  0  0  0  0  0  0  0  0  0  0  0
    5.6433    5.0128   -4.7276 C   0  0  0  0  0  0  0  0  0  0  0  0
    6.1231    5.1466   -6.0074 C   0  0  0  0  0  0  0  0  0  0  0  0
    7.4617    4.9010   -6.3430 C   0  0  0  0  0  0  0  0  0  0  0  0
    8.4208    4.5178   -5.4360 C   0  0  0  0  0  0  0  0  0  0  0  0
    7.9528    4.3798   -4.1255 C   0  0  0  0  0  0  0  0  0  0  0  0
    8.6585    3.9927   -2.9091 C   0  0  0  0  0  0  0  0  0  0  0  0
   10.0177    3.8657   -2.7906 C   0  0  0  0  0  0  0  0  0  0  0  0
   10.7215    3.6097   -1.5939 C   0  0  0  0  0  0  0  0  0  0  0  0
   11.3823    3.4331   -0.6711 N   0  0  0  0  0  0  0  0  0  0  0  0
   10.9281    4.0301   -3.8557 C   0  0  0  0  0  0  0  0  0  0  0  0
   11.7277    4.1460   -4.6717 N   0  0  0  0  0  0  0  0  0  0  0  0
    7.2391    5.2265   -7.7989 C   0  0  0  0  0  0  0  0  0  0  0  0
    7.7257    6.6048   -8.3105 C   0  0  0  0  0  0  0  0  0  0  0  0
    7.7151    7.5320   -7.1205 C   0  0  0  0  0  0  0  0  0  0  0  0
    6.4493    7.7671   -6.8018 C   0  0  0  0  0  0  0  0  0  0  0  0
    5.5810    7.0030   -7.7706 C   0  0  0  0  0  0  0  0  0  0  0  0
    6.4540    7.0772   -9.0333 C   0  0  0  0  0  0  0  0  0  0  0  0
    5.7488    5.5028   -7.4241 C   0  0  0  0  0  0  0  0  0  0  0  0
   -3.6355   -0.4030   -6.2096 H   0  0  0  0  0  0  0  0  0  0  0  0
    1.4474   -1.6528   -2.8721 H   0  0  0  0  0  0  0  0  0  0  0  0
    1.7305    0.4757   -7.4583 H   0  0  0  0  0  0  0  0  0  0  0  0
    4.8781   -0.1763   -6.2481 H   0  0  0  0  0  0  0  0  0  0  0  0
    4.3928    2.4292   -5.9731 H   0  0  0  0  0  0  0  0  0  0  0  0
    6.8475    1.9329   -5.1957 H   0  0  0  0  0  0  0  0  0  0  0  0
    6.7416    0.8169   -2.7840 H   0  0  0  0  0  0  0  0  0  0  0  0
    4.2176    0.5999   -2.0953 H   0  0  0  0  0  0  0  0  0  0  0  0
    2.7208    1.8315   -3.9527 H   0  0  0  0  0  0  0  0  0  0  0  0
    4.0304    2.8902   -3.3822 H   0  0  0  0  0  0  0  0  0  0  0  0
    4.7679   -1.2890   -3.8997 H   0  0  0  0  0  0  0  0  0  0  0  0
   -1.7769   -3.8318   -2.0171 H   0  0  0  0  0  0  0  0  0  0  0  0
   -1.1973   -5.7104   -0.5182 H   0  0  0  0  0  0  0  0  0  0  0  0
   -1.5730   -8.1433   -0.0202 H   0  0  0  0  0  0  0  0  0  0  0  0
   -0.2191   -8.5132   -1.0842 H   0  0  0  0  0  0  0  0  0  0  0  0
   -1.7809   -9.2819   -1.3621 H   0  0  0  0  0  0  0  0  0  0  0  0
   -2.2246   -8.4752   -3.5992 H   0  0  0  0  0  0  0  0  0  0  0  0
   -2.8120   -6.6026   -5.0859 H   0  0  0  0  0  0  0  0  0  0  0  0
   -3.7310   -3.6508   -6.9385 H   0  0  0  0  0  0  0  0  0  0  0  0
   -2.4508   -3.4626   -9.0160 H   0  0  0  0  0  0  0  0  0  0  0  0
    1.2137   -4.0250   -9.2761 H   0  0  0  0  0  0  0  0  0  0  0  0
    0.3845   -2.4953   -9.5548 H   0  0  0  0  0  0  0  0  0  0  0  0
   -0.3012   -3.9829  -10.1949 H   0  0  0  0  0  0  0  0  0  0  0  0
    1.1758   -4.0755   -6.8530 H   0  0  0  0  0  0  0  0  0  0  0  0
   -0.1073   -4.2971   -4.7681 H   0  0  0  0  0  0  0  0  0  0  0  0
   -9.2390   -0.4346   -0.0163 H   0  0  0  0  0  0  0  0  0  0  0  0
   -8.8285    1.1410    1.8216 H   0  0  0  0  0  0  0  0  0  0  0  0
   -6.8149    3.0926    2.4466 H   0  0  0  0  0  0  0  0  0  0  0  0
   -7.0124    1.7900    3.6121 H   0  0  0  0  0  0  0  0  0  0  0  0
   -5.4077    2.1624    2.9624 H   0  0  0  0  0  0  0  0  0  0  0  0
   -4.6327    0.9148    1.0883 H   0  0  0  0  0  0  0  0  0  0  0  0
   -5.0338   -0.6430   -0.7553 H   0  0  0  0  0  0  0  0  0  0  0  0
   -8.4265   -3.5301   -2.9635 H   0  0  0  0  0  0  0  0  0  0  0  0
  -10.1711   -3.3094   -4.6707 H   0  0  0  0  0  0  0  0  0  0  0  0
  -12.1627   -0.2699   -5.2191 H   0  0  0  0  0  0  0  0  0  0  0  0
  -10.9971   -0.7958   -6.4307 H   0  0  0  0  0  0  0  0  0  0  0  0
  -12.0015   -1.9894   -5.6095 H   0  0  0  0  0  0  0  0  0  0  0  0
  -10.3650    0.8855   -3.9339 H   0  0  0  0  0  0  0  0  0  0  0  0
   -8.6002    0.6799   -2.2498 H   0  0  0  0  0  0  0  0  0  0  0  0
   -4.3348   -7.2310    1.3075 H   0  0  0  0  0  0  0  0  0  0  0  0
   -4.1379   -9.2995   -0.0076 H   0  0  0  0  0  0  0  0  0  0  0  0
   -5.6064   -9.6838   -1.9447 H   0  0  0  0  0  0  0  0  0  0  0  0
   -7.1106   -8.6940   -3.6175 H   0  0  0  0  0  0  0  0  0  0  0  0
   -7.9254   -7.1569   -3.2964 H   0  0  0  0  0  0  0  0  0  0  0  0
   -9.3805   -8.2856   -1.6098 H   0  0  0  0  0  0  0  0  0  0  0  0
   -9.5372   -9.0457   -3.1974 H   0  0  0  0  0  0  0  0  0  0  0  0
   -8.5712   -9.8177   -1.9352 H   0  0  0  0  0  0  0  0  0  0  0  0
   -7.5616   -5.9710   -1.1915 H   0  0  0  0  0  0  0  0  0  0  0  0
    2.8227   -2.6569    7.7634 H   0  0  0  0  0  0  0  0  0  0  0  0
    4.9367   -3.2900    8.8474 H   0  0  0  0  0  0  0  0  0  0  0  0
    6.4489   -1.5561    9.7270 H   0  0  0  0  0  0  0  0  0  0  0  0
    5.9833    2.0553    9.1541 H   0  0  0  0  0  0  0  0  0  0  0  0
    7.1195    0.8086    9.6885 H   0  0  0  0  0  0  0  0  0  0  0  0
    5.7956    0.5034   11.7818 H   0  0  0  0  0  0  0  0  0  0  0  0
    6.3431    2.1748   11.6102 H   0  0  0  0  0  0  0  0  0  0  0  0
    4.6663    1.7487   11.2504 H   0  0  0  0  0  0  0  0  0  0  0  0
    3.7148    1.4618    8.4591 H   0  0  0  0  0  0  0  0  0  0  0  0
   -5.5628   -0.5966    5.5098 H   0  0  0  0  0  0  0  0  0  0  0  0
   -5.8380   -0.7748    3.7498 H   0  0  0  0  0  0  0  0  0  0  0  0
   -7.8582   -2.1184    4.1961 H   0  0  0  0  0  0  0  0  0  0  0  0
   -7.9647   -0.5705    5.0313 H   0  0  0  0  0  0  0  0  0  0  0  0
   -7.5635   -2.0344    5.9382 H   0  0  0  0  0  0  0  0  0  0  0  0
   -3.6590   -0.5129    4.4161 H   0  0  0  0  0  0  0  0  0  0  0  0
   -2.0319    0.1173    4.6635 H   0  0  0  0  0  0  0  0  0  0  0  0
   -3.7078    1.9317    4.9029 H   0  0  0  0  0  0  0  0  0  0  0  0
   -2.8016    1.6737    6.3921 H   0  0  0  0  0  0  0  0  0  0  0  0
   -4.4574    1.0853    6.2610 H   0  0  0  0  0  0  0  0  0  0  0  0
    4.4674    0.2027    5.9266 H   0  0  0  0  0  0  0  0  0  0  0  0
    7.1785   -0.6579    2.6542 H   0  0  0  0  0  0  0  0  0  0  0  0
    8.5510   -2.3647    3.7541 H   0  0  0  0  0  0  0  0  0  0  0  0
    9.6967   -2.1837    7.2356 H   0  0  0  0  0  0  0  0  0  0  0  0
    9.8417   -3.0575    5.7038 H   0  0  0  0  0  0  0  0  0  0  0  0
    7.6207   -4.1172    6.0954 H   0  0  0  0  0  0  0  0  0  0  0  0
    7.4549   -3.2290    7.6082 H   0  0  0  0  0  0  0  0  0  0  0  0
    8.7187   -4.4556    7.4381 H   0  0  0  0  0  0  0  0  0  0  0  0
    8.0012   -0.4036    7.5007 H   0  0  0  0  0  0  0  0  0  0  0  0
    6.6468    1.3192    6.4040 H   0  0  0  0  0  0  0  0  0  0  0  0
    1.5999    3.4003    2.0619 H   0  0  0  0  0  0  0  0  0  0  0  0
    0.2311    5.2169    1.1475 H   0  0  0  0  0  0  0  0  0  0  0  0
    1.3456    8.7075    0.8553 H   0  0  0  0  0  0  0  0  0  0  0  0
   -0.0450    7.6158    0.7715 H   0  0  0  0  0  0  0  0  0  0  0  0
    0.7808    6.7326   -1.4094 H   0  0  0  0  0  0  0  0  0  0  0  0
    2.1743    7.8077   -1.3236 H   0  0  0  0  0  0  0  0  0  0  0  0
    0.5486    8.4834   -1.4867 H   0  0  0  0  0  0  0  0  0  0  0  0
    3.6147    7.8126    1.2169 H   0  0  0  0  0  0  0  0  0  0  0  0
    4.9871    6.0018    2.1463 H   0  0  0  0  0  0  0  0  0  0  0  0
    5.4165    4.3484    0.2705 H   0  0  0  0  0  0  0  0  0  0  0  0
    8.9188    2.7871   -0.5512 H   0  0  0  0  0  0  0  0  0  0  0  0
    4.6216    5.1895   -4.4295 H   0  0  0  0  0  0  0  0  0  0  0  0
    9.4447    4.3272   -5.7110 H   0  0  0  0  0  0  0  0  0  0  0  0
    7.4472    4.4250   -8.5050 H   0  0  0  0  0  0  0  0  0  0  0  0
    8.6471    6.5731   -8.8857 H   0  0  0  0  0  0  0  0  0  0  0  0
    8.6018    7.8649   -6.6134 H   0  0  0  0  0  0  0  0  0  0  0  0
    6.0665    8.3357   -5.9745 H   0  0  0  0  0  0  0  0  0  0  0  0
    4.5491    7.3336   -7.8549 H   0  0  0  0  0  0  0  0  0  0  0  0
    6.5434    8.0895   -9.4245 H   0  0  0  0  0  0  0  0  0  0  0  0
    6.1291    6.4040   -9.8254 H   0  0  0  0  0  0  0  0  0  0  0  0
    4.9829    4.8833   -7.8871 H   0  0  0  0  0  0  0  0  0  0  0  0
  1  2  2  0  0  0  0
  2  3  1  0  0  0  0
  3  4  2  0  0  0  0
  3  5  1  0  0  0  0
  5  6  2  0  0  0  0
  6  7  1  0  0  0  0
  7  8  2  0  0  0  0
  8  9  1  0  0  0  0
  9 10  2  0  0  0  0
 10 11  1  0  0  0  0
 11 12  2  0  0  0  0
 12 13  1  0  0  0  0
 13 14  3  0  0  0  0
 12 15  1  0  0  0  0
 15 16  3  0  0  0  0
  8 17  1  0  0  0  0
 17 18  1  0  0  0  0
 18 19  1  0  0  0  0
 19 20  2  0  0  0  0
 20 21  1  0  0  0  0
 21 22  1  0  0  0  0
 21 23  1  0  0  0  0
  1 24  1  0  0  0  0
 24 25  2  0  0  0  0
 25 26  1  0  0  0  0
 26 27  1  0  0  0  0
 27 28  2  0  0  0  0
 28 29  1  0  0  0  0
 29 30  2  0  0  0  0
 30 31  1  0  0  0  0
 30 32  1  0  0  0  0
 32 33  2  0  0  0  0
 26 34  1  0  0  0  0
 34 35  2  0  0  0  0
 35 36  1  0  0  0  0
 36 37  2  0  0  0  0
 37 38  1  0  0  0  0
 37 39  1  0  0  0  0
 39 40  2  0  0  0  0
 25 41  1  0  0  0  0
 41 42  1  0  0  0  0
 42 43  1  0  0  0  0
 43 44  2  0  0  0  0
 44 45  1  0  0  0  0
 45 46  1  0  0  0  0
 46 47  2  0  0  0  0
 47 48  1  0  0  0  0
 48 49  2  0  0  0  0
 49 50  1  0  0  0  0
 49 51  1  0  0  0  0
 51 52  2  0  0  0  0
 45 53  1  0  0  0  0
 53 54  2  0  0  0  0
 54 55  1  0  0  0  0
 55 56  2  0  0  0  0
 56 57  1  0  0  0  0
 56 58  1  0  0  0  0
 58 59  2  0  0  0  0
 44 60  1  0  0  0  0
 60 61  1  0  0  0  0
 43 62  1  0  0  0  0
 62 63  2  0  0  0  0
 63 64  1  0  0  0  0
 64 65  2  0  0  0  0
 65 66  1  0  0  0  0
 66 67  2  0  0  0  0
 67 68  1  0  0  0  0
 68 69  1  0  0  0  0
 69 70  1  0  0  0  0
 68 71  2  0  0  0  0
 63 72  1  0  0  0  0
 72 73  1  0  0  0  0
 73 74  1  0  0  0  0
 74 75  1  0  0  0  0
 75 76  1  0  0  0  0
 76 77  1  0  0  0  0
 77 78  2  0  0  0  0
 78 79  1  0  0  0  0
 79 80  1  0  0  0  0
 77 81  1  0  0  0  0
 81 82  1  0  0  0  0
 82 83  1  0  0  0  0
 83 84  1  0  0  0  0
 84 85  1  0  0  0  0
 85 86  1  0  0  0  0
 86 87  2  0  0  0  0
 87 88  1  0  0  0  0
 88 89  2  0  0  0  0
 89 90  1  0  0  0  0
 90 91  1  0  0  0  0
 91 92  1  0  0  0  0
 90 93  2  0  0  0  0
 85 94  2  0  0  0  0
 94 95  1  0  0  0  0
 95 96  1  0  0  0  0
 96 97  1  0  0  0  0
 97 98  1  0  0  0  0
 98 99  1  0  0  0  0
 99100  1  0  0  0  0
100101  1  0  0  0  0
101102  1  0  0  0  0
102103  1  0  0  0  0
103104  1  0  0  0  0
101105  1  0  0  0  0
105106  1  0  0  0  0
 98107  1  0  0  0  0
107108  1  0  0  0  0
 94109  1  0  0  0  0
109110  2  0  0  0  0
110111  1  0  0  0  0
111112  2  0  0  0  0
112113  1  0  0  0  0
113114  2  0  0  0  0
114115  1  0  0  0  0
115116  2  0  0  0  0
116117  1  0  0  0  0
117118  1  0  0  0  0
116119  1  0  0  0  0
119120  2  0  0  0  0
112121  1  0  0  0  0
121122  2  0  0  0  0
122123  1  0  0  0  0
123124  1  0  0  0  0
124125  2  0  0  0  0
125126  1  0  0  0  0
126127  2  0  0  0  0
127128  1  0  0  0  0
128129  1  0  0  0  0
127130  1  0  0  0  0
130131  2  0  0  0  0
123132  2  0  0  0  0
132133  1  0  0  0  0
122134  1  0  0  0  0
134135  2  0  0  0  0
135136  1  0  0  0  0
135137  1  0  0  0  0
137138  2  0  0  0  0
138139  1  0  0  0  0
139140  2  0  0  0  0
139141  1  0  0  0  0
141142  2  0  0  0  0
142143  1  0  0  0  0
143144  2  0  0  0  0
144145  1  0  0  0  0
145146  2  0  0  0  0
146147  1  0  0  0  0
147148  2  0  0  0  0
148149  1  0  0  0  0
149150  3  0  0  0  0
148151  1  0  0  0  0
151152  3  0  0  0  0
144153  1  0  0  0  0
153154  1  0  0  0  0
154155  1  0  0  0  0
155156  2  0  0  0  0
156157  1  0  0  0  0
157158  1  0  0  0  0
157159  1  0  0  0  0
 11  2  1  0  0  0  0
 23 17  1  0  0  0  0
 61 24  1  0  0  0  0
104 62  1  0  0  0  0
133109  1  0  0  0  0
147138  1  0  0  0  0
159153  1  0  0  0  0
 10  5  1  0  0  0  0
 22 18  1  0  0  0  0
 33 27  1  0  0  0  0
 40 34  1  0  0  0  0
 60 41  2  0  0  0  0
 71 64  1  0  0  0  0
103 72  2  0  0  0  0
132111  1  0  0  0  0
146141  1  0  0  0  0
158154  1  0  0  0  0
 23  7  1  0  0  0  0
 52 46  1  0  0  0  0
 59 53  1  0  0  0  0
102 74  2  0  0  0  0
120113  1  0  0  0  0
136121  1  0  0  0  0
159143  1  0  0  0  0
100 75  2  0  0  0  0
131124  1  0  0  0  0
 80 76  2  0  0  0  0
 99 81  2  0  0  0  0
 97 82  2  0  0  0  0
 96 84  2  0  0  0  0
 93 86  1  0  0  0  0
  1160  1  0  0  0  0
  6161  1  0  0  0  0
  9162  1  0  0  0  0
 17163  1  0  0  0  0
 18164  1  0  0  0  0
 19165  1  0  0  0  0
 20166  1  0  0  0  0
 21167  1  0  0  0  0
 22168  1  0  0  0  0
 22169  1  0  0  0  0
 23170  1  0  0  0  0
 28171  1  0  0  0  0
 29172  1  0  0  0  0
 31173  1  0  0  0  0
 31174  1  0  0  0  0
 31175  1  0  0  0  0
 32176  1  0  0  0  0
 33177  1  0  0  0  0
 35178  1  0  0  0  0
 36179  1  0  0  0  0
 38180  1  0  0  0  0
 38181  1  0  0  0  0
 38182  1  0  0  0  0
 39183  1  0  0  0  0
 40184  1  0  0  0  0
 47185  1  0  0  0  0
 48186  1  0  0  0  0
 50187  1  0  0  0  0
 50188  1  0  0  0  0
 50189  1  0  0  0  0
 51190  1  0  0  0  0
 52191  1  0  0  0  0
 54192  1  0  0  0  0
 55193  1  0  0  0  0
 57194  1  0  0  0  0
 57195  1  0  0  0  0
 57196  1  0  0  0  0
 58197  1  0  0  0  0
 59198  1  0  0  0  0
 65199  1  0  0  0  0
 66200  1  0  0  0  0
 67201  1  0  0  0  0
 69202  1  0  0  0  0
 69203  1  0  0  0  0
 70204  1  0  0  0  0
 70205  1  0  0  0  0
 70206  1  0  0  0  0
 71207  1  0  0  0  0
 87208  1  0  0  0  0
 88209  1  0  0  0  0
 89210  1  0  0  0  0
 91211  1  0  0  0  0
 91212  1  0  0  0  0
 92213  1  0  0  0  0
 92214  1  0  0  0  0
 92215  1  0  0  0  0
 93216  1  0  0  0  0
105217  1  0  0  0  0
105218  1  0  0  0  0
106219  1  0  0  0  0
106220  1  0  0  0  0
106221  1  0  0  0  0
107222  1  0  0  0  0
107223  1  0  0  0  0
108224  1  0  0  0  0
108225  1  0  0  0  0
108226  1  0  0  0  0
110227  1  0  0  0  0
114228  1  0  0  0  0
115229  1  0  0  0  0
117230  1  0  0  0  0
117231  1  0  0  0  0
118232  1  0  0  0  0
118233  1  0  0  0  0
118234  1  0  0  0  0
119235  1  0  0  0  0
120236  1  0  0  0  0
125237  1  0  0  0  0
126238  1  0  0  0  0
128239  1  0  0  0  0
128240  1  0  0  0  0
129241  1  0  0  0  0
129242  1  0  0  0  0
129243  1  0  0  0  0
130244  1  0  0  0  0
131245  1  0  0  0  0
134246  1  0  0  0  0
137247  1  0  0  0  0
142248  1  0  0  0  0
145249  1  0  0  0  0
153250  1  0  0  0  0
154251  1  0  0  0  0
155252  1  0  0  0  0
156253  1  0  0  0  0
157254  1  0  0  0  0
158255  1  0  0  0  0
158256  1  0  0  0  0
159257  1  0  0  0  0
M  END
