209

C         -4.61740        1.53260       -8.01160
C         -3.77600        1.43870       -9.09680
C         -2.31550        1.54650       -9.08390
O         -1.60000        1.96710       -8.19020
C         -1.85610        1.02960      -10.38800
C         -0.54000        0.88530      -10.81890
C         -0.41840        0.35200      -12.07980
C         -1.52510       -0.01120      -12.85660
C         -2.82990        0.13180      -12.44580
C         -2.97530        0.67150      -11.16500
C         -4.18490        0.97830      -10.40150
C         -5.47330        0.84870      -10.86360
C         -5.82710        0.24720      -12.08560
N         -6.19610       -0.26860      -13.04420
C         -6.62290        1.31730      -10.19980
N         -7.60650        1.70860       -9.75060
C         -0.66580       -0.48030      -14.00530
C         -0.55950        0.46360      -15.22110
C          0.68470       -0.00810      -15.93840
C          1.73200        0.34190      -15.20270
C          1.21310        1.05520      -13.97510
C         -0.02040        1.74490      -14.57200
C          0.56870       -0.07100      -13.13940
C         -4.33650        1.77670       -6.66820
C         -5.26410        1.55740       -5.61790
N         -6.49960        0.97470       -5.75110
C         -7.54610        1.37380       -4.90080
C         -7.72230        2.71680       -4.58110
C         -8.79010        3.10920       -3.79810
C         -9.70940        2.18420       -3.32240
C        -10.91100        2.61190       -2.53780
C         -9.51050        0.84110       -3.62580
C         -8.44390        0.43430       -4.39970
C         -6.74450       -0.04310       -6.69360
C         -5.78180       -1.01830       -6.94730
C         -5.99930       -1.96580       -7.92690
C         -7.18340       -1.98710       -8.65630
C         -7.39400       -2.97540       -9.76110
C         -8.16160       -1.04810       -8.35180
C         -7.95020       -0.08140       -7.38860
C         -4.72510        1.95710       -4.38520
S         -5.29580        1.89590       -2.74650
C         -3.73960        2.49090       -2.17300
C         -2.86930        2.79490       -3.21430
N         -1.61880        3.37040       -3.06750
C         -1.38740        4.40630       -2.16000
C         -0.10960        4.59580       -1.63400
C          0.12060        5.59010       -0.70580
C         -0.90700        6.41400       -0.26090
C         -0.65540        7.45440        0.78750
C         -2.17390        6.23040       -0.80060
C         -2.41400        5.25090       -1.74310
C         -0.63460        3.01600       -4.01160
C          0.09900        3.98830       -4.68190
C          1.00010        3.61820       -5.66000
C          1.18860        2.28330       -5.99490
C          2.10040        1.89190       -7.11510
C          0.47460        1.31760       -5.29710
C         -0.42490        1.67370       -4.31310
C         -3.43150        2.46010       -4.46890
S         -2.80310        2.41780       -6.07520
C         -3.44460        2.46450       -0.78220
C         -4.33380        2.45180        0.27800
C         -5.76260        2.74660        0.16470
C         -6.19780        3.88560       -0.50850
C         -7.54650        4.16920       -0.57850
C         -8.46870        3.32020        0.00840
C         -8.05240        2.17940        0.68030
C         -9.04530        1.22120        1.27210
C         -9.21400        0.00350        0.36140
C         -6.69490        1.90810        0.76200
C         -3.68230        2.17080        1.49360
S         -4.24830        2.00490        3.13970
C         -2.62090        1.69030        3.64690
C         -1.89970        1.39510        4.81890
C         -2.28540        1.30780        6.17450
C         -1.28490        1.02630        7.16860
N         -1.78120        1.01690        8.39570
S         -3.36800        1.33000        8.31060
N         -3.48490        1.48910        6.70360
C          0.03000        0.72330        6.75180
C          1.13780        0.21280        7.45000
S          1.57710       -0.22520        9.06640
C          3.08980       -0.85140        8.45860
C          4.19040       -1.46500        9.10210
C          4.16050       -1.78050       10.53540
C          5.15950       -1.36920       11.40900
C          5.05840       -1.66880       12.75530
C          3.96470       -2.36470       13.23970
C          2.95320       -2.77390       12.38070
C          1.72820       -3.47100       12.89730
C          0.59940       -2.46090       13.11370
C          3.06250       -2.47560       11.03120
C          5.16400       -1.80220        8.19480
S          4.73540       -1.37200        6.54670
C          3.23350       -0.70970        7.08030
C          2.11650       -0.09040        6.50060
N          1.67170        0.24150        5.24790
C          0.39550        0.75650        5.37860
C         -0.54390        1.22590        4.42800
N         -0.43440        1.46860        3.06740
C         -1.69810        1.72960        2.60020
C         -2.30320        2.00100        1.36890
S         -1.78710        2.15250       -0.26970
C          0.69570        2.02530        2.35480
C          0.60240        3.54920        2.27000
C          2.34440       -0.27530        4.07670
C          3.62840        0.49290        3.76230
C          6.40670       -2.53850        8.36600
C          7.52500       -2.06770        9.08300
N          7.73000       -0.92070        9.74770
N          8.95310       -1.01290       10.18440
C          9.53710        0.00910       11.00520
C          9.14300       -0.19490       12.46500
N          9.60720       -2.09700        9.87710
C          8.73660       -2.81780        9.15970
C          8.91490       -4.06100        8.50590
C          7.79060       -4.50320        7.82400
C          6.59700       -3.76470        7.75250
F          5.58310       -4.31720        7.06290
F          7.78090       -5.71450        7.24520
C         10.18280       -4.72280        8.60800
C         10.78130       -5.58440        7.75720
S         10.25600       -6.14200        6.18920
C         11.76340       -7.01210        5.93340
S         12.11250       -7.83910        4.57250
N         12.57990       -6.88760        7.01150
C         13.86880       -7.54900        7.08530
C         13.71930       -8.99720        7.53310
C         12.12160       -6.11820        8.06230
O         12.75230       -5.91510        9.07350
H         -5.65950        1.32080       -8.21190
H          0.28610        1.17460      -10.18820
H         -3.67180       -0.15400      -13.05410
H         -0.78020       -1.52570      -14.28620
H         -1.46580        0.54500      -15.81490
H          0.67290       -0.57820      -16.84880
H          2.76950        0.12260      -15.37570
H          1.92190        1.67660      -13.43390
H         -0.68740        2.18030      -13.83040
H          0.24670        2.49960      -15.31000
H          1.27880       -0.84300      -12.84750
H         -7.03480        3.45300       -4.97090
H         -8.92200        4.15720       -3.57370
H        -10.85330        3.66650       -2.28210
H        -11.81530        2.45040       -3.12510
H        -11.00350        2.02940       -1.62290
H        -10.20840        0.10300       -3.25690
H         -8.30470       -0.61140       -4.63070
H         -4.85660       -1.01390       -6.38960
H         -5.23570       -2.70380       -8.12720
H         -7.20810       -2.49880      -10.72480
H         -8.41910       -3.33910       -9.76460
H         -6.71740       -3.82110       -9.66430
H         -9.09260       -1.05280       -8.89820
H         -8.70530        0.66320       -7.19090
H          0.69470        3.95010       -1.95330
H          1.11700        5.72380       -0.30940
H         -1.40290        8.24240        0.74030
H          0.33130        7.89590        0.66590
H         -0.70090        7.00410        1.78020
H         -2.98610        6.86910       -0.48380
H         -3.40110        5.14000       -2.16690
H         -0.05740        5.03100       -4.44680
H          1.54950        4.38340       -6.18910
H          1.50700        1.76090       -8.01990
H          2.60350        0.95100       -6.90200
H          2.84580        2.66070       -7.30430
H          0.61660        0.27360       -5.53570
H         -0.98320        0.91780       -3.77920
H         -5.47300        4.55130       -0.95330
H         -7.88150        5.06110       -1.08740
H         -9.52190        3.55210       -0.04540
H        -10.00950        1.71750        1.39930
H         -8.69990        0.89070        2.25400
H         -8.27370       -0.53490        0.27060
H         -9.51810        0.31530       -0.63540
H         -9.96480       -0.67300        0.76370
H         -6.35470        1.02800        1.28820
H          5.99410       -0.80310       11.02680
H          5.83390       -1.35010       13.43760
H          3.89290       -2.58830       14.29450
H          1.40160       -4.22530       12.17840
H          1.95360       -3.97200       13.84080
H          0.89810       -1.71150       13.84340
H         -0.29510       -2.96200       13.47610
H          0.36170       -1.95310       12.18180
H          2.28630       -2.79680       10.35150
H          0.71060        1.60010        1.34620
H          1.61130        1.76520        2.87300
H          1.49510        3.94030        1.79010
H          0.52400        3.97610        3.26800
H         -0.26110        3.85800        1.68710
H          2.60830       -1.32020        4.27760
H          1.65000       -0.26630        3.23610
H          4.36550        0.32430        4.54240
H          4.04100        0.14570        2.81930
H          3.45210        1.56440        3.69620
H          9.17500        0.97380       10.64450
H         10.61940       -0.05890       10.88490
H          9.59710        0.57720       13.07910
H          9.48350       -1.16650       12.81450
H          8.06280       -0.13910       12.57300
H         10.77550       -4.43610        9.46970
H         14.33070       -7.50100        6.09640
H         14.46430       -6.98480        7.80670
H         14.69910       -9.46160        7.59310
H         13.24900       -9.04270        8.51260
H         13.11350       -9.55250        6.82100
