
  xtb     02152207183D
 energy: -428.697733572258 gnorm: 0.000777970176 xtb: 6.4.1 (unknown)
265294  0     0  0            999 V2000
    3.2978    6.2408   -9.7334 C   0  0  0  0  0  0  0  0  0  0  0  0
    4.4665    6.4019  -10.4458 C   0  0  0  0  0  0  0  0  0  0  0  0
    5.2263    5.2925  -11.0430 C   0  0  0  0  0  0  0  0  0  0  0  0
    4.9700    4.1038  -10.9811 O   0  0  0  0  0  0  0  0  0  0  0  0
    6.2937    5.9263  -11.8474 C   0  0  0  0  0  0  0  0  0  0  0  0
    7.2714    5.2843  -12.6011 C   0  0  0  0  0  0  0  0  0  0  0  0
    8.1536    6.1393  -13.2193 C   0  0  0  0  0  0  0  0  0  0  0  0
    8.0626    7.5314  -13.1069 C   0  0  0  0  0  0  0  0  0  0  0  0
    7.0961    8.1783  -12.3732 C   0  0  0  0  0  0  0  0  0  0  0  0
    6.1962    7.3259  -11.7302 C   0  0  0  0  0  0  0  0  0  0  0  0
    5.0764    7.6381  -10.8446 C   0  0  0  0  0  0  0  0  0  0  0  0
    4.7734    8.8781  -10.3349 C   0  0  0  0  0  0  0  0  0  0  0  0
    5.4687   10.0602  -10.6453 C   0  0  0  0  0  0  0  0  0  0  0  0
    6.0071   11.0572  -10.8396 N   0  0  0  0  0  0  0  0  0  0  0  0
    3.7814    9.1077   -9.3616 C   0  0  0  0  0  0  0  0  0  0  0  0
    3.0149    9.3663   -8.5456 N   0  0  0  0  0  0  0  0  0  0  0  0
    9.2636    7.7633  -13.9907 C   0  0  0  0  0  0  0  0  0  0  0  0
    8.9794    8.2041  -15.4417 C   0  0  0  0  0  0  0  0  0  0  0  0
   10.2630    7.8872  -16.1744 C   0  0  0  0  0  0  0  0  0  0  0  0
   10.3520    6.5675  -16.2798 C   0  0  0  0  0  0  0  0  0  0  0  0
    9.1295    5.9705  -15.6206 C   0  0  0  0  0  0  0  0  0  0  0  0
    8.0963    7.0562  -15.9477 C   0  0  0  0  0  0  0  0  0  0  0  0
    9.3671    6.2092  -14.1146 C   0  0  0  0  0  0  0  0  0  0  0  0
    2.9270    5.1051   -9.0085 C   0  0  0  0  0  0  0  0  0  0  0  0
    3.6991    4.0810   -8.4215 C   0  0  0  0  0  0  0  0  0  0  0  0
    5.0605    4.0278   -8.3233 N   0  0  0  0  0  0  0  0  0  0  0  0
    5.6825    2.7699   -8.1777 C   0  0  0  0  0  0  0  0  0  0  0  0
    5.2956    1.6970   -8.9746 C   0  0  0  0  0  0  0  0  0  0  0  0
    5.9003    0.4667   -8.8131 C   0  0  0  0  0  0  0  0  0  0  0  0
    6.9015    0.2790   -7.8679 C   0  0  0  0  0  0  0  0  0  0  0  0
    7.5700   -1.0518   -7.7154 C   0  0  0  0  0  0  0  0  0  0  0  0
    7.2905    1.3623   -7.0882 C   0  0  0  0  0  0  0  0  0  0  0  0
    6.6897    2.5967   -7.2341 C   0  0  0  0  0  0  0  0  0  0  0  0
    5.8683    5.1721   -8.3139 C   0  0  0  0  0  0  0  0  0  0  0  0
    5.4661    6.3361   -7.6592 C   0  0  0  0  0  0  0  0  0  0  0  0
    6.2597    7.4626   -7.6965 C   0  0  0  0  0  0  0  0  0  0  0  0
    7.4726    7.4693   -8.3824 C   0  0  0  0  0  0  0  0  0  0  0  0
    8.2947    8.7175   -8.4515 C   0  0  0  0  0  0  0  0  0  0  0  0
    7.8869    6.2939   -8.9934 C   0  0  0  0  0  0  0  0  0  0  0  0
    7.1020    5.1564   -8.9613 C   0  0  0  0  0  0  0  0  0  0  0  0
    2.8592    3.1278   -7.7970 C   0  0  0  0  0  0  0  0  0  0  0  0
    3.1476    1.6931   -6.8719 S   0  0  0  0  0  0  0  0  0  0  0  0
    1.4217    1.5014   -6.5773 C   0  0  0  0  0  0  0  0  0  0  0  0
    0.6782    2.5275   -7.1312 C   0  0  0  0  0  0  0  0  0  0  0  0
   -0.7100    2.6462   -7.0988 N   0  0  0  0  0  0  0  0  0  0  0  0
   -1.3687    2.9233   -8.3041 C   0  0  0  0  0  0  0  0  0  0  0  0
   -2.4829    3.7565   -8.3455 C   0  0  0  0  0  0  0  0  0  0  0  0
   -3.1103    4.0191   -9.5475 C   0  0  0  0  0  0  0  0  0  0  0  0
   -2.6447    3.4769  -10.7378 C   0  0  0  0  0  0  0  0  0  0  0  0
   -3.3117    3.7735  -12.0462 C   0  0  0  0  0  0  0  0  0  0  0  0
   -1.5268    2.6518  -10.6900 C   0  0  0  0  0  0  0  0  0  0  0  0
   -0.8985    2.3711   -9.4948 C   0  0  0  0  0  0  0  0  0  0  0  0
   -1.3708    2.7442   -5.8697 C   0  0  0  0  0  0  0  0  0  0  0  0
   -0.7686    3.3940   -4.7933 C   0  0  0  0  0  0  0  0  0  0  0  0
   -1.4119    3.4575   -3.5735 C   0  0  0  0  0  0  0  0  0  0  0  0
   -2.6651    2.8853   -3.3928 C   0  0  0  0  0  0  0  0  0  0  0  0
   -3.3548    2.9736   -2.0647 C   0  0  0  0  0  0  0  0  0  0  0  0
   -3.2661    2.2555   -4.4763 C   0  0  0  0  0  0  0  0  0  0  0  0
   -2.6336    2.1814   -5.7005 C   0  0  0  0  0  0  0  0  0  0  0  0
    1.5085    3.4347   -7.8337 C   0  0  0  0  0  0  0  0  0  0  0  0
    1.1998    4.9105   -8.6663 S   0  0  0  0  0  0  0  0  0  0  0  0
    1.0188    0.3542   -5.8127 C   0  0  0  0  0  0  0  0  0  0  0  0
    1.4696   -0.9422   -5.9874 C   0  0  0  0  0  0  0  0  0  0  0  0
    2.2403   -1.4129   -7.1379 C   0  0  0  0  0  0  0  0  0  0  0  0
    2.0041   -0.9132   -8.4156 C   0  0  0  0  0  0  0  0  0  0  0  0
    2.7236   -1.3995   -9.4894 C   0  0  0  0  0  0  0  0  0  0  0  0
    3.6646   -2.3960   -9.3042 C   0  0  0  0  0  0  0  0  0  0  0  0
    3.9037   -2.9238   -8.0388 C   0  0  0  0  0  0  0  0  0  0  0  0
    4.8891   -4.0535   -7.8895 C   0  0  0  0  0  0  0  0  0  0  0  0
    5.4385   -4.2517   -6.4813 C   0  0  0  0  0  0  0  0  0  0  0  0
    3.1923   -2.4144   -6.9650 C   0  0  0  0  0  0  0  0  0  0  0  0
    1.0268   -1.7821   -4.9397 C   0  0  0  0  0  0  0  0  0  0  0  0
    1.2318   -3.4839   -4.5843 S   0  0  0  0  0  0  0  0  0  0  0  0
    0.2979   -3.2836   -3.1383 C   0  0  0  0  0  0  0  0  0  0  0  0
   -0.1479   -4.0310   -2.0312 C   0  0  0  0  0  0  0  0  0  0  0  0
   -0.0764   -5.4062   -1.7191 C   0  0  0  0  0  0  0  0  0  0  0  0
   -0.6774   -5.8788   -0.5004 C   0  0  0  0  0  0  0  0  0  0  0  0
   -0.5779   -7.1914   -0.3644 N   0  0  0  0  0  0  0  0  0  0  0  0
    0.2081   -7.7836   -1.6509 S   0  0  0  0  0  0  0  0  0  0  0  0
    0.4530   -6.3870   -2.4330 N   0  0  0  0  0  0  0  0  0  0  0  0
   -1.1946   -4.9382    0.4182 C   0  0  0  0  0  0  0  0  0  0  0  0
   -1.5873   -5.0629    1.7626 C   0  0  0  0  0  0  0  0  0  0  0  0
   -1.8078   -6.2949    2.9595 S   0  0  0  0  0  0  0  0  0  0  0  0
   -2.1292   -5.0582    4.1482 C   0  0  0  0  0  0  0  0  0  0  0  0
   -2.4230   -5.1044    5.5283 C   0  0  0  0  0  0  0  0  0  0  0  0
   -2.4483   -6.3124    6.3511 C   0  0  0  0  0  0  0  0  0  0  0  0
   -1.9270   -6.2907    7.6431 C   0  0  0  0  0  0  0  0  0  0  0  0
   -1.9576   -7.4318    8.4213 C   0  0  0  0  0  0  0  0  0  0  0  0
   -2.5249   -8.5949    7.9320 C   0  0  0  0  0  0  0  0  0  0  0  0
   -3.0322   -8.6409    6.6397 C   0  0  0  0  0  0  0  0  0  0  0  0
   -3.6936   -9.8874    6.1272 C   0  0  0  0  0  0  0  0  0  0  0  0
   -5.1549   -9.9336    6.5800 C   0  0  0  0  0  0  0  0  0  0  0  0
   -2.9678   -7.5023    5.8518 C   0  0  0  0  0  0  0  0  0  0  0  0
   -2.6177   -3.8362    6.0355 C   0  0  0  0  0  0  0  0  0  0  0  0
   -2.3550   -2.5763    4.8433 S   0  0  0  0  0  0  0  0  0  0  0  0
   -2.0720   -3.7670    3.6253 C   0  0  0  0  0  0  0  0  0  0  0  0
   -1.7773   -3.7702    2.2550 C   0  0  0  0  0  0  0  0  0  0  0  0
   -1.5641   -2.8556    1.2591 N   0  0  0  0  0  0  0  0  0  0  0  0
   -1.2128   -3.5492    0.1172 C   0  0  0  0  0  0  0  0  0  0  0  0
   -0.8234   -3.1195   -1.1758 C   0  0  0  0  0  0  0  0  0  0  0  0
   -0.8503   -1.8716   -1.7782 N   0  0  0  0  0  0  0  0  0  0  0  0
   -0.1550   -1.9777   -2.9558 C   0  0  0  0  0  0  0  0  0  0  0  0
    0.2519   -1.1245   -3.9878 C   0  0  0  0  0  0  0  0  0  0  0  0
    0.0436    0.5441   -4.3642 S   0  0  0  0  0  0  0  0  0  0  0  0
   -1.8641   -0.8455   -1.6595 C   0  0  0  0  0  0  0  0  0  0  0  0
   -2.9398   -1.0037   -2.7338 C   0  0  0  0  0  0  0  0  0  0  0  0
   -1.4469   -1.4509    1.5741 C   0  0  0  0  0  0  0  0  0  0  0  0
   -2.8130   -0.8072    1.8143 C   0  0  0  0  0  0  0  0  0  0  0  0
   -3.1631   -3.5045    7.3191 C   0  0  0  0  0  0  0  0  0  0  0  0
   -4.3299   -4.0259    7.8590 C   0  0  0  0  0  0  0  0  0  0  0  0
   -5.1986   -4.8760    7.1943 N   0  0  0  0  0  0  0  0  0  0  0  0
   -5.3947   -4.7150    5.8141 C   0  0  0  0  0  0  0  0  0  0  0  0
   -5.4349   -3.4424    5.2503 C   0  0  0  0  0  0  0  0  0  0  0  0
   -5.5173   -3.2872    3.8800 C   0  0  0  0  0  0  0  0  0  0  0  0
   -5.5673   -4.3862    3.0341 C   0  0  0  0  0  0  0  0  0  0  0  0
   -5.5659   -4.2240    1.5449 C   0  0  0  0  0  0  0  0  0  0  0  0
   -5.5989   -5.6526    3.6080 C   0  0  0  0  0  0  0  0  0  0  0  0
   -5.5234   -5.8197    4.9750 C   0  0  0  0  0  0  0  0  0  0  0  0
   -5.8316   -5.9110    7.8950 C   0  0  0  0  0  0  0  0  0  0  0  0
   -7.1101   -6.3304    7.5312 C   0  0  0  0  0  0  0  0  0  0  0  0
   -7.7211   -7.3627    8.2109 C   0  0  0  0  0  0  0  0  0  0  0  0
   -7.0910   -7.9976    9.2765 C   0  0  0  0  0  0  0  0  0  0  0  0
   -7.7733   -9.1187    9.9990 C   0  0  0  0  0  0  0  0  0  0  0  0
   -5.8270   -7.5602    9.6449 C   0  0  0  0  0  0  0  0  0  0  0  0
   -5.1995   -6.5335    8.9666 C   0  0  0  0  0  0  0  0  0  0  0  0
   -4.5542   -3.5058    9.1555 C   0  0  0  0  0  0  0  0  0  0  0  0
   -5.8160   -3.7031   10.3117 S   0  0  0  0  0  0  0  0  0  0  0  0
   -5.0275   -2.5521   11.4057 C   0  0  0  0  0  0  0  0  0  0  0  0
   -3.8747   -1.9791   10.8244 C   0  0  0  0  0  0  0  0  0  0  0  0
   -3.1574   -0.9185   11.2960 N   0  0  0  0  0  0  0  0  0  0  0  0
   -3.6989    0.0579   12.1428 C   0  0  0  0  0  0  0  0  0  0  0  0
   -5.0052    0.5180   11.9782 C   0  0  0  0  0  0  0  0  0  0  0  0
   -5.5274    1.4487   12.8508 C   0  0  0  0  0  0  0  0  0  0  0  0
   -4.7725    1.9506   13.9092 C   0  0  0  0  0  0  0  0  0  0  0  0
   -5.3757    2.9205   14.8755 C   0  0  0  0  0  0  0  0  0  0  0  0
   -3.4581    1.5236   14.0370 C   0  0  0  0  0  0  0  0  0  0  0  0
   -2.9210    0.5925   13.1677 C   0  0  0  0  0  0  0  0  0  0  0  0
   -1.8114   -0.7686   10.8949 C   0  0  0  0  0  0  0  0  0  0  0  0
   -0.9342   -1.8469   10.9586 C   0  0  0  0  0  0  0  0  0  0  0  0
    0.3778   -1.6884   10.5607 C   0  0  0  0  0  0  0  0  0  0  0  0
    0.8449   -0.4630   10.0973 C   0  0  0  0  0  0  0  0  0  0  0  0
    2.2640   -0.3135    9.6428 C   0  0  0  0  0  0  0  0  0  0  0  0
   -0.0373    0.6095   10.0536 C   0  0  0  0  0  0  0  0  0  0  0  0
   -1.3537    0.4655   10.4473 C   0  0  0  0  0  0  0  0  0  0  0  0
   -3.6100   -2.5762    9.5700 C   0  0  0  0  0  0  0  0  0  0  0  0
   -2.4051   -2.3099    8.3532 S   0  0  0  0  0  0  0  0  0  0  0  0
   -5.6449   -2.3327   12.6370 C   0  0  0  0  0  0  0  0  0  0  0  0
   -5.0374   -1.8303   13.7710 C   0  0  0  0  0  0  0  0  0  0  0  0
   -3.6063   -1.9858   14.0690 C   0  0  0  0  0  0  0  0  0  0  0  0
   -2.7620   -2.5325   13.3821 O   0  0  0  0  0  0  0  0  0  0  0  0
   -3.4242   -1.4519   15.4354 C   0  0  0  0  0  0  0  0  0  0  0  0
   -2.2679   -1.3647   16.1678 C   0  0  0  0  0  0  0  0  0  0  0  0
   -2.3408   -0.7787   17.4373 C   0  0  0  0  0  0  0  0  0  0  0  0
   -1.3004   -0.5512   18.3823 C   0  0  0  0  0  0  0  0  0  0  0  0
   -1.7422    0.0471   19.5098 C   0  0  0  0  0  0  0  0  0  0  0  0
   -3.4415    0.3717   19.5001 S   0  0  0  0  0  0  0  0  0  0  0  0
   -3.5889   -0.3186   17.9131 C   0  0  0  0  0  0  0  0  0  0  0  0
   -4.7638   -0.4175   17.1750 C   0  0  0  0  0  0  0  0  0  0  0  0
   -4.6704   -0.9877   15.9223 C   0  0  0  0  0  0  0  0  0  0  0  0
   -5.6792   -1.2056   14.8911 C   0  0  0  0  0  0  0  0  0  0  0  0
   -6.9710   -0.7335   14.9163 C   0  0  0  0  0  0  0  0  0  0  0  0
   -7.8679   -0.8367   13.8363 C   0  0  0  0  0  0  0  0  0  0  0  0
   -8.6400   -0.8558   12.9851 N   0  0  0  0  0  0  0  0  0  0  0  0
   -7.5257   -0.0094   15.9857 C   0  0  0  0  0  0  0  0  0  0  0  0
   -8.0292    0.5990   16.8210 N   0  0  0  0  0  0  0  0  0  0  0  0
    2.5726    7.0460   -9.7417 H   0  0  0  0  0  0  0  0  0  0  0  0
    7.3092    4.2075  -12.6602 H   0  0  0  0  0  0  0  0  0  0  0  0
    7.0330    9.2513  -12.2996 H   0  0  0  0  0  0  0  0  0  0  0  0
   10.0907    8.3059  -13.5360 H   0  0  0  0  0  0  0  0  0  0  0  0
    8.5945    9.2152  -15.5432 H   0  0  0  0  0  0  0  0  0  0  0  0
   10.9780    8.6283  -16.4804 H   0  0  0  0  0  0  0  0  0  0  0  0
   11.1563    5.9861  -16.6914 H   0  0  0  0  0  0  0  0  0  0  0  0
    8.8814    4.9463  -15.8864 H   0  0  0  0  0  0  0  0  0  0  0  0
    7.1563    6.9497  -15.4094 H   0  0  0  0  0  0  0  0  0  0  0  0
    7.8988    7.1286  -17.0160 H   0  0  0  0  0  0  0  0  0  0  0  0
   10.2637    5.7165  -13.7420 H   0  0  0  0  0  0  0  0  0  0  0  0
    4.5417    1.8479   -9.7311 H   0  0  0  0  0  0  0  0  0  0  0  0
    5.5888   -0.3615   -9.4318 H   0  0  0  0  0  0  0  0  0  0  0  0
    8.4522   -1.1018   -8.3549 H   0  0  0  0  0  0  0  0  0  0  0  0
    6.8960   -1.8528   -8.0048 H   0  0  0  0  0  0  0  0  0  0  0  0
    7.8920   -1.2096   -6.6886 H   0  0  0  0  0  0  0  0  0  0  0  0
    8.0695    1.2359   -6.3502 H   0  0  0  0  0  0  0  0  0  0  0  0
    6.9923    3.4297   -6.6161 H   0  0  0  0  0  0  0  0  0  0  0  0
    4.5278    6.3569   -7.1253 H   0  0  0  0  0  0  0  0  0  0  0  0
    5.9294    8.3591   -7.1922 H   0  0  0  0  0  0  0  0  0  0  0  0
    8.5413    9.0674   -7.4500 H   0  0  0  0  0  0  0  0  0  0  0  0
    7.7387    9.5115   -8.9496 H   0  0  0  0  0  0  0  0  0  0  0  0
    9.2171    8.5457   -9.0002 H   0  0  0  0  0  0  0  0  0  0  0  0
    8.8296    6.2687   -9.5205 H   0  0  0  0  0  0  0  0  0  0  0  0
    7.4318    4.2524   -9.4506 H   0  0  0  0  0  0  0  0  0  0  0  0
   -2.8491    4.2061   -7.4347 H   0  0  0  0  0  0  0  0  0  0  0  0
   -3.9725    4.6704   -9.5589 H   0  0  0  0  0  0  0  0  0  0  0  0
   -3.5681    2.8497  -12.5632 H   0  0  0  0  0  0  0  0  0  0  0  0
   -4.2187    4.3539  -11.8981 H   0  0  0  0  0  0  0  0  0  0  0  0
   -2.6407    4.3399  -12.6915 H   0  0  0  0  0  0  0  0  0  0  0  0
   -1.1460    2.2185  -11.6036 H   0  0  0  0  0  0  0  0  0  0  0  0
   -0.0355    1.7212   -9.4805 H   0  0  0  0  0  0  0  0  0  0  0  0
    0.2046    3.8452   -4.9206 H   0  0  0  0  0  0  0  0  0  0  0  0
   -0.9338    3.9636   -2.7472 H   0  0  0  0  0  0  0  0  0  0  0  0
   -3.7192    3.9876   -1.8987 H   0  0  0  0  0  0  0  0  0  0  0  0
   -4.2051    2.2974   -2.0195 H   0  0  0  0  0  0  0  0  0  0  0  0
   -2.6679    2.7318   -1.2554 H   0  0  0  0  0  0  0  0  0  0  0  0
   -4.2435    1.8089   -4.3602 H   0  0  0  0  0  0  0  0  0  0  0  0
   -3.1058    1.6791   -6.5317 H   0  0  0  0  0  0  0  0  0  0  0  0
    1.2420   -0.1632   -8.5660 H   0  0  0  0  0  0  0  0  0  0  0  0
    2.5428   -1.0065  -10.4793 H   0  0  0  0  0  0  0  0  0  0  0  0
    4.2128   -2.7808  -10.1533 H   0  0  0  0  0  0  0  0  0  0  0  0
    4.3930   -4.9763   -8.2086 H   0  0  0  0  0  0  0  0  0  0  0  0
    5.7187   -3.8880   -8.5831 H   0  0  0  0  0  0  0  0  0  0  0  0
    6.2312   -4.9967   -6.4975 H   0  0  0  0  0  0  0  0  0  0  0  0
    4.6631   -4.6024   -5.8051 H   0  0  0  0  0  0  0  0  0  0  0  0
    5.8479   -3.3216   -6.0930 H   0  0  0  0  0  0  0  0  0  0  0  0
    3.3724   -2.7904   -5.9716 H   0  0  0  0  0  0  0  0  0  0  0  0
   -1.4808   -5.3849    8.0268 H   0  0  0  0  0  0  0  0  0  0  0  0
   -1.5420   -7.4119    9.4185 H   0  0  0  0  0  0  0  0  0  0  0  0
   -2.5644   -9.4784    8.5524 H   0  0  0  0  0  0  0  0  0  0  0  0
   -3.6492   -9.9108    5.0368 H   0  0  0  0  0  0  0  0  0  0  0  0
   -3.1729  -10.7674    6.5103 H   0  0  0  0  0  0  0  0  0  0  0  0
   -5.2186   -9.8960    7.6651 H   0  0  0  0  0  0  0  0  0  0  0  0
   -5.7061   -9.0827    6.1853 H   0  0  0  0  0  0  0  0  0  0  0  0
   -5.6328  -10.8463    6.2318 H   0  0  0  0  0  0  0  0  0  0  0  0
   -3.3375   -7.5335    4.8381 H   0  0  0  0  0  0  0  0  0  0  0  0
   -2.3361   -0.9146   -0.6863 H   0  0  0  0  0  0  0  0  0  0  0  0
   -1.3808    0.1310   -1.7668 H   0  0  0  0  0  0  0  0  0  0  0  0
   -3.7198   -0.2648   -2.5762 H   0  0  0  0  0  0  0  0  0  0  0  0
   -3.3797   -1.9978   -2.6823 H   0  0  0  0  0  0  0  0  0  0  0  0
   -2.5239   -0.8544   -3.7262 H   0  0  0  0  0  0  0  0  0  0  0  0
   -0.8585   -1.3647    2.4948 H   0  0  0  0  0  0  0  0  0  0  0  0
   -0.8930   -0.9511    0.7790 H   0  0  0  0  0  0  0  0  0  0  0  0
   -2.6979    0.2650    1.9463 H   0  0  0  0  0  0  0  0  0  0  0  0
   -3.4941   -0.9898    0.9857 H   0  0  0  0  0  0  0  0  0  0  0  0
   -3.2614   -1.2197    2.7137 H   0  0  0  0  0  0  0  0  0  0  0  0
   -5.3854   -2.5725    5.8893 H   0  0  0  0  0  0  0  0  0  0  0  0
   -5.5345   -2.2897    3.4638 H   0  0  0  0  0  0  0  0  0  0  0  0
   -6.3192   -4.8611    1.0855 H   0  0  0  0  0  0  0  0  0  0  0  0
   -5.7609   -3.1912    1.2656 H   0  0  0  0  0  0  0  0  0  0  0  0
   -4.5948   -4.5134    1.1404 H   0  0  0  0  0  0  0  0  0  0  0  0
   -5.6642   -6.5222    2.9701 H   0  0  0  0  0  0  0  0  0  0  0  0
   -5.5387   -6.8083    5.4061 H   0  0  0  0  0  0  0  0  0  0  0  0
   -7.6200   -5.8401    6.7151 H   0  0  0  0  0  0  0  0  0  0  0  0
   -8.7110   -7.6796    7.9153 H   0  0  0  0  0  0  0  0  0  0  0  0
   -7.1294   -9.5344   10.7698 H   0  0  0  0  0  0  0  0  0  0  0  0
   -8.0429   -9.9123    9.3030 H   0  0  0  0  0  0  0  0  0  0  0  0
   -8.6900   -8.7636   10.4687 H   0  0  0  0  0  0  0  0  0  0  0  0
   -5.3159   -8.0327   10.4713 H   0  0  0  0  0  0  0  0  0  0  0  0
   -4.2079   -6.2231    9.2572 H   0  0  0  0  0  0  0  0  0  0  0  0
   -5.6118    0.1398   11.1690 H   0  0  0  0  0  0  0  0  0  0  0  0
   -6.5445    1.7870   12.7162 H   0  0  0  0  0  0  0  0  0  0  0  0
   -6.2305    2.4716   15.3809 H   0  0  0  0  0  0  0  0  0  0  0  0
   -5.7317    3.8075   14.3533 H   0  0  0  0  0  0  0  0  0  0  0  0
   -4.6509    3.2234   15.6267 H   0  0  0  0  0  0  0  0  0  0  0  0
   -2.8461    1.9094   14.8395 H   0  0  0  0  0  0  0  0  0  0  0  0
   -1.9007    0.2604   13.2872 H   0  0  0  0  0  0  0  0  0  0  0  0
   -1.2883   -2.7879   11.3493 H   0  0  0  0  0  0  0  0  0  0  0  0
    1.0551   -2.5281   10.6171 H   0  0  0  0  0  0  0  0  0  0  0  0
    2.9372   -0.8776   10.2846 H   0  0  0  0  0  0  0  0  0  0  0  0
    2.3701   -0.6977    8.6278 H   0  0  0  0  0  0  0  0  0  0  0  0
    2.5665    0.7307    9.6436 H   0  0  0  0  0  0  0  0  0  0  0  0
    0.3078    1.5711    9.7023 H   0  0  0  0  0  0  0  0  0  0  0  0
   -2.0329    1.3047   10.4070 H   0  0  0  0  0  0  0  0  0  0  0  0
   -6.6881   -2.6194   12.6948 H   0  0  0  0  0  0  0  0  0  0  0  0
   -1.3310   -1.7264   15.7728 H   0  0  0  0  0  0  0  0  0  0  0  0
   -0.2759   -0.8288   18.2107 H   0  0  0  0  0  0  0  0  0  0  0  0
   -1.1721    0.3291   20.3736 H   0  0  0  0  0  0  0  0  0  0  0  0
   -5.6943   -0.0609   17.5842 H   0  0  0  0  0  0  0  0  0  0  0  0
  1  2  2  0  0  0  0
  2  3  1  0  0  0  0
  3  4  2  0  0  0  0
  3  5  1  0  0  0  0
  5  6  2  0  0  0  0
  6  7  1  0  0  0  0
  7  8  2  0  0  0  0
  8  9  1  0  0  0  0
  9 10  2  0  0  0  0
 10 11  1  0  0  0  0
 11 12  2  0  0  0  0
 12 13  1  0  0  0  0
 13 14  3  0  0  0  0
 12 15  1  0  0  0  0
 15 16  3  0  0  0  0
  8 17  1  0  0  0  0
 17 18  1  0  0  0  0
 18 19  1  0  0  0  0
 19 20  2  0  0  0  0
 20 21  1  0  0  0  0
 21 22  1  0  0  0  0
 21 23  1  0  0  0  0
  1 24  1  0  0  0  0
 24 25  2  0  0  0  0
 25 26  1  0  0  0  0
 26 27  1  0  0  0  0
 27 28  2  0  0  0  0
 28 29  1  0  0  0  0
 29 30  2  0  0  0  0
 30 31  1  0  0  0  0
 30 32  1  0  0  0  0
 32 33  2  0  0  0  0
 26 34  1  0  0  0  0
 34 35  2  0  0  0  0
 35 36  1  0  0  0  0
 36 37  2  0  0  0  0
 37 38  1  0  0  0  0
 37 39  1  0  0  0  0
 39 40  2  0  0  0  0
 25 41  1  0  0  0  0
 41 42  1  0  0  0  0
 42 43  1  0  0  0  0
 43 44  2  0  0  0  0
 44 45  1  0  0  0  0
 45 46  1  0  0  0  0
 46 47  2  0  0  0  0
 47 48  1  0  0  0  0
 48 49  2  0  0  0  0
 49 50  1  0  0  0  0
 49 51  1  0  0  0  0
 51 52  2  0  0  0  0
 45 53  1  0  0  0  0
 53 54  2  0  0  0  0
 54 55  1  0  0  0  0
 55 56  2  0  0  0  0
 56 57  1  0  0  0  0
 56 58  1  0  0  0  0
 58 59  2  0  0  0  0
 44 60  1  0  0  0  0
 60 61  1  0  0  0  0
 43 62  1  0  0  0  0
 62 63  2  0  0  0  0
 63 64  1  0  0  0  0
 64 65  2  0  0  0  0
 65 66  1  0  0  0  0
 66 67  2  0  0  0  0
 67 68  1  0  0  0  0
 68 69  1  0  0  0  0
 69 70  1  0  0  0  0
 68 71  2  0  0  0  0
 63 72  1  0  0  0  0
 72 73  1  0  0  0  0
 73 74  1  0  0  0  0
 74 75  1  0  0  0  0
 75 76  1  0  0  0  0
 76 77  1  0  0  0  0
 77 78  2  0  0  0  0
 78 79  1  0  0  0  0
 79 80  1  0  0  0  0
 77 81  1  0  0  0  0
 81 82  1  0  0  0  0
 82 83  1  0  0  0  0
 83 84  1  0  0  0  0
 84 85  1  0  0  0  0
 85 86  1  0  0  0  0
 86 87  2  0  0  0  0
 87 88  1  0  0  0  0
 88 89  2  0  0  0  0
 89 90  1  0  0  0  0
 90 91  1  0  0  0  0
 91 92  1  0  0  0  0
 90 93  2  0  0  0  0
 85 94  2  0  0  0  0
 94 95  1  0  0  0  0
 95 96  1  0  0  0  0
 96 97  1  0  0  0  0
 97 98  1  0  0  0  0
 98 99  1  0  0  0  0
 99100  1  0  0  0  0
100101  1  0  0  0  0
101102  1  0  0  0  0
102103  1  0  0  0  0
103104  1  0  0  0  0
101105  1  0  0  0  0
105106  1  0  0  0  0
 98107  1  0  0  0  0
107108  1  0  0  0  0
 94109  1  0  0  0  0
109110  2  0  0  0  0
110111  1  0  0  0  0
111112  1  0  0  0  0
112113  2  0  0  0  0
113114  1  0  0  0  0
114115  2  0  0  0  0
115116  1  0  0  0  0
115117  1  0  0  0  0
117118  2  0  0  0  0
111119  1  0  0  0  0
119120  2  0  0  0  0
120121  1  0  0  0  0
121122  2  0  0  0  0
122123  1  0  0  0  0
122124  1  0  0  0  0
124125  2  0  0  0  0
110126  1  0  0  0  0
126127  1  0  0  0  0
127128  1  0  0  0  0
128129  2  0  0  0  0
129130  1  0  0  0  0
130131  1  0  0  0  0
131132  2  0  0  0  0
132133  1  0  0  0  0
133134  2  0  0  0  0
134135  1  0  0  0  0
134136  1  0  0  0  0
136137  2  0  0  0  0
130138  1  0  0  0  0
138139  2  0  0  0  0
139140  1  0  0  0  0
140141  2  0  0  0  0
141142  1  0  0  0  0
141143  1  0  0  0  0
143144  2  0  0  0  0
129145  1  0  0  0  0
145146  1  0  0  0  0
128147  1  0  0  0  0
147148  2  0  0  0  0
148149  1  0  0  0  0
149150  2  0  0  0  0
149151  1  0  0  0  0
151152  2  0  0  0  0
152153  1  0  0  0  0
153154  1  0  0  0  0
154155  2  0  0  0  0
155156  1  0  0  0  0
156157  1  0  0  0  0
157158  1  0  0  0  0
158159  2  0  0  0  0
159160  1  0  0  0  0
160161  2  0  0  0  0
161162  1  0  0  0  0
162163  3  0  0  0  0
161164  1  0  0  0  0
164165  3  0  0  0  0
 11  2  1  0  0  0  0
 23 17  1  0  0  0  0
 61 24  1  0  0  0  0
104 62  1  0  0  0  0
146109  1  0  0  0  0
160148  1  0  0  0  0
 10  5  1  0  0  0  0
 22 18  1  0  0  0  0
 33 27  1  0  0  0  0
 40 34  1  0  0  0  0
 60 41  2  0  0  0  0
 71 64  1  0  0  0  0
103 72  2  0  0  0  0
118112  1  0  0  0  0
125119  1  0  0  0  0
145126  2  0  0  0  0
159151  1  0  0  0  0
 23  7  1  0  0  0  0
 52 46  1  0  0  0  0
 59 53  1  0  0  0  0
102 74  2  0  0  0  0
137131  1  0  0  0  0
144138  1  0  0  0  0
157153  2  0  0  0  0
100 75  2  0  0  0  0
 80 76  2  0  0  0  0
 99 81  2  0  0  0  0
 97 82  2  0  0  0  0
 96 84  2  0  0  0  0
 93 86  1  0  0  0  0
  1166  1  0  0  0  0
  6167  1  0  0  0  0
  9168  1  0  0  0  0
 17169  1  0  0  0  0
 18170  1  0  0  0  0
 19171  1  0  0  0  0
 20172  1  0  0  0  0
 21173  1  0  0  0  0
 22174  1  0  0  0  0
 22175  1  0  0  0  0
 23176  1  0  0  0  0
 28177  1  0  0  0  0
 29178  1  0  0  0  0
 31179  1  0  0  0  0
 31180  1  0  0  0  0
 31181  1  0  0  0  0
 32182  1  0  0  0  0
 33183  1  0  0  0  0
 35184  1  0  0  0  0
 36185  1  0  0  0  0
 38186  1  0  0  0  0
 38187  1  0  0  0  0
 38188  1  0  0  0  0
 39189  1  0  0  0  0
 40190  1  0  0  0  0
 47191  1  0  0  0  0
 48192  1  0  0  0  0
 50193  1  0  0  0  0
 50194  1  0  0  0  0
 50195  1  0  0  0  0
 51196  1  0  0  0  0
 52197  1  0  0  0  0
 54198  1  0  0  0  0
 55199  1  0  0  0  0
 57200  1  0  0  0  0
 57201  1  0  0  0  0
 57202  1  0  0  0  0
 58203  1  0  0  0  0
 59204  1  0  0  0  0
 65205  1  0  0  0  0
 66206  1  0  0  0  0
 67207  1  0  0  0  0
 69208  1  0  0  0  0
 69209  1  0  0  0  0
 70210  1  0  0  0  0
 70211  1  0  0  0  0
 70212  1  0  0  0  0
 71213  1  0  0  0  0
 87214  1  0  0  0  0
 88215  1  0  0  0  0
 89216  1  0  0  0  0
 91217  1  0  0  0  0
 91218  1  0  0  0  0
 92219  1  0  0  0  0
 92220  1  0  0  0  0
 92221  1  0  0  0  0
 93222  1  0  0  0  0
105223  1  0  0  0  0
105224  1  0  0  0  0
106225  1  0  0  0  0
106226  1  0  0  0  0
106227  1  0  0  0  0
107228  1  0  0  0  0
107229  1  0  0  0  0
108230  1  0  0  0  0
108231  1  0  0  0  0
108232  1  0  0  0  0
113233  1  0  0  0  0
114234  1  0  0  0  0
116235  1  0  0  0  0
116236  1  0  0  0  0
116237  1  0  0  0  0
117238  1  0  0  0  0
118239  1  0  0  0  0
120240  1  0  0  0  0
121241  1  0  0  0  0
123242  1  0  0  0  0
123243  1  0  0  0  0
123244  1  0  0  0  0
124245  1  0  0  0  0
125246  1  0  0  0  0
132247  1  0  0  0  0
133248  1  0  0  0  0
135249  1  0  0  0  0
135250  1  0  0  0  0
135251  1  0  0  0  0
136252  1  0  0  0  0
137253  1  0  0  0  0
139254  1  0  0  0  0
140255  1  0  0  0  0
142256  1  0  0  0  0
142257  1  0  0  0  0
142258  1  0  0  0  0
143259  1  0  0  0  0
144260  1  0  0  0  0
147261  1  0  0  0  0
152262  1  0  0  0  0
154263  1  0  0  0  0
155264  1  0  0  0  0
158265  1  0  0  0  0
M  END
