
  xtb     02282209063D
 energy: -428.789649015554 gnorm: 0.000589337335 xtb: 6.4.1 (unknown)
262290  0     0  0            999 V2000
    0.4341  -11.3051   -2.4603 C   0  0  0  0  0  0  0  0  0  0  0  0
    0.9544  -11.5190   -3.7144 C   0  0  0  0  0  0  0  0  0  0  0  0
    1.9086  -10.6581   -4.4174 C   0  0  0  0  0  0  0  0  0  0  0  0
    2.5811   -9.7534   -3.9532 O   0  0  0  0  0  0  0  0  0  0  0  0
    1.8945  -11.0970   -5.8257 C   0  0  0  0  0  0  0  0  0  0  0  0
    2.5948  -10.5319   -6.8885 C   0  0  0  0  0  0  0  0  0  0  0  0
    2.3585  -11.1390   -8.0988 C   0  0  0  0  0  0  0  0  0  0  0  0
    1.4927  -12.2304   -8.2415 C   0  0  0  0  0  0  0  0  0  0  0  0
    0.7993  -12.8006   -7.1996 C   0  0  0  0  0  0  0  0  0  0  0  0
    1.0216  -12.1951   -5.9597 C   0  0  0  0  0  0  0  0  0  0  0  0
    0.4714  -12.5137   -4.6423 C   0  0  0  0  0  0  0  0  0  0  0  0
   -0.3570  -13.5728   -4.3576 C   0  0  0  0  0  0  0  0  0  0  0  0
   -0.9162  -14.4326   -5.3219 C   0  0  0  0  0  0  0  0  0  0  0  0
   -1.4382  -15.1514   -6.0508 N   0  0  0  0  0  0  0  0  0  0  0  0
   -0.7502  -13.9700   -3.0655 C   0  0  0  0  0  0  0  0  0  0  0  0
   -1.0837  -14.3874   -2.0472 N   0  0  0  0  0  0  0  0  0  0  0  0
    1.7298  -12.3268   -9.7288 C   0  0  0  0  0  0  0  0  0  0  0  0
    2.6714  -13.4507  -10.2095 C   0  0  0  0  0  0  0  0  0  0  0  0
    3.0866  -13.0074  -11.5939 C   0  0  0  0  0  0  0  0  0  0  0  0
    3.9081  -11.9743  -11.4575 C   0  0  0  0  0  0  0  0  0  0  0  0
    4.0616  -11.7017   -9.9786 C   0  0  0  0  0  0  0  0  0  0  0  0
    3.9561  -13.1319   -9.4338 C   0  0  0  0  0  0  0  0  0  0  0  0
    2.6966  -11.1097   -9.5690 C   0  0  0  0  0  0  0  0  0  0  0  0
    0.6712  -10.2795   -1.5444 C   0  0  0  0  0  0  0  0  0  0  0  0
   -0.1453  -10.0510   -0.4094 C   0  0  0  0  0  0  0  0  0  0  0  0
   -1.3123  -10.7071   -0.1119 N   0  0  0  0  0  0  0  0  0  0  0  0
   -1.6667  -10.8646    1.2414 C   0  0  0  0  0  0  0  0  0  0  0  0
   -2.9760  -10.6549    1.6613 C   0  0  0  0  0  0  0  0  0  0  0  0
   -3.3090  -10.8160    2.9919 C   0  0  0  0  0  0  0  0  0  0  0  0
   -2.3545  -11.1825    3.9323 C   0  0  0  0  0  0  0  0  0  0  0  0
   -2.7087  -11.3343    5.3792 C   0  0  0  0  0  0  0  0  0  0  0  0
   -1.0492  -11.3940    3.5016 C   0  0  0  0  0  0  0  0  0  0  0  0
   -0.7043  -11.2434    2.1745 C   0  0  0  0  0  0  0  0  0  0  0  0
   -2.2111  -11.1455   -1.1027 C   0  0  0  0  0  0  0  0  0  0  0  0
   -2.4272  -10.3887   -2.2526 C   0  0  0  0  0  0  0  0  0  0  0  0
   -3.2683  -10.8589   -3.2406 C   0  0  0  0  0  0  0  0  0  0  0  0
   -3.9338  -12.0721   -3.1011 C   0  0  0  0  0  0  0  0  0  0  0  0
   -4.8036  -12.6081   -4.1955 C   0  0  0  0  0  0  0  0  0  0  0  0
   -3.7534  -12.7918   -1.9261 C   0  0  0  0  0  0  0  0  0  0  0  0
   -2.8995  -12.3442   -0.9376 C   0  0  0  0  0  0  0  0  0  0  0  0
    0.3777   -9.0125    0.3798 C   0  0  0  0  0  0  0  0  0  0  0  0
   -0.1852   -8.1756    1.7934 S   0  0  0  0  0  0  0  0  0  0  0  0
    1.1822   -7.0808    1.6978 C   0  0  0  0  0  0  0  0  0  0  0  0
    1.9973   -7.3278    0.6043 C   0  0  0  0  0  0  0  0  0  0  0  0
    3.0917   -6.5625    0.2294 N   0  0  0  0  0  0  0  0  0  0  0  0
    3.0397   -5.1663    0.3156 C   0  0  0  0  0  0  0  0  0  0  0  0
    1.8536   -4.4832    0.0588 C   0  0  0  0  0  0  0  0  0  0  0  0
    1.7874   -3.1120    0.2180 C   0  0  0  0  0  0  0  0  0  0  0  0
    2.8911   -2.3814    0.6338 C   0  0  0  0  0  0  0  0  0  0  0  0
    2.8142   -0.8998    0.8454 C   0  0  0  0  0  0  0  0  0  0  0  0
    4.0871   -3.0621    0.8363 C   0  0  0  0  0  0  0  0  0  0  0  0
    4.1679   -4.4288    0.6726 C   0  0  0  0  0  0  0  0  0  0  0  0
    4.2344   -7.2159   -0.2534 C   0  0  0  0  0  0  0  0  0  0  0  0
    5.0170   -6.6388   -1.2507 C   0  0  0  0  0  0  0  0  0  0  0  0
    6.1435   -7.2883   -1.7105 C   0  0  0  0  0  0  0  0  0  0  0  0
    6.5170   -8.5291   -1.2062 C   0  0  0  0  0  0  0  0  0  0  0  0
    7.7344   -9.2274   -1.7307 C   0  0  0  0  0  0  0  0  0  0  0  0
    5.7225   -9.1040   -0.2244 C   0  0  0  0  0  0  0  0  0  0  0  0
    4.5977   -8.4604    0.2516 C   0  0  0  0  0  0  0  0  0  0  0  0
    1.5384   -8.4469   -0.1310 C   0  0  0  0  0  0  0  0  0  0  0  0
    2.0252   -9.1474   -1.6301 S   0  0  0  0  0  0  0  0  0  0  0  0
    1.3559   -5.9852    2.6080 C   0  0  0  0  0  0  0  0  0  0  0  0
    2.5329   -5.6242    3.2300 C   0  0  0  0  0  0  0  0  0  0  0  0
    3.6586   -6.5440    3.3782 C   0  0  0  0  0  0  0  0  0  0  0  0
    3.4234   -7.9019    3.5882 C   0  0  0  0  0  0  0  0  0  0  0  0
    4.4841   -8.7788    3.7078 C   0  0  0  0  0  0  0  0  0  0  0  0
    5.7847   -8.3193    3.6011 C   0  0  0  0  0  0  0  0  0  0  0  0
    6.0393   -6.9671    3.4105 C   0  0  0  0  0  0  0  0  0  0  0  0
    7.4479   -6.4755    3.2436 C   0  0  0  0  0  0  0  0  0  0  0  0
    7.9090   -6.6746    1.7979 C   0  0  0  0  0  0  0  0  0  0  0  0
    4.9715   -6.0879    3.3220 C   0  0  0  0  0  0  0  0  0  0  0  0
    2.4672   -4.2945    3.7035 C   0  0  0  0  0  0  0  0  0  0  0  0
    3.6466   -3.2367    4.4334 S   0  0  0  0  0  0  0  0  0  0  0  0
    2.4976   -1.9454    4.3730 C   0  0  0  0  0  0  0  0  0  0  0  0
    2.4223   -0.5755    4.6737 C   0  0  0  0  0  0  0  0  0  0  0  0
    3.3454    0.2845    5.3054 C   0  0  0  0  0  0  0  0  0  0  0  0
    2.9717    1.6493    5.5425 C   0  0  0  0  0  0  0  0  0  0  0  0
    3.9174    2.3319    6.1693 N   0  0  0  0  0  0  0  0  0  0  0  0
    5.1703    1.3410    6.4405 S   0  0  0  0  0  0  0  0  0  0  0  0
    4.5564    0.0046    5.7616 N   0  0  0  0  0  0  0  0  0  0  0  0
    1.7391    2.1147    5.0371 C   0  0  0  0  0  0  0  0  0  0  0  0
    1.2281    3.4196    4.9362 C   0  0  0  0  0  0  0  0  0  0  0  0
    1.6859    5.0456    5.3197 S   0  0  0  0  0  0  0  0  0  0  0  0
    0.3430    5.6306    4.3687 C   0  0  0  0  0  0  0  0  0  0  0  0
   -0.0544    6.9172    3.9452 C   0  0  0  0  0  0  0  0  0  0  0  0
    0.4797    8.1993    4.3998 C   0  0  0  0  0  0  0  0  0  0  0  0
    1.8268    8.3706    4.7046 C   0  0  0  0  0  0  0  0  0  0  0  0
    2.2909    9.6129    5.0939 C   0  0  0  0  0  0  0  0  0  0  0  0
    1.4250   10.6878    5.2029 C   0  0  0  0  0  0  0  0  0  0  0  0
    0.0687   10.5262    4.9485 C   0  0  0  0  0  0  0  0  0  0  0  0
   -0.9034   11.6668    5.0723 C   0  0  0  0  0  0  0  0  0  0  0  0
   -1.3668   12.1627    3.7007 C   0  0  0  0  0  0  0  0  0  0  0  0
   -0.3878    9.2788    4.5520 C   0  0  0  0  0  0  0  0  0  0  0  0
   -1.0956    6.8403    3.0405 C   0  0  0  0  0  0  0  0  0  0  0  0
   -1.6913    5.2069    2.8169 S   0  0  0  0  0  0  0  0  0  0  0  0
   -0.4322    4.6028    3.8322 C   0  0  0  0  0  0  0  0  0  0  0  0
    0.0668    3.3387    4.1695 C   0  0  0  0  0  0  0  0  0  0  0  0
   -0.1792    2.0389    3.8261 N   0  0  0  0  0  0  0  0  0  0  0  0
    0.8330    1.2556    4.3497 C   0  0  0  0  0  0  0  0  0  0  0  0
    1.1336   -0.1322    4.2648 C   0  0  0  0  0  0  0  0  0  0  0  0
    0.4342   -1.2279    3.7838 N   0  0  0  0  0  0  0  0  0  0  0  0
    1.2640   -2.3169    3.8395 C   0  0  0  0  0  0  0  0  0  0  0  0
    1.2425   -3.6693    3.4690 C   0  0  0  0  0  0  0  0  0  0  0  0
    0.1212   -4.7432    2.7122 S   0  0  0  0  0  0  0  0  0  0  0  0
   -0.9846   -1.4126    3.5802 C   0  0  0  0  0  0  0  0  0  0  0  0
   -1.3467   -1.6679    2.1165 C   0  0  0  0  0  0  0  0  0  0  0  0
   -1.2240    1.7602    2.8720 C   0  0  0  0  0  0  0  0  0  0  0  0
   -2.6109    1.8093    3.5121 C   0  0  0  0  0  0  0  0  0  0  0  0
   -1.4842    7.8916    2.1466 C   0  0  0  0  0  0  0  0  0  0  0  0
   -0.5996    8.5969    1.3404 C   0  0  0  0  0  0  0  0  0  0  0  0
    0.7466    8.3196    1.1969 N   0  0  0  0  0  0  0  0  0  0  0  0
    1.2257    7.0014    1.2499 C   0  0  0  0  0  0  0  0  0  0  0  0
    2.4432    6.7235    1.8687 C   0  0  0  0  0  0  0  0  0  0  0  0
    2.8934    5.4239    1.9704 C   0  0  0  0  0  0  0  0  0  0  0  0
    2.1578    4.3641    1.4499 C   0  0  0  0  0  0  0  0  0  0  0  0
    2.6568    2.9574    1.5786 C   0  0  0  0  0  0  0  0  0  0  0  0
    0.9709    4.6537    0.7917 C   0  0  0  0  0  0  0  0  0  0  0  0
    0.5060    5.9515    0.6873 C   0  0  0  0  0  0  0  0  0  0  0  0
    1.6454    9.3733    0.9617 C   0  0  0  0  0  0  0  0  0  0  0  0
    2.6992    9.2147    0.0654 C   0  0  0  0  0  0  0  0  0  0  0  0
    3.5759   10.2556   -0.1609 C   0  0  0  0  0  0  0  0  0  0  0  0
    3.4265   11.4774    0.4867 C   0  0  0  0  0  0  0  0  0  0  0  0
    4.3698   12.6072    0.2084 C   0  0  0  0  0  0  0  0  0  0  0  0
    2.3721   11.6251    1.3777 C   0  0  0  0  0  0  0  0  0  0  0  0
    1.4917   10.5890    1.6189 C   0  0  0  0  0  0  0  0  0  0  0  0
   -1.2810    9.6108    0.6274 C   0  0  0  0  0  0  0  0  0  0  0  0
   -0.7852   10.7704   -0.5457 S   0  0  0  0  0  0  0  0  0  0  0  0
   -2.4519   11.3520   -0.7110 C   0  0  0  0  0  0  0  0  0  0  0  0
   -3.3559   10.5869    0.0654 C   0  0  0  0  0  0  0  0  0  0  0  0
   -4.7169   10.6289    0.0142 N   0  0  0  0  0  0  0  0  0  0  0  0
   -5.4278   11.0440   -1.1195 C   0  0  0  0  0  0  0  0  0  0  0  0
   -6.6000   11.7825   -0.9703 C   0  0  0  0  0  0  0  0  0  0  0  0
   -7.2880   12.2297   -2.0832 C   0  0  0  0  0  0  0  0  0  0  0  0
   -6.8355   11.9536   -3.3661 C   0  0  0  0  0  0  0  0  0  0  0  0
   -7.5464   12.4746   -4.5745 C   0  0  0  0  0  0  0  0  0  0  0  0
   -5.6893   11.1727   -3.5057 C   0  0  0  0  0  0  0  0  0  0  0  0
   -4.9931   10.7215   -2.4052 C   0  0  0  0  0  0  0  0  0  0  0  0
   -5.4582   10.1897    1.1346 C   0  0  0  0  0  0  0  0  0  0  0  0
   -6.5177    9.3062    0.9649 C   0  0  0  0  0  0  0  0  0  0  0  0
   -7.2393    8.8797    2.0632 C   0  0  0  0  0  0  0  0  0  0  0  0
   -6.9240    9.3202    3.3427 C   0  0  0  0  0  0  0  0  0  0  0  0
   -7.6895    8.8369    4.5352 C   0  0  0  0  0  0  0  0  0  0  0  0
   -5.8695   10.2146    3.4962 C   0  0  0  0  0  0  0  0  0  0  0  0
   -5.1413   10.6511    2.4085 C   0  0  0  0  0  0  0  0  0  0  0  0
   -2.6526    9.6426    0.8460 C   0  0  0  0  0  0  0  0  0  0  0  0
   -3.1491    8.3994    1.9485 S   0  0  0  0  0  0  0  0  0  0  0  0
   -2.6583   12.4208   -1.5763 C   0  0  0  0  0  0  0  0  0  0  0  0
   -3.7491   13.2750   -1.5706 C   0  0  0  0  0  0  0  0  0  0  0  0
   -4.5270   13.5902   -0.3696 C   0  0  0  0  0  0  0  0  0  0  0  0
   -4.3683   13.1605    0.7583 O   0  0  0  0  0  0  0  0  0  0  0  0
   -5.4814   14.6471   -0.7865 C   0  0  0  0  0  0  0  0  0  0  0  0
   -6.4434   15.2860   -0.0364 C   0  0  0  0  0  0  0  0  0  0  0  0
   -7.2533   16.2280   -0.6636 C   0  0  0  0  0  0  0  0  0  0  0  0
   -8.4815   17.0283    0.2378 Cl  0  0  0  0  0  0  0  0  0  0  0  0
   -7.0699   16.5120   -2.0160 C   0  0  0  0  0  0  0  0  0  0  0  0
   -8.1767   17.7886   -2.8705 Br  0  0  0  0  0  0  0  0  0  0  0  0
   -6.0891   15.8757   -2.7696 C   0  0  0  0  0  0  0  0  0  0  0  0
   -5.2916   14.9330   -2.1486 C   0  0  0  0  0  0  0  0  0  0  0  0
   -4.2223   14.0758   -2.6594 C   0  0  0  0  0  0  0  0  0  0  0  0
   -3.8651   13.9387   -3.9799 C   0  0  0  0  0  0  0  0  0  0  0  0
   -2.9389   12.9859   -4.4465 C   0  0  0  0  0  0  0  0  0  0  0  0
   -2.2193   12.2132   -4.8991 N   0  0  0  0  0  0  0  0  0  0  0  0
   -4.4468   14.6681   -5.0319 C   0  0  0  0  0  0  0  0  0  0  0  0
   -4.9031   15.2232   -5.9286 N   0  0  0  0  0  0  0  0  0  0  0  0
   -0.3308  -12.0034   -2.1469 H   0  0  0  0  0  0  0  0  0  0  0  0
    3.2492   -9.6882   -6.7343 H   0  0  0  0  0  0  0  0  0  0  0  0
    0.1327  -13.6374   -7.3258 H   0  0  0  0  0  0  0  0  0  0  0  0
    0.8484  -12.2122  -10.3572 H   0  0  0  0  0  0  0  0  0  0  0  0
    2.2661  -14.4547  -10.1178 H   0  0  0  0  0  0  0  0  0  0  0  0
    2.7081  -13.4404  -12.5013 H   0  0  0  0  0  0  0  0  0  0  0  0
    4.3527  -11.3720  -12.2281 H   0  0  0  0  0  0  0  0  0  0  0  0
    4.9233  -11.1123   -9.6763 H   0  0  0  0  0  0  0  0  0  0  0  0
    3.8462  -13.1873   -8.3524 H   0  0  0  0  0  0  0  0  0  0  0  0
    4.7921  -13.7549   -9.7478 H   0  0  0  0  0  0  0  0  0  0  0  0
    2.4597  -10.1850  -10.0924 H   0  0  0  0  0  0  0  0  0  0  0  0
   -3.7262  -10.3626    0.9416 H   0  0  0  0  0  0  0  0  0  0  0  0
   -4.3291  -10.6472    3.3048 H   0  0  0  0  0  0  0  0  0  0  0  0
   -3.7854  -11.4016    5.5123 H   0  0  0  0  0  0  0  0  0  0  0  0
   -2.2451  -12.2255    5.7976 H   0  0  0  0  0  0  0  0  0  0  0  0
   -2.3472  -10.4744    5.9436 H   0  0  0  0  0  0  0  0  0  0  0  0
   -0.2949  -11.6895    4.2163 H   0  0  0  0  0  0  0  0  0  0  0  0
    0.3094  -11.4269    1.8493 H   0  0  0  0  0  0  0  0  0  0  0  0
   -1.9187   -9.4433   -2.3749 H   0  0  0  0  0  0  0  0  0  0  0  0
   -3.4131  -10.2701   -4.1352 H   0  0  0  0  0  0  0  0  0  0  0  0
   -5.7072  -13.0556   -3.7870 H   0  0  0  0  0  0  0  0  0  0  0  0
   -5.0814  -11.8234   -4.8950 H   0  0  0  0  0  0  0  0  0  0  0  0
   -4.2695  -13.3834   -4.7467 H   0  0  0  0  0  0  0  0  0  0  0  0
   -4.2666  -13.7321   -1.7935 H   0  0  0  0  0  0  0  0  0  0  0  0
   -2.7445  -12.9310   -0.0458 H   0  0  0  0  0  0  0  0  0  0  0  0
    0.9802   -5.0324   -0.2623 H   0  0  0  0  0  0  0  0  0  0  0  0
    0.8546   -2.6049    0.0163 H   0  0  0  0  0  0  0  0  0  0  0  0
    3.2598   -0.6247    1.8002 H   0  0  0  0  0  0  0  0  0  0  0  0
    3.3586   -0.3749    0.0603 H   0  0  0  0  0  0  0  0  0  0  0  0
    1.7815   -0.5593    0.8316 H   0  0  0  0  0  0  0  0  0  0  0  0
    4.9645   -2.5108    1.1428 H   0  0  0  0  0  0  0  0  0  0  0  0
    5.1015   -4.9434    0.8371 H   0  0  0  0  0  0  0  0  0  0  0  0
    4.7335   -5.6829   -1.6658 H   0  0  0  0  0  0  0  0  0  0  0  0
    6.7414   -6.8281   -2.4841 H   0  0  0  0  0  0  0  0  0  0  0  0
    7.5271   -9.6489   -2.7146 H   0  0  0  0  0  0  0  0  0  0  0  0
    8.5643   -8.5306   -1.8336 H   0  0  0  0  0  0  0  0  0  0  0  0
    8.0341  -10.0374   -1.0700 H   0  0  0  0  0  0  0  0  0  0  0  0
    5.9887  -10.0691    0.1826 H   0  0  0  0  0  0  0  0  0  0  0  0
    4.0022   -8.9163    1.0278 H   0  0  0  0  0  0  0  0  0  0  0  0
    2.4094   -8.2637    3.6760 H   0  0  0  0  0  0  0  0  0  0  0  0
    4.2949   -9.8286    3.8802 H   0  0  0  0  0  0  0  0  0  0  0  0
    6.6098   -9.0124    3.6774 H   0  0  0  0  0  0  0  0  0  0  0  0
    8.1144   -7.0263    3.9108 H   0  0  0  0  0  0  0  0  0  0  0  0
    7.5045   -5.4163    3.5012 H   0  0  0  0  0  0  0  0  0  0  0  0
    7.8609   -7.7259    1.5238 H   0  0  0  0  0  0  0  0  0  0  0  0
    8.9318   -6.3267    1.6732 H   0  0  0  0  0  0  0  0  0  0  0  0
    7.2692   -6.1240    1.1117 H   0  0  0  0  0  0  0  0  0  0  0  0
    5.1606   -5.0331    3.1942 H   0  0  0  0  0  0  0  0  0  0  0  0
    2.5042    7.5346    4.6294 H   0  0  0  0  0  0  0  0  0  0  0  0
    3.3395    9.7450    5.3160 H   0  0  0  0  0  0  0  0  0  0  0  0
    1.8022   11.6546    5.5034 H   0  0  0  0  0  0  0  0  0  0  0  0
   -1.7755   11.3326    5.6400 H   0  0  0  0  0  0  0  0  0  0  0  0
   -0.4398   12.4912    5.6169 H   0  0  0  0  0  0  0  0  0  0  0  0
   -1.8009   11.3472    3.1254 H   0  0  0  0  0  0  0  0  0  0  0  0
   -0.5312   12.5731    3.1376 H   0  0  0  0  0  0  0  0  0  0  0  0
   -2.1180   12.9414    3.8102 H   0  0  0  0  0  0  0  0  0  0  0  0
   -1.4452    9.1379    4.3792 H   0  0  0  0  0  0  0  0  0  0  0  0
   -1.2931   -2.2864    4.1657 H   0  0  0  0  0  0  0  0  0  0  0  0
   -1.5106   -0.5480    3.9787 H   0  0  0  0  0  0  0  0  0  0  0  0
   -2.4260   -1.6326    1.9958 H   0  0  0  0  0  0  0  0  0  0  0  0
   -0.9983   -2.6494    1.8098 H   0  0  0  0  0  0  0  0  0  0  0  0
   -0.8953   -0.9327    1.4537 H   0  0  0  0  0  0  0  0  0  0  0  0
   -1.0346    0.8025    2.3992 H   0  0  0  0  0  0  0  0  0  0  0  0
   -1.1742    2.5349    2.0980 H   0  0  0  0  0  0  0  0  0  0  0  0
   -2.8272    2.8176    3.8548 H   0  0  0  0  0  0  0  0  0  0  0  0
   -2.6805    1.1405    4.3675 H   0  0  0  0  0  0  0  0  0  0  0  0
   -3.3636    1.5253    2.7821 H   0  0  0  0  0  0  0  0  0  0  0  0
    3.0230    7.5369    2.2771 H   0  0  0  0  0  0  0  0  0  0  0  0
    3.8265    5.2226    2.4760 H   0  0  0  0  0  0  0  0  0  0  0  0
    3.4529    2.7733    0.8568 H   0  0  0  0  0  0  0  0  0  0  0  0
    1.8606    2.2396    1.3949 H   0  0  0  0  0  0  0  0  0  0  0  0
    3.0629    2.7830    2.5731 H   0  0  0  0  0  0  0  0  0  0  0  0
    0.3946    3.8522    0.3505 H   0  0  0  0  0  0  0  0  0  0  0  0
   -0.4205    6.1542    0.1695 H   0  0  0  0  0  0  0  0  0  0  0  0
    2.8237    8.2743   -0.4508 H   0  0  0  0  0  0  0  0  0  0  0  0
    4.3883   10.1209   -0.8603 H   0  0  0  0  0  0  0  0  0  0  0  0
    4.3584   13.3324    1.0184 H   0  0  0  0  0  0  0  0  0  0  0  0
    4.0770   13.1185   -0.7092 H   0  0  0  0  0  0  0  0  0  0  0  0
    5.3853   12.2402    0.0763 H   0  0  0  0  0  0  0  0  0  0  0  0
    2.2405   12.5624    1.8990 H   0  0  0  0  0  0  0  0  0  0  0  0
    0.6895   10.7081    2.3294 H   0  0  0  0  0  0  0  0  0  0  0  0
   -6.9591   12.0130    0.0214 H   0  0  0  0  0  0  0  0  0  0  0  0
   -8.1848   12.8165   -1.9473 H   0  0  0  0  0  0  0  0  0  0  0  0
   -7.8117   11.6572   -5.2432 H   0  0  0  0  0  0  0  0  0  0  0  0
   -6.9016   13.1558   -5.1299 H   0  0  0  0  0  0  0  0  0  0  0  0
   -8.4516   13.0075   -4.2957 H   0  0  0  0  0  0  0  0  0  0  0  0
   -5.3348   10.9217   -4.4948 H   0  0  0  0  0  0  0  0  0  0  0  0
   -4.1066   10.1200   -2.5392 H   0  0  0  0  0  0  0  0  0  0  0  0
   -6.7683    8.9555   -0.0257 H   0  0  0  0  0  0  0  0  0  0  0  0
   -8.0586    8.1899    1.9225 H   0  0  0  0  0  0  0  0  0  0  0  0
   -8.6536    8.4296    4.2416 H   0  0  0  0  0  0  0  0  0  0  0  0
   -7.8482    9.6449    5.2461 H   0  0  0  0  0  0  0  0  0  0  0  0
   -7.1282    8.0516    5.0424 H   0  0  0  0  0  0  0  0  0  0  0  0
   -5.6224   10.5803    4.4822 H   0  0  0  0  0  0  0  0  0  0  0  0
   -4.3470   11.3720    2.5223 H   0  0  0  0  0  0  0  0  0  0  0  0
   -1.8653   12.6062   -2.2907 H   0  0  0  0  0  0  0  0  0  0  0  0
   -6.5734   15.0547    1.0089 H   0  0  0  0  0  0  0  0  0  0  0  0
   -5.9736   16.1300   -3.8109 H   0  0  0  0  0  0  0  0  0  0  0  0
  1  2  2  0  0  0  0
  2  3  1  0  0  0  0
  3  4  2  0  0  0  0
  3  5  1  0  0  0  0
  5  6  2  0  0  0  0
  6  7  1  0  0  0  0
  7  8  2  0  0  0  0
  8  9  1  0  0  0  0
  9 10  2  0  0  0  0
 10 11  1  0  0  0  0
 11 12  2  0  0  0  0
 12 13  1  0  0  0  0
 13 14  3  0  0  0  0
 12 15  1  0  0  0  0
 15 16  3  0  0  0  0
  8 17  1  0  0  0  0
 17 18  1  0  0  0  0
 18 19  1  0  0  0  0
 19 20  2  0  0  0  0
 20 21  1  0  0  0  0
 21 22  1  0  0  0  0
 21 23  1  0  0  0  0
  1 24  1  0  0  0  0
 24 25  2  0  0  0  0
 25 26  1  0  0  0  0
 26 27  1  0  0  0  0
 27 28  2  0  0  0  0
 28 29  1  0  0  0  0
 29 30  2  0  0  0  0
 30 31  1  0  0  0  0
 30 32  1  0  0  0  0
 32 33  2  0  0  0  0
 26 34  1  0  0  0  0
 34 35  2  0  0  0  0
 35 36  1  0  0  0  0
 36 37  2  0  0  0  0
 37 38  1  0  0  0  0
 37 39  1  0  0  0  0
 39 40  2  0  0  0  0
 25 41  1  0  0  0  0
 41 42  1  0  0  0  0
 42 43  1  0  0  0  0
 43 44  2  0  0  0  0
 44 45  1  0  0  0  0
 45 46  1  0  0  0  0
 46 47  2  0  0  0  0
 47 48  1  0  0  0  0
 48 49  2  0  0  0  0
 49 50  1  0  0  0  0
 49 51  1  0  0  0  0
 51 52  2  0  0  0  0
 45 53  1  0  0  0  0
 53 54  2  0  0  0  0
 54 55  1  0  0  0  0
 55 56  2  0  0  0  0
 56 57  1  0  0  0  0
 56 58  1  0  0  0  0
 58 59  2  0  0  0  0
 44 60  1  0  0  0  0
 60 61  1  0  0  0  0
 43 62  1  0  0  0  0
 62 63  2  0  0  0  0
 63 64  1  0  0  0  0
 64 65  2  0  0  0  0
 65 66  1  0  0  0  0
 66 67  2  0  0  0  0
 67 68  1  0  0  0  0
 68 69  1  0  0  0  0
 69 70  1  0  0  0  0
 68 71  2  0  0  0  0
 63 72  1  0  0  0  0
 72 73  1  0  0  0  0
 73 74  1  0  0  0  0
 74 75  1  0  0  0  0
 75 76  1  0  0  0  0
 76 77  1  0  0  0  0
 77 78  2  0  0  0  0
 78 79  1  0  0  0  0
 79 80  1  0  0  0  0
 77 81  1  0  0  0  0
 81 82  1  0  0  0  0
 82 83  1  0  0  0  0
 83 84  1  0  0  0  0
 84 85  1  0  0  0  0
 85 86  1  0  0  0  0
 86 87  2  0  0  0  0
 87 88  1  0  0  0  0
 88 89  2  0  0  0  0
 89 90  1  0  0  0  0
 90 91  1  0  0  0  0
 91 92  1  0  0  0  0
 90 93  2  0  0  0  0
 85 94  2  0  0  0  0
 94 95  1  0  0  0  0
 95 96  1  0  0  0  0
 96 97  1  0  0  0  0
 97 98  1  0  0  0  0
 98 99  1  0  0  0  0
 99100  1  0  0  0  0
100101  1  0  0  0  0
101102  1  0  0  0  0
102103  1  0  0  0  0
103104  1  0  0  0  0
101105  1  0  0  0  0
105106  1  0  0  0  0
 98107  1  0  0  0  0
107108  1  0  0  0  0
 94109  1  0  0  0  0
109110  2  0  0  0  0
110111  1  0  0  0  0
111112  1  0  0  0  0
112113  2  0  0  0  0
113114  1  0  0  0  0
114115  2  0  0  0  0
115116  1  0  0  0  0
115117  1  0  0  0  0
117118  2  0  0  0  0
111119  1  0  0  0  0
119120  2  0  0  0  0
120121  1  0  0  0  0
121122  2  0  0  0  0
122123  1  0  0  0  0
122124  1  0  0  0  0
124125  2  0  0  0  0
110126  1  0  0  0  0
126127  1  0  0  0  0
127128  1  0  0  0  0
128129  2  0  0  0  0
129130  1  0  0  0  0
130131  1  0  0  0  0
131132  2  0  0  0  0
132133  1  0  0  0  0
133134  2  0  0  0  0
134135  1  0  0  0  0
134136  1  0  0  0  0
136137  2  0  0  0  0
130138  1  0  0  0  0
138139  2  0  0  0  0
139140  1  0  0  0  0
140141  2  0  0  0  0
141142  1  0  0  0  0
141143  1  0  0  0  0
143144  2  0  0  0  0
129145  1  0  0  0  0
145146  1  0  0  0  0
128147  1  0  0  0  0
147148  2  0  0  0  0
148149  1  0  0  0  0
149150  2  0  0  0  0
149151  1  0  0  0  0
151152  2  0  0  0  0
152153  1  0  0  0  0
153154  1  0  0  0  0
153155  2  0  0  0  0
155156  1  0  0  0  0
155157  1  0  0  0  0
157158  2  0  0  0  0
158159  1  0  0  0  0
159160  2  0  0  0  0
160161  1  0  0  0  0
161162  3  0  0  0  0
160163  1  0  0  0  0
163164  3  0  0  0  0
 11  2  1  0  0  0  0
 23 17  1  0  0  0  0
 61 24  1  0  0  0  0
104 62  1  0  0  0  0
146109  1  0  0  0  0
159148  1  0  0  0  0
 10  5  1  0  0  0  0
 22 18  1  0  0  0  0
 33 27  1  0  0  0  0
 40 34  1  0  0  0  0
 60 41  2  0  0  0  0
 71 64  1  0  0  0  0
103 72  2  0  0  0  0
118112  1  0  0  0  0
125119  1  0  0  0  0
145126  2  0  0  0  0
158151  1  0  0  0  0
 23  7  1  0  0  0  0
 52 46  1  0  0  0  0
 59 53  1  0  0  0  0
102 74  2  0  0  0  0
137131  1  0  0  0  0
144138  1  0  0  0  0
100 75  2  0  0  0  0
 80 76  2  0  0  0  0
 99 81  2  0  0  0  0
 97 82  2  0  0  0  0
 96 84  2  0  0  0  0
 93 86  1  0  0  0  0
  1165  1  0  0  0  0
  6166  1  0  0  0  0
  9167  1  0  0  0  0
 17168  1  0  0  0  0
 18169  1  0  0  0  0
 19170  1  0  0  0  0
 20171  1  0  0  0  0
 21172  1  0  0  0  0
 22173  1  0  0  0  0
 22174  1  0  0  0  0
 23175  1  0  0  0  0
 28176  1  0  0  0  0
 29177  1  0  0  0  0
 31178  1  0  0  0  0
 31179  1  0  0  0  0
 31180  1  0  0  0  0
 32181  1  0  0  0  0
 33182  1  0  0  0  0
 35183  1  0  0  0  0
 36184  1  0  0  0  0
 38185  1  0  0  0  0
 38186  1  0  0  0  0
 38187  1  0  0  0  0
 39188  1  0  0  0  0
 40189  1  0  0  0  0
 47190  1  0  0  0  0
 48191  1  0  0  0  0
 50192  1  0  0  0  0
 50193  1  0  0  0  0
 50194  1  0  0  0  0
 51195  1  0  0  0  0
 52196  1  0  0  0  0
 54197  1  0  0  0  0
 55198  1  0  0  0  0
 57199  1  0  0  0  0
 57200  1  0  0  0  0
 57201  1  0  0  0  0
 58202  1  0  0  0  0
 59203  1  0  0  0  0
 65204  1  0  0  0  0
 66205  1  0  0  0  0
 67206  1  0  0  0  0
 69207  1  0  0  0  0
 69208  1  0  0  0  0
 70209  1  0  0  0  0
 70210  1  0  0  0  0
 70211  1  0  0  0  0
 71212  1  0  0  0  0
 87213  1  0  0  0  0
 88214  1  0  0  0  0
 89215  1  0  0  0  0
 91216  1  0  0  0  0
 91217  1  0  0  0  0
 92218  1  0  0  0  0
 92219  1  0  0  0  0
 92220  1  0  0  0  0
 93221  1  0  0  0  0
105222  1  0  0  0  0
105223  1  0  0  0  0
106224  1  0  0  0  0
106225  1  0  0  0  0
106226  1  0  0  0  0
107227  1  0  0  0  0
107228  1  0  0  0  0
108229  1  0  0  0  0
108230  1  0  0  0  0
108231  1  0  0  0  0
113232  1  0  0  0  0
114233  1  0  0  0  0
116234  1  0  0  0  0
116235  1  0  0  0  0
116236  1  0  0  0  0
117237  1  0  0  0  0
118238  1  0  0  0  0
120239  1  0  0  0  0
121240  1  0  0  0  0
123241  1  0  0  0  0
123242  1  0  0  0  0
123243  1  0  0  0  0
124244  1  0  0  0  0
125245  1  0  0  0  0
132246  1  0  0  0  0
133247  1  0  0  0  0
135248  1  0  0  0  0
135249  1  0  0  0  0
135250  1  0  0  0  0
136251  1  0  0  0  0
137252  1  0  0  0  0
139253  1  0  0  0  0
140254  1  0  0  0  0
142255  1  0  0  0  0
142256  1  0  0  0  0
142257  1  0  0  0  0
143258  1  0  0  0  0
144259  1  0  0  0  0
147260  1  0  0  0  0
152261  1  0  0  0  0
157262  1  0  0  0  0
M  END
