
  xtb     02182212333D
 energy: -401.399809628388 gnorm: 0.000530394711 xtb: 6.4.1 (unknown)
258285  0     0  0            999 V2000
   -1.8378    0.5073    6.0179 C   0  0  0  0  0  0  0  0  0  0  0  0
   -2.7610    0.6841    7.0279 C   0  0  0  0  0  0  0  0  0  0  0  0
   -4.2133    0.7375    6.8739 C   0  0  0  0  0  0  0  0  0  0  0  0
   -4.8696    0.5638    5.8593 O   0  0  0  0  0  0  0  0  0  0  0  0
   -4.7574    1.0747    8.2044 C   0  0  0  0  0  0  0  0  0  0  0  0
   -6.0975    1.2256    8.5503 C   0  0  0  0  0  0  0  0  0  0  0  0
   -6.3022    1.5282    9.8755 C   0  0  0  0  0  0  0  0  0  0  0  0
   -5.2502    1.6737   10.7873 C   0  0  0  0  0  0  0  0  0  0  0  0
   -3.9228    1.5302   10.4573 C   0  0  0  0  0  0  0  0  0  0  0  0
   -3.6927    1.2193    9.1145 C   0  0  0  0  0  0  0  0  0  0  0  0
   -2.4376    0.9643    8.4036 C   0  0  0  0  0  0  0  0  0  0  0  0
   -1.1880    0.9765    8.9794 C   0  0  0  0  0  0  0  0  0  0  0  0
   -0.9284    1.3367   10.3154 C   0  0  0  0  0  0  0  0  0  0  0  0
   -0.6361    1.6370   11.3858 N   0  0  0  0  0  0  0  0  0  0  0  0
    0.0135    0.6083    8.3451 C   0  0  0  0  0  0  0  0  0  0  0  0
    1.0369    0.2910    7.9268 N   0  0  0  0  0  0  0  0  0  0  0  0
   -6.1813    1.9601   11.9400 C   0  0  0  0  0  0  0  0  0  0  0  0
   -6.4252    0.8033   12.9319 C   0  0  0  0  0  0  0  0  0  0  0  0
   -7.7022    1.1955   13.6391 C   0  0  0  0  0  0  0  0  0  0  0  0
   -8.7002    1.0578   12.7755 C   0  0  0  0  0  0  0  0  0  0  0  0
   -8.1142    0.5698   11.4703 C   0  0  0  0  0  0  0  0  0  0  0  0
   -6.9637   -0.2933   12.0039 C   0  0  0  0  0  0  0  0  0  0  0  0
   -7.3557    1.7973   10.9226 C   0  0  0  0  0  0  0  0  0  0  0  0
   -2.0173    0.2080    4.6728 C   0  0  0  0  0  0  0  0  0  0  0  0
   -0.9408    0.1082    3.7469 C   0  0  0  0  0  0  0  0  0  0  0  0
    0.3003    0.6366    3.9311 N   0  0  0  0  0  0  0  0  0  0  0  0
    0.5476    1.7457    4.7739 C   0  0  0  0  0  0  0  0  0  0  0  0
   -0.3441    2.8118    4.8491 C   0  0  0  0  0  0  0  0  0  0  0  0
   -0.0855    3.8658    5.7028 C   0  0  0  0  0  0  0  0  0  0  0  0
    1.0672    3.8963    6.4797 C   0  0  0  0  0  0  0  0  0  0  0  0
    1.3308    5.0124    7.4399 C   0  0  0  0  0  0  0  0  0  0  0  0
    1.9772    2.8530    6.3513 C   0  0  0  0  0  0  0  0  0  0  0  0
    1.7268    1.7858    5.5121 C   0  0  0  0  0  0  0  0  0  0  0  0
    1.3765    0.2538    3.0974 C   0  0  0  0  0  0  0  0  0  0  0  0
    1.7633   -1.0756    2.9854 C   0  0  0  0  0  0  0  0  0  0  0  0
    2.8356   -1.4142    2.1790 C   0  0  0  0  0  0  0  0  0  0  0  0
    3.5358   -0.4464    1.4727 C   0  0  0  0  0  0  0  0  0  0  0  0
    4.6956   -0.8000    0.5928 C   0  0  0  0  0  0  0  0  0  0  0  0
    3.1399    0.8816    1.5947 C   0  0  0  0  0  0  0  0  0  0  0  0
    2.0783    1.2333    2.3996 C   0  0  0  0  0  0  0  0  0  0  0  0
   -1.3672   -0.5346    2.5691 C   0  0  0  0  0  0  0  0  0  0  0  0
   -0.5673   -1.1086    1.1432 S   0  0  0  0  0  0  0  0  0  0  0  0
   -2.1097   -1.5980    0.4574 C   0  0  0  0  0  0  0  0  0  0  0  0
   -3.1762   -1.3388    1.2937 C   0  0  0  0  0  0  0  0  0  0  0  0
   -4.5009   -1.6036    1.0040 N   0  0  0  0  0  0  0  0  0  0  0  0
   -4.8594   -2.6159    0.1099 C   0  0  0  0  0  0  0  0  0  0  0  0
   -5.8980   -2.4212   -0.7976 C   0  0  0  0  0  0  0  0  0  0  0  0
   -6.2246   -3.4090   -1.7061 C   0  0  0  0  0  0  0  0  0  0  0  0
   -5.5317   -4.6131   -1.7414 C   0  0  0  0  0  0  0  0  0  0  0  0
   -5.8536   -5.6642   -2.7603 C   0  0  0  0  0  0  0  0  0  0  0  0
   -4.5156   -4.8115   -0.8139 C   0  0  0  0  0  0  0  0  0  0  0  0
   -4.1858   -3.8363    0.1051 C   0  0  0  0  0  0  0  0  0  0  0  0
   -5.4859   -0.7422    1.5189 C   0  0  0  0  0  0  0  0  0  0  0  0
   -6.6770   -1.2617    2.0149 C   0  0  0  0  0  0  0  0  0  0  0  0
   -7.6274   -0.4182    2.5543 C   0  0  0  0  0  0  0  0  0  0  0  0
   -7.4173    0.9537    2.6162 C   0  0  0  0  0  0  0  0  0  0  0  0
   -8.4245    1.8621    3.2513 C   0  0  0  0  0  0  0  0  0  0  0  0
   -6.2340    1.4654    2.0986 C   0  0  0  0  0  0  0  0  0  0  0  0
   -5.2780    0.6340    1.5511 C   0  0  0  0  0  0  0  0  0  0  0  0
   -2.7371   -0.7647    2.5153 C   0  0  0  0  0  0  0  0  0  0  0  0
   -3.5600   -0.2654    3.9487 S   0  0  0  0  0  0  0  0  0  0  0  0
   -2.1006   -2.1389   -0.8751 C   0  0  0  0  0  0  0  0  0  0  0  0
   -2.6136   -1.5216   -2.0055 C   0  0  0  0  0  0  0  0  0  0  0  0
   -3.3205   -0.3798   -1.8239 O   0  0  0  0  0  0  0  0  0  0  0  0
   -4.2707    0.0043   -2.8044 C   0  0  0  0  0  0  0  0  0  0  0  0
   -4.9884    1.2360   -2.2776 C   0  0  0  0  0  0  0  0  0  0  0  0
   -2.1974   -2.1744   -3.1869 C   0  0  0  0  0  0  0  0  0  0  0  0
   -2.0742   -1.8261   -4.6603 C   0  0  0  0  0  0  0  0  0  0  0  0
   -1.5312   -0.4115   -4.8040 C   0  0  0  0  0  0  0  0  0  0  0  0
   -2.1545    0.5923   -5.5307 C   0  0  0  0  0  0  0  0  0  0  0  0
   -1.5719    1.8446   -5.6378 C   0  0  0  0  0  0  0  0  0  0  0  0
   -0.3601    2.1288   -5.0250 C   0  0  0  0  0  0  0  0  0  0  0  0
    0.2570    3.4936   -5.1169 C   0  0  0  0  0  0  0  0  0  0  0  0
   -0.3585    4.4286   -4.0741 C   0  0  0  0  0  0  0  0  0  0  0  0
    0.2527    1.1273   -4.2816 C   0  0  0  0  0  0  0  0  0  0  0  0
   -0.3238   -0.1215   -4.1731 C   0  0  0  0  0  0  0  0  0  0  0  0
   -3.3144   -2.1467   -5.4667 C   0  0  0  0  0  0  0  0  0  0  0  0
   -4.4301   -2.7182   -4.8695 C   0  0  0  0  0  0  0  0  0  0  0  0
   -5.5469   -3.0364   -5.6202 C   0  0  0  0  0  0  0  0  0  0  0  0
   -5.5792   -2.8058   -6.9879 C   0  0  0  0  0  0  0  0  0  0  0  0
   -6.7790   -3.1906   -7.8047 C   0  0  0  0  0  0  0  0  0  0  0  0
   -6.6709   -4.6475   -8.2591 C   0  0  0  0  0  0  0  0  0  0  0  0
   -4.4497   -2.2652   -7.5887 C   0  0  0  0  0  0  0  0  0  0  0  0
   -3.3318   -1.9448   -6.8427 C   0  0  0  0  0  0  0  0  0  0  0  0
   -0.9708   -2.7973   -5.0876 C   0  0  0  0  0  0  0  0  0  0  0  0
   -0.7238   -3.7440   -4.0732 C   0  0  0  0  0  0  0  0  0  0  0  0
   -1.4481   -3.3054   -2.9198 C   0  0  0  0  0  0  0  0  0  0  0  0
   -1.1722   -3.5675   -1.2482 S   0  0  0  0  0  0  0  0  0  0  0  0
    0.3146   -4.6686   -4.1604 C   0  0  0  0  0  0  0  0  0  0  0  0
    1.2292   -4.4747   -5.1667 C   0  0  0  0  0  0  0  0  0  0  0  0
    2.6460   -5.0453   -5.2387 C   0  0  0  0  0  0  0  0  0  0  0  0
    2.5552   -6.3526   -5.9957 C   0  0  0  0  0  0  0  0  0  0  0  0
    2.0012   -7.4714   -5.3835 C   0  0  0  0  0  0  0  0  0  0  0  0
    1.8817   -8.6627   -6.0719 C   0  0  0  0  0  0  0  0  0  0  0  0
    2.2996   -8.7707   -7.3926 C   0  0  0  0  0  0  0  0  0  0  0  0
    2.1298  -10.0567   -8.1489 C   0  0  0  0  0  0  0  0  0  0  0  0
    0.7420  -10.1191   -8.7901 C   0  0  0  0  0  0  0  0  0  0  0  0
    2.8229   -7.6441   -8.0104 C   0  0  0  0  0  0  0  0  0  0  0  0
    2.9453   -6.4490   -7.3241 C   0  0  0  0  0  0  0  0  0  0  0  0
    3.2737   -5.1394   -3.8622 C   0  0  0  0  0  0  0  0  0  0  0  0
    4.0292   -6.2225   -3.4436 C   0  0  0  0  0  0  0  0  0  0  0  0
    4.5921   -6.2372   -2.1786 C   0  0  0  0  0  0  0  0  0  0  0  0
    4.4258   -5.1713   -1.3078 C   0  0  0  0  0  0  0  0  0  0  0  0
    4.9796   -5.2072    0.0878 C   0  0  0  0  0  0  0  0  0  0  0  0
    3.8815   -5.5737    1.0883 C   0  0  0  0  0  0  0  0  0  0  0  0
    3.6907   -4.0744   -1.7416 C   0  0  0  0  0  0  0  0  0  0  0  0
    3.1293   -4.0561   -3.0007 C   0  0  0  0  0  0  0  0  0  0  0  0
    3.3301   -3.9303   -5.9996 C   0  0  0  0  0  0  0  0  0  0  0  0
    4.6010   -3.3371   -5.8906 C   0  0  0  0  0  0  0  0  0  0  0  0
    5.6566   -3.8944   -5.2260 O   0  0  0  0  0  0  0  0  0  0  0  0
    6.6508   -4.5166   -6.0327 C   0  0  0  0  0  0  0  0  0  0  0  0
    6.3511   -5.9855   -6.3029 C   0  0  0  0  0  0  0  0  0  0  0  0
    4.5954   -2.0071   -6.3194 C   0  0  0  0  0  0  0  0  0  0  0  0
    3.0545   -1.5872   -7.0523 S   0  0  0  0  0  0  0  0  0  0  0  0
    2.3834   -3.0923   -6.5589 C   0  0  0  0  0  0  0  0  0  0  0  0
    1.0675   -3.4221   -6.0965 C   0  0  0  0  0  0  0  0  0  0  0  0
   -0.0864   -2.6416   -6.1299 C   0  0  0  0  0  0  0  0  0  0  0  0
    5.3846   -0.9694   -5.6921 C   0  0  0  0  0  0  0  0  0  0  0  0
    4.6922    0.1752   -5.2458 C   0  0  0  0  0  0  0  0  0  0  0  0
    5.2194    0.9125   -4.2192 C   0  0  0  0  0  0  0  0  0  0  0  0
    4.5502    1.9677   -3.4155 C   0  0  0  0  0  0  0  0  0  0  0  0
    3.4867    2.4998   -3.6312 O   0  0  0  0  0  0  0  0  0  0  0  0
    5.4527    2.1609   -2.2509 C   0  0  0  0  0  0  0  0  0  0  0  0
    6.5995    1.3514   -2.4068 C   0  0  0  0  0  0  0  0  0  0  0  0
    6.4623    0.5868   -3.6357 C   0  0  0  0  0  0  0  0  0  0  0  0
    7.2288   -0.4153   -4.2032 C   0  0  0  0  0  0  0  0  0  0  0  0
    6.6867   -1.1830   -5.2245 C   0  0  0  0  0  0  0  0  0  0  0  0
    7.5387    1.2929   -1.3906 C   0  0  0  0  0  0  0  0  0  0  0  0
    7.2999    2.0010   -0.2250 C   0  0  0  0  0  0  0  0  0  0  0  0
    6.1670    2.8099   -0.0652 C   0  0  0  0  0  0  0  0  0  0  0  0
    5.2329    2.8948   -1.1116 C   0  0  0  0  0  0  0  0  0  0  0  0
    5.9231    3.4426    1.2080 C   0  0  0  0  0  0  0  0  0  0  0  0
    5.3439    4.6502    1.4159 C   0  0  0  0  0  0  0  0  0  0  0  0
    5.2180    5.7303    0.3953 C   0  0  0  0  0  0  0  0  0  0  0  0
    5.3853    5.6522   -0.8007 O   0  0  0  0  0  0  0  0  0  0  0  0
    4.9440    6.9598    1.1626 C   0  0  0  0  0  0  0  0  0  0  0  0
    4.8178    8.2473    0.6432 C   0  0  0  0  0  0  0  0  0  0  0  0
    4.5771    9.2118    1.5911 C   0  0  0  0  0  0  0  0  0  0  0  0
    4.4715    8.9207    2.9589 C   0  0  0  0  0  0  0  0  0  0  0  0
    4.5889    7.6569    3.4846 C   0  0  0  0  0  0  0  0  0  0  0  0
    4.8350    6.6578    2.5358 C   0  0  0  0  0  0  0  0  0  0  0  0
    5.0100    5.2222    2.7112 C   0  0  0  0  0  0  0  0  0  0  0  0
    4.8045    4.5120    3.8646 C   0  0  0  0  0  0  0  0  0  0  0  0
    4.8418    3.1033    3.9502 C   0  0  0  0  0  0  0  0  0  0  0  0
    4.8313    1.9627    4.0804 N   0  0  0  0  0  0  0  0  0  0  0  0
    4.5125    5.0978    5.1120 C   0  0  0  0  0  0  0  0  0  0  0  0
    4.3102    5.5304    6.1563 N   0  0  0  0  0  0  0  0  0  0  0  0
    4.2416   10.3645    3.3297 C   0  0  0  0  0  0  0  0  0  0  0  0
    5.4447   11.1219    3.9307 C   0  0  0  0  0  0  0  0  0  0  0  0
    5.0854   12.5782    3.7429 C   0  0  0  0  0  0  0  0  0  0  0  0
    5.1815   12.8539    2.4485 C   0  0  0  0  0  0  0  0  0  0  0  0
    5.6077   11.5887    1.7396 C   0  0  0  0  0  0  0  0  0  0  0  0
    6.4959   10.9653    2.8241 C   0  0  0  0  0  0  0  0  0  0  0  0
    4.3556   10.6883    1.8054 C   0  0  0  0  0  0  0  0  0  0  0  0
   -0.8012    0.6026    6.3131 H   0  0  0  0  0  0  0  0  0  0  0  0
   -6.8765    1.1027    7.8140 H   0  0  0  0  0  0  0  0  0  0  0  0
   -3.1258    1.6468   11.1722 H   0  0  0  0  0  0  0  0  0  0  0  0
   -6.0483    2.9218   12.4323 H   0  0  0  0  0  0  0  0  0  0  0  0
   -5.5739    0.5551   13.5599 H   0  0  0  0  0  0  0  0  0  0  0  0
   -7.7401    1.5745   14.6437 H   0  0  0  0  0  0  0  0  0  0  0  0
   -9.7380    1.2989   12.9148 H   0  0  0  0  0  0  0  0  0  0  0  0
   -8.8025    0.1079   10.7673 H   0  0  0  0  0  0  0  0  0  0  0  0
   -7.3214   -1.1612   12.5559 H   0  0  0  0  0  0  0  0  0  0  0  0
   -6.2580   -0.6129   11.2396 H   0  0  0  0  0  0  0  0  0  0  0  0
   -8.0052    2.6513   10.7376 H   0  0  0  0  0  0  0  0  0  0  0  0
   -1.2439    2.8052    4.2511 H   0  0  0  0  0  0  0  0  0  0  0  0
   -0.7932    4.6806    5.7638 H   0  0  0  0  0  0  0  0  0  0  0  0
    1.2918    4.6389    8.4629 H   0  0  0  0  0  0  0  0  0  0  0  0
    0.5954    5.8061    7.3321 H   0  0  0  0  0  0  0  0  0  0  0  0
    2.3261    5.4221    7.2754 H   0  0  0  0  0  0  0  0  0  0  0  0
    2.8862    2.8669    6.9328 H   0  0  0  0  0  0  0  0  0  0  0  0
    2.4352    0.9764    5.4350 H   0  0  0  0  0  0  0  0  0  0  0  0
    1.2341   -1.8347    3.5417 H   0  0  0  0  0  0  0  0  0  0  0  0
    3.1345   -2.4498    2.1080 H   0  0  0  0  0  0  0  0  0  0  0  0
    5.5631   -0.1922    0.8453 H   0  0  0  0  0  0  0  0  0  0  0  0
    4.9612   -1.8484    0.6991 H   0  0  0  0  0  0  0  0  0  0  0  0
    4.4528   -0.6070   -0.4529 H   0  0  0  0  0  0  0  0  0  0  0  0
    3.6739    1.6457    1.0484 H   0  0  0  0  0  0  0  0  0  0  0  0
    1.7793    2.2674    2.4927 H   0  0  0  0  0  0  0  0  0  0  0  0
   -6.4428   -1.4886   -0.7897 H   0  0  0  0  0  0  0  0  0  0  0  0
   -7.0292   -3.2346   -2.4072 H   0  0  0  0  0  0  0  0  0  0  0  0
   -5.7075   -6.6598   -2.3467 H   0  0  0  0  0  0  0  0  0  0  0  0
   -6.8824   -5.5732   -3.1015 H   0  0  0  0  0  0  0  0  0  0  0  0
   -5.1971   -5.5609   -3.6260 H   0  0  0  0  0  0  0  0  0  0  0  0
   -3.9745   -5.7468   -0.8094 H   0  0  0  0  0  0  0  0  0  0  0  0
   -3.4058   -4.0173    0.8297 H   0  0  0  0  0  0  0  0  0  0  0  0
   -6.8449   -2.3284    1.9832 H   0  0  0  0  0  0  0  0  0  0  0  0
   -8.5429   -0.8358    2.9483 H   0  0  0  0  0  0  0  0  0  0  0  0
   -8.5019    2.8003    2.7051 H   0  0  0  0  0  0  0  0  0  0  0  0
   -8.1141    2.0923    4.2708 H   0  0  0  0  0  0  0  0  0  0  0  0
   -9.4049    1.3934    3.2911 H   0  0  0  0  0  0  0  0  0  0  0  0
   -6.0582    2.5313    2.1259 H   0  0  0  0  0  0  0  0  0  0  0  0
   -4.3648    1.0426    1.1431 H   0  0  0  0  0  0  0  0  0  0  0  0
   -3.7707    0.2331   -3.7507 H   0  0  0  0  0  0  0  0  0  0  0  0
   -4.9840   -0.8132   -2.9683 H   0  0  0  0  0  0  0  0  0  0  0  0
   -4.2735    2.0390   -2.1197 H   0  0  0  0  0  0  0  0  0  0  0  0
   -5.4728    1.0125   -1.3301 H   0  0  0  0  0  0  0  0  0  0  0  0
   -5.7365    1.5595   -2.9958 H   0  0  0  0  0  0  0  0  0  0  0  0
   -3.0980    0.4061   -6.0246 H   0  0  0  0  0  0  0  0  0  0  0  0
   -2.0709    2.6099   -6.2160 H   0  0  0  0  0  0  0  0  0  0  0  0
    0.0950    3.9093   -6.1142 H   0  0  0  0  0  0  0  0  0  0  0  0
    1.3305    3.4202   -4.9380 H   0  0  0  0  0  0  0  0  0  0  0  0
   -1.4317    4.5231   -4.2296 H   0  0  0  0  0  0  0  0  0  0  0  0
    0.0914    5.4166   -4.1385 H   0  0  0  0  0  0  0  0  0  0  0  0
   -0.1892    4.0353   -3.0745 H   0  0  0  0  0  0  0  0  0  0  0  0
    1.1942    1.3328   -3.7933 H   0  0  0  0  0  0  0  0  0  0  0  0
    0.1711   -0.8896   -3.5946 H   0  0  0  0  0  0  0  0  0  0  0  0
   -4.4281   -2.9259   -3.8091 H   0  0  0  0  0  0  0  0  0  0  0  0
   -6.4071   -3.4723   -5.1326 H   0  0  0  0  0  0  0  0  0  0  0  0
   -7.6868   -3.0658   -7.2106 H   0  0  0  0  0  0  0  0  0  0  0  0
   -6.8533   -2.5446   -8.6818 H   0  0  0  0  0  0  0  0  0  0  0  0
   -5.7762   -4.7899   -8.8613 H   0  0  0  0  0  0  0  0  0  0  0  0
   -7.5382   -4.9275   -8.8526 H   0  0  0  0  0  0  0  0  0  0  0  0
   -6.6105   -5.3089   -7.3976 H   0  0  0  0  0  0  0  0  0  0  0  0
   -4.4445   -2.0931   -8.6558 H   0  0  0  0  0  0  0  0  0  0  0  0
   -2.4642   -1.5357   -7.3374 H   0  0  0  0  0  0  0  0  0  0  0  0
    0.4811   -5.3808   -3.3670 H   0  0  0  0  0  0  0  0  0  0  0  0
    1.6647   -7.4078   -4.3596 H   0  0  0  0  0  0  0  0  0  0  0  0
    1.4567   -9.5242   -5.5764 H   0  0  0  0  0  0  0  0  0  0  0  0
    2.2508  -10.9039   -7.4707 H   0  0  0  0  0  0  0  0  0  0  0  0
    2.8904  -10.1318   -8.9287 H   0  0  0  0  0  0  0  0  0  0  0  0
   -0.0303  -10.0568   -8.0267 H   0  0  0  0  0  0  0  0  0  0  0  0
    0.6068   -9.2890   -9.4800 H   0  0  0  0  0  0  0  0  0  0  0  0
    0.6164  -11.0504   -9.3374 H   0  0  0  0  0  0  0  0  0  0  0  0
    3.1403   -7.6999   -9.0423 H   0  0  0  0  0  0  0  0  0  0  0  0
    3.3388   -5.5808   -7.8344 H   0  0  0  0  0  0  0  0  0  0  0  0
    4.1798   -7.0658   -4.1016 H   0  0  0  0  0  0  0  0  0  0  0  0
    5.1721   -7.0952   -1.8675 H   0  0  0  0  0  0  0  0  0  0  0  0
    5.7870   -5.9391    0.1515 H   0  0  0  0  0  0  0  0  0  0  0  0
    5.3891   -4.2275    0.3456 H   0  0  0  0  0  0  0  0  0  0  0  0
    3.4920   -6.5662    0.8729 H   0  0  0  0  0  0  0  0  0  0  0  0
    4.2712   -5.5669    2.1039 H   0  0  0  0  0  0  0  0  0  0  0  0
    3.0581   -4.8656    1.0234 H   0  0  0  0  0  0  0  0  0  0  0  0
    3.5553   -3.2254   -1.0872 H   0  0  0  0  0  0  0  0  0  0  0  0
    2.5677   -3.1894   -3.3207 H   0  0  0  0  0  0  0  0  0  0  0  0
    7.5782   -4.4311   -5.4577 H   0  0  0  0  0  0  0  0  0  0  0  0
    6.7652   -3.9707   -6.9793 H   0  0  0  0  0  0  0  0  0  0  0  0
    7.1561   -6.4190   -6.8906 H   0  0  0  0  0  0  0  0  0  0  0  0
    5.4166   -6.0986   -6.8459 H   0  0  0  0  0  0  0  0  0  0  0  0
    6.2693   -6.5203   -5.3609 H   0  0  0  0  0  0  0  0  0  0  0  0
   -0.1780   -1.8368   -6.8432 H   0  0  0  0  0  0  0  0  0  0  0  0
    3.7077    0.4076   -5.6236 H   0  0  0  0  0  0  0  0  0  0  0  0
    8.2146   -0.6438   -3.8268 H   0  0  0  0  0  0  0  0  0  0  0  0
    7.2688   -1.9948   -5.6267 H   0  0  0  0  0  0  0  0  0  0  0  0
    8.4224    0.6800   -1.4846 H   0  0  0  0  0  0  0  0  0  0  0  0
    8.0089    1.9374    0.5887 H   0  0  0  0  0  0  0  0  0  0  0  0
    4.3277    3.4704   -1.0060 H   0  0  0  0  0  0  0  0  0  0  0  0
    6.2584    2.8797    2.0724 H   0  0  0  0  0  0  0  0  0  0  0  0
    4.9035    8.4260   -0.4172 H   0  0  0  0  0  0  0  0  0  0  0  0
    4.5066    7.4478    4.5380 H   0  0  0  0  0  0  0  0  0  0  0  0
    3.3051   10.5798    3.8406 H   0  0  0  0  0  0  0  0  0  0  0  0
    5.7225   10.8115    4.9342 H   0  0  0  0  0  0  0  0  0  0  0  0
    4.7558   13.2219    4.5371 H   0  0  0  0  0  0  0  0  0  0  0  0
    4.9480   13.7739    1.9454 H   0  0  0  0  0  0  0  0  0  0  0  0
    6.0343   11.7038    0.7468 H   0  0  0  0  0  0  0  0  0  0  0  0
    7.3876   11.5593    3.0170 H   0  0  0  0  0  0  0  0  0  0  0  0
    6.7816    9.9339    2.6254 H   0  0  0  0  0  0  0  0  0  0  0  0
    3.4942   11.1186    1.2981 H   0  0  0  0  0  0  0  0  0  0  0  0
  1  2  2  0  0  0  0
  2  3  1  0  0  0  0
  3  4  2  0  0  0  0
  3  5  1  0  0  0  0
  5  6  2  0  0  0  0
  6  7  1  0  0  0  0
  7  8  2  0  0  0  0
  8  9  1  0  0  0  0
  9 10  2  0  0  0  0
 10 11  1  0  0  0  0
 11 12  2  0  0  0  0
 12 13  1  0  0  0  0
 13 14  3  0  0  0  0
 12 15  1  0  0  0  0
 15 16  3  0  0  0  0
  8 17  1  0  0  0  0
 17 18  1  0  0  0  0
 18 19  1  0  0  0  0
 19 20  2  0  0  0  0
 20 21  1  0  0  0  0
 21 22  1  0  0  0  0
 21 23  1  0  0  0  0
  1 24  1  0  0  0  0
 24 25  2  0  0  0  0
 25 26  1  0  0  0  0
 26 27  1  0  0  0  0
 27 28  2  0  0  0  0
 28 29  1  0  0  0  0
 29 30  2  0  0  0  0
 30 31  1  0  0  0  0
 30 32  1  0  0  0  0
 32 33  2  0  0  0  0
 26 34  1  0  0  0  0
 34 35  2  0  0  0  0
 35 36  1  0  0  0  0
 36 37  2  0  0  0  0
 37 38  1  0  0  0  0
 37 39  1  0  0  0  0
 39 40  2  0  0  0  0
 25 41  1  0  0  0  0
 41 42  1  0  0  0  0
 42 43  1  0  0  0  0
 43 44  2  0  0  0  0
 44 45  1  0  0  0  0
 45 46  1  0  0  0  0
 46 47  2  0  0  0  0
 47 48  1  0  0  0  0
 48 49  2  0  0  0  0
 49 50  1  0  0  0  0
 49 51  1  0  0  0  0
 51 52  2  0  0  0  0
 45 53  1  0  0  0  0
 53 54  2  0  0  0  0
 54 55  1  0  0  0  0
 55 56  2  0  0  0  0
 56 57  1  0  0  0  0
 56 58  1  0  0  0  0
 58 59  2  0  0  0  0
 44 60  1  0  0  0  0
 60 61  1  0  0  0  0
 43 62  1  0  0  0  0
 62 63  2  0  0  0  0
 63 64  1  0  0  0  0
 64 65  1  0  0  0  0
 65 66  1  0  0  0  0
 63 67  1  0  0  0  0
 67 68  1  0  0  0  0
 68 69  1  0  0  0  0
 69 70  2  0  0  0  0
 70 71  1  0  0  0  0
 71 72  2  0  0  0  0
 72 73  1  0  0  0  0
 73 74  1  0  0  0  0
 72 75  1  0  0  0  0
 75 76  2  0  0  0  0
 68 77  1  0  0  0  0
 77 78  2  0  0  0  0
 78 79  1  0  0  0  0
 79 80  2  0  0  0  0
 80 81  1  0  0  0  0
 81 82  1  0  0  0  0
 80 83  1  0  0  0  0
 83 84  2  0  0  0  0
 68 85  1  0  0  0  0
 85 86  2  0  0  0  0
 86 87  1  0  0  0  0
 87 88  1  0  0  0  0
 86 89  1  0  0  0  0
 89 90  2  0  0  0  0
 90 91  1  0  0  0  0
 91 92  1  0  0  0  0
 92 93  2  0  0  0  0
 93 94  1  0  0  0  0
 94 95  2  0  0  0  0
 95 96  1  0  0  0  0
 96 97  1  0  0  0  0
 95 98  1  0  0  0  0
 98 99  2  0  0  0  0
 91100  1  0  0  0  0
100101  2  0  0  0  0
101102  1  0  0  0  0
102103  2  0  0  0  0
103104  1  0  0  0  0
104105  1  0  0  0  0
103106  1  0  0  0  0
106107  2  0  0  0  0
 91108  1  0  0  0  0
108109  1  0  0  0  0
109110  1  0  0  0  0
110111  1  0  0  0  0
111112  1  0  0  0  0
109113  2  0  0  0  0
113114  1  0  0  0  0
114115  1  0  0  0  0
115116  1  0  0  0  0
116117  2  0  0  0  0
113118  1  0  0  0  0
118119  2  0  0  0  0
119120  1  0  0  0  0
120121  1  0  0  0  0
121122  2  0  0  0  0
121123  1  0  0  0  0
123124  2  0  0  0  0
124125  1  0  0  0  0
125126  1  0  0  0  0
126127  2  0  0  0  0
124128  1  0  0  0  0
128129  2  0  0  0  0
129130  1  0  0  0  0
130131  2  0  0  0  0
130132  1  0  0  0  0
132133  2  0  0  0  0
133134  1  0  0  0  0
134135  2  0  0  0  0
134136  1  0  0  0  0
136137  2  0  0  0  0
137138  1  0  0  0  0
138139  2  0  0  0  0
139140  1  0  0  0  0
140141  2  0  0  0  0
141142  1  0  0  0  0
142143  2  0  0  0  0
143144  1  0  0  0  0
144145  3  0  0  0  0
143146  1  0  0  0  0
146147  3  0  0  0  0
139148  1  0  0  0  0
148149  1  0  0  0  0
149150  1  0  0  0  0
150151  2  0  0  0  0
151152  1  0  0  0  0
152153  1  0  0  0  0
152154  1  0  0  0  0
 11  2  1  0  0  0  0
 23 17  1  0  0  0  0
 61 24  1  0  0  0  0
 88 62  1  0  0  0  0
116 90  1  0  0  0  0
127118  1  0  0  0  0
142133  1  0  0  0  0
154148  1  0  0  0  0
 10  5  1  0  0  0  0
 22 18  1  0  0  0  0
 33 27  1  0  0  0  0
 40 34  1  0  0  0  0
 60 41  2  0  0  0  0
 87 67  2  0  0  0  0
 99 92  1  0  0  0  0
107100  1  0  0  0  0
115108  2  0  0  0  0
125120  2  0  0  0  0
141136  1  0  0  0  0
153149  1  0  0  0  0
 23  7  1  0  0  0  0
 52 46  1  0  0  0  0
 59 53  1  0  0  0  0
 76 69  1  0  0  0  0
 84 77  1  0  0  0  0
117 85  1  0  0  0  0
131123  1  0  0  0  0
154138  1  0  0  0  0
  1155  1  0  0  0  0
  6156  1  0  0  0  0
  9157  1  0  0  0  0
 17158  1  0  0  0  0
 18159  1  0  0  0  0
 19160  1  0  0  0  0
 20161  1  0  0  0  0
 21162  1  0  0  0  0
 22163  1  0  0  0  0
 22164  1  0  0  0  0
 23165  1  0  0  0  0
 28166  1  0  0  0  0
 29167  1  0  0  0  0
 31168  1  0  0  0  0
 31169  1  0  0  0  0
 31170  1  0  0  0  0
 32171  1  0  0  0  0
 33172  1  0  0  0  0
 35173  1  0  0  0  0
 36174  1  0  0  0  0
 38175  1  0  0  0  0
 38176  1  0  0  0  0
 38177  1  0  0  0  0
 39178  1  0  0  0  0
 40179  1  0  0  0  0
 47180  1  0  0  0  0
 48181  1  0  0  0  0
 50182  1  0  0  0  0
 50183  1  0  0  0  0
 50184  1  0  0  0  0
 51185  1  0  0  0  0
 52186  1  0  0  0  0
 54187  1  0  0  0  0
 55188  1  0  0  0  0
 57189  1  0  0  0  0
 57190  1  0  0  0  0
 57191  1  0  0  0  0
 58192  1  0  0  0  0
 59193  1  0  0  0  0
 65194  1  0  0  0  0
 65195  1  0  0  0  0
 66196  1  0  0  0  0
 66197  1  0  0  0  0
 66198  1  0  0  0  0
 70199  1  0  0  0  0
 71200  1  0  0  0  0
 73201  1  0  0  0  0
 73202  1  0  0  0  0
 74203  1  0  0  0  0
 74204  1  0  0  0  0
 74205  1  0  0  0  0
 75206  1  0  0  0  0
 76207  1  0  0  0  0
 78208  1  0  0  0  0
 79209  1  0  0  0  0
 81210  1  0  0  0  0
 81211  1  0  0  0  0
 82212  1  0  0  0  0
 82213  1  0  0  0  0
 82214  1  0  0  0  0
 83215  1  0  0  0  0
 84216  1  0  0  0  0
 89217  1  0  0  0  0
 93218  1  0  0  0  0
 94219  1  0  0  0  0
 96220  1  0  0  0  0
 96221  1  0  0  0  0
 97222  1  0  0  0  0
 97223  1  0  0  0  0
 97224  1  0  0  0  0
 98225  1  0  0  0  0
 99226  1  0  0  0  0
101227  1  0  0  0  0
102228  1  0  0  0  0
104229  1  0  0  0  0
104230  1  0  0  0  0
105231  1  0  0  0  0
105232  1  0  0  0  0
105233  1  0  0  0  0
106234  1  0  0  0  0
107235  1  0  0  0  0
111236  1  0  0  0  0
111237  1  0  0  0  0
112238  1  0  0  0  0
112239  1  0  0  0  0
112240  1  0  0  0  0
117241  1  0  0  0  0
119242  1  0  0  0  0
126243  1  0  0  0  0
127244  1  0  0  0  0
128245  1  0  0  0  0
129246  1  0  0  0  0
131247  1  0  0  0  0
132248  1  0  0  0  0
137249  1  0  0  0  0
140250  1  0  0  0  0
148251  1  0  0  0  0
149252  1  0  0  0  0
150253  1  0  0  0  0
151254  1  0  0  0  0
152255  1  0  0  0  0
153256  1  0  0  0  0
153257  1  0  0  0  0
154258  1  0  0  0  0
M  END
