265

C          9.36790        7.38920       -2.37850
C          9.29690        8.17860       -1.25040
C          8.06500        8.38700       -0.47410
O          6.97280        7.88570       -0.67040
C          8.38750        9.43880        0.51370
C          7.53370        9.98510        1.46690
C          8.12130       10.94040        2.26260
C          9.45680       11.33180        2.11430
C         10.30880       10.80450        1.17210
C          9.73190        9.82690        0.35890
C         10.31920        9.03380       -0.71930
C         11.65220        8.98330       -1.05040
C         12.65720        9.74320       -0.42660
N         13.52560       10.32140        0.05620
C         12.19190        8.09270       -1.99890
N         12.70490        7.37090       -2.73110
C          9.37080       12.33970        3.23440
C          9.24710       13.82140        2.82190
C          8.70560       14.49830        4.06030
C          7.43990       14.12620        4.20270
C          7.10480       13.19180        3.06270
C          7.97950       13.79860        1.95800
C          7.88050       11.90130        3.40150
C          8.54580        6.29570       -2.66170
C          7.82310        5.43120       -1.81210
N          7.86720        5.38640       -0.44710
C          6.76530        4.84130        0.24760
C          6.97110        3.90890        1.25820
C          5.88880        3.35780        1.91650
C          4.58860        3.71930        1.58540
C          3.41530        3.08650        2.26860
C          4.39720        4.67050        0.58960
C          5.46900        5.23210       -0.07420
C          8.96400        5.83300        0.30040
C          8.75420        6.49970        1.50570
C          9.82740        6.98250        2.23080
C         11.13060        6.81050        1.78470
C         12.29420        7.37300        2.53860
C         11.33370        6.10140        0.60270
C         10.27220        5.61860       -0.13260
C          7.09350        4.49280       -2.57640
S          6.01350        3.19800       -2.18730
C          5.81030        2.80950       -3.88750
C          6.55540        3.63490       -4.70830
N          6.52450        3.63630       -6.11780
C          7.70210        3.37230       -6.81850
C          7.70060        3.40800       -8.21320
C          8.84280        3.10660       -8.92310
C         10.02340        2.75570       -8.27870
C         11.26430        2.45470       -9.06420
C         10.01370        2.69750       -6.89380
C          8.87330        2.98810       -6.17050
C          5.57950        4.55290       -6.65220
C          4.21980        4.31710       -6.49900
C          3.29600        5.21980       -6.99430
C          3.70110        6.37440       -7.64830
C          2.70670        7.34950       -8.20100
C          5.06540        6.61060       -7.78340
C          5.99530        5.72050       -7.28750
C          7.28210        4.58040       -3.94890
S          8.38530        5.83580       -4.36500
C          4.84580        1.81010       -4.21300
C          4.71300        1.01160       -5.33080
C          5.71360        0.79700       -6.37850
C          5.35430        0.86640       -7.71970
C          6.27850        0.53960       -8.69300
C          7.54570        0.11330       -8.33790
C          7.91750        0.03220       -7.00260
C          9.26380       -0.50680       -6.61570
C          9.20540       -2.02960       -6.47680
C          6.99660        0.39050       -6.03070
C          3.50980        0.27570       -5.29040
S          2.80260       -0.88170       -6.39180
C          1.49260       -1.10020       -5.27950
C          0.33090       -1.87730       -5.13740
C         -0.19310       -2.91000       -5.94400
C         -1.33150       -3.64540       -5.47400
N         -1.67940       -4.62170       -6.29810
S         -0.66670       -4.60950       -7.56220
N          0.25800       -3.36180       -7.10380
C         -1.95200       -3.24700       -4.27080
C         -3.10220       -3.72890       -3.62390
S         -4.24910       -5.01950       -3.76420
C         -5.02060       -4.45740       -2.30200
C         -6.05710       -4.99530       -1.51160
C         -6.80730       -6.19330       -1.89730
C         -8.19070       -6.14720       -2.03070
C         -8.87890       -7.27110       -2.44560
C         -8.19670       -8.44010       -2.73190
C         -6.81380       -8.49990       -2.61380
C         -6.05630       -9.73980       -2.99240
C         -5.57370       -9.63820       -4.44080
C         -6.12930       -7.36770       -2.19930
C         -6.21460       -4.28390       -0.34130
S         -5.19220       -2.84820       -0.29260
C         -4.42750       -3.31620       -1.76700
C         -3.32300       -2.90210       -2.52170
N         -2.34760       -1.94690       -2.44520
C         -1.47560       -2.14500       -3.50510
C         -0.26040       -1.51990       -3.89290
N          0.54170       -0.56130       -3.29170
C          1.59920       -0.31980       -4.12750
C          2.75370        0.47260       -4.13420
S          3.50890        1.61450       -3.08070
C          0.63850       -0.17040       -1.90350
C          0.88490       -1.37850       -1.00310
C         -2.55100       -0.79460       -1.59760
C         -2.80940        0.46690       -2.41800
C         -6.88820       -4.66870        0.86190
C         -6.31620       -4.68380        2.12860
N         -5.00100       -4.37570        2.43890
C         -4.75690       -3.78210        3.69220
C         -5.57030       -2.74500        4.13940
C         -5.37970       -2.20810        5.39640
C         -4.37470       -2.68040        6.23050
C         -4.21830       -2.13870        7.61720
C         -3.54630       -3.69250        5.76160
C         -3.73040       -4.24310        4.50940
C         -3.93410       -4.71130        1.60220
C         -2.81010       -3.88670        1.54890
C         -1.78850       -4.15480        0.66120
C         -1.84960       -5.24360       -0.19940
C         -0.77480       -5.49880       -1.21130
C         -2.95080       -6.08670       -0.10820
C         -3.97780       -5.83660        0.77970
C         -7.24350       -5.12100        3.10510
S         -7.16910       -5.26650        4.82270
C         -8.81930       -5.89270        4.84690
C         -9.40920       -5.88940        3.55520
N        -10.70780       -6.22350        3.27560
C        -11.76020       -5.91220        4.15840
C        -11.74910       -4.71850        4.87590
C        -12.76860       -4.43530        5.76250
C        -13.82880       -5.31600        5.94230
C        -14.92300       -5.02750        6.92320
C        -13.84940       -6.48640        5.19240
C        -12.83010       -6.79040        4.31270
C        -11.01570       -6.83650        2.04720
C        -10.19200       -7.83300        1.53170
C        -10.52470       -8.46630        0.35030
C        -11.68410       -8.13410       -0.33820
C        -12.08670       -8.86400       -1.58290
C        -12.49050       -7.12300        0.17410
C        -12.16430       -6.47570        1.34760
C         -8.48390       -5.46840        2.58570
S         -8.54150       -5.26370        0.86410
C         -9.43470       -6.43750        5.97090
C         -9.03010       -6.46300        7.28830
C         -7.87720       -5.76040        7.85930
O         -7.01120       -5.13470        7.27020
C         -7.97830       -5.93650        9.31910
C         -7.14950       -5.46490       10.31680
C         -7.45970       -5.77400       11.63270
C         -8.57660       -6.54140       11.94960
C         -8.88100       -6.88810       13.37300
C         -9.40810       -7.01530       10.93370
C         -9.11130       -6.71270        9.61770
C         -9.77020       -7.07830        8.36240
C        -10.87490       -7.88970        8.25730
C        -11.42970       -8.36790        7.05560
N        -11.92780       -8.83350        6.12930
C        -11.59810       -8.38760        9.35840
N        -12.24660       -8.80950       10.20820
H         10.09330        7.64150       -3.14300
H          6.50970        9.65520        1.54960
H         11.33320       11.11960        1.06300
H         10.05550       12.18580        4.06650
H         10.14500       14.24840        2.38360
H          9.29540       15.11300        4.71480
H          6.76140       14.36790        5.00000
H          6.05040       13.04580        2.84330
H          8.06120       13.17910        1.06700
H          7.65400       14.79920        1.67790
H          7.57220       11.45530        4.34570
H          7.97800        3.61570        1.51780
H          6.05840        2.62790        2.69480
H          2.60900        3.80490        2.39870
H          3.69660        2.68990        3.24100
H          3.03630        2.26310        1.66220
H          3.39400        4.97810        0.33270
H          5.32150        5.99150       -0.82600
H          7.74530        6.64970        1.85970
H          9.64350        7.51780        3.15120
H         12.77200        8.16440        1.96060
H         13.04150        6.60240        2.72030
H         11.97680        7.78850        3.49140
H         12.34080        5.93410        0.24940
H         10.45480        5.07720       -1.04880
H          6.79280        3.66430       -8.73770
H          8.81650        3.14120      -10.00300
H         11.03190        1.84020       -9.93230
H         11.71700        3.37950       -9.42330
H         11.99670        1.93560       -8.45050
H         10.91380        2.41920       -6.36420
H          8.89900        2.90780       -5.09430
H          3.88460        3.42470       -5.99580
H          2.24160        5.01690       -6.87090
H          1.69410        7.08010       -7.91200
H          2.91820        8.35540       -7.84150
H          2.76190        7.36790       -9.28930
H          5.40240        7.51220       -8.27470
H          7.05170        5.92440       -7.38550
H          4.35970        1.18560       -7.99320
H          6.00370        0.60360       -9.73540
H          8.25620       -0.16030       -9.10410
H          9.99820       -0.24010       -7.37710
H          9.57950       -0.06920       -5.66740
H          8.48640       -2.31270       -5.71120
H         10.18050       -2.42500       -6.20150
H          8.89860       -2.48360       -7.41630
H          7.26510        0.32620       -4.98520
H         -8.71880       -5.22530       -1.83850
H         -9.95120       -7.22700       -2.55250
H         -8.73920       -9.31480       -3.06250
H         -6.69680      -10.61730       -2.88420
H         -5.19360       -9.86300       -2.33420
H         -6.42160       -9.53860       -5.11480
H         -4.93490       -8.76690       -4.56650
H         -5.01140      -10.52670       -4.71840
H         -5.05370       -7.39610       -2.10470
H         -0.24680        0.38640       -1.59600
H          1.48820        0.51350       -1.83220
H          1.83270       -1.84560       -1.26140
H          0.92420       -1.06700        0.03770
H          0.09750       -2.11890       -1.12380
H         -1.71290       -0.66550       -0.91210
H         -3.42970       -1.01440       -0.98610
H         -2.94480        1.31880       -1.75690
H         -1.98390        0.67280       -3.09540
H         -3.71150        0.34320       -3.01260
H         -6.35650       -2.37280        3.49800
H         -6.02720       -1.41380        5.73860
H         -3.20070       -2.26920        7.97790
H         -4.47750       -1.08280        7.65660
H         -4.88990       -2.67550        8.28750
H         -2.75670       -4.07100        6.39450
H         -3.09340       -5.04390        4.16300
H         -2.76030       -3.02040        2.19170
H         -0.93150       -3.49680        0.63050
H         -0.54640       -6.56090       -1.27260
H          0.13500       -4.95820       -0.96030
H         -1.10370       -5.17340       -2.19960
H         -3.00240       -6.95710       -0.74630
H         -4.82130       -6.50920        0.83550
H        -10.93380       -4.02220        4.74410
H        -12.74110       -3.51010        6.32000
H        -15.89670       -5.09170        6.44020
H        -14.90490       -5.76040        7.72970
H        -14.81030       -4.03610        7.35470
H        -14.66510       -7.18270        5.31520
H        -12.84820       -7.71490        3.75790
H         -9.30260       -8.12350        2.07130
H         -9.87730       -9.24110       -0.03310
H        -11.25670       -9.43990       -1.98310
H        -12.43970       -8.17010       -2.34390
H        -12.90300       -9.55190       -1.36050
H        -13.38930       -6.84050       -0.35480
H        -12.79940       -5.69210        1.73340
H        -10.38520       -6.91300        5.76590
H         -6.28180       -4.87350       10.06700
H         -6.82410       -5.41560       12.42940
H         -9.95430       -6.95750       13.53290
H         -8.44490       -7.85770       13.61590
H         -8.46420       -6.15030       14.05410
H        -10.26950       -7.60950       11.19330
