
  xtb     02152221463D
 energy: -371.664766600714 gnorm: 0.000489175087 xtb: 6.4.1 (unknown)
229256  0     0  0            999 V2000
    0.8976   -8.2186   -6.4749 C   0  0  0  0  0  0  0  0  0  0  0  0
    1.5608   -8.0054   -7.6635 C   0  0  0  0  0  0  0  0  0  0  0  0
    2.8726   -7.3766   -7.8209 C   0  0  0  0  0  0  0  0  0  0  0  0
    3.5831   -6.8986   -6.9514 O   0  0  0  0  0  0  0  0  0  0  0  0
    3.1994   -7.4550   -9.2568 C   0  0  0  0  0  0  0  0  0  0  0  0
    4.3384   -6.9601   -9.8867 C   0  0  0  0  0  0  0  0  0  0  0  0
    4.3566   -7.1612  -11.2463 C   0  0  0  0  0  0  0  0  0  0  0  0
    3.3185   -7.8079  -11.9279 C   0  0  0  0  0  0  0  0  0  0  0  0
    2.1882   -8.2992  -11.3175 C   0  0  0  0  0  0  0  0  0  0  0  0
    2.1496   -8.1056   -9.9340 C   0  0  0  0  0  0  0  0  0  0  0  0
    1.1110   -8.4475   -8.9605 C   0  0  0  0  0  0  0  0  0  0  0  0
   -0.0874   -9.0501   -9.2642 C   0  0  0  0  0  0  0  0  0  0  0  0
   -1.1553   -9.2541   -8.3704 C   0  0  0  0  0  0  0  0  0  0  0  0
   -2.0925   -9.4253   -7.7256 N   0  0  0  0  0  0  0  0  0  0  0  0
   -0.4384   -9.5321  -10.5404 C   0  0  0  0  0  0  0  0  0  0  0  0
   -0.7918   -9.9701  -11.5422 N   0  0  0  0  0  0  0  0  0  0  0  0
    3.9964   -7.6587  -13.2676 C   0  0  0  0  0  0  0  0  0  0  0  0
    4.6915   -8.9143  -13.8349 C   0  0  0  0  0  0  0  0  0  0  0  0
    5.6448   -8.3627  -14.8701 C   0  0  0  0  0  0  0  0  0  0  0  0
    6.6284   -7.7478  -14.2258 C   0  0  0  0  0  0  0  0  0  0  0  0
    6.3564   -7.8738  -12.7441 C   0  0  0  0  0  0  0  0  0  0  0  0
    5.6840   -9.2525  -12.7150 C   0  0  0  0  0  0  0  0  0  0  0  0
    5.1542   -6.9356  -12.5075 C   0  0  0  0  0  0  0  0  0  0  0  0
    1.1889   -7.7721   -5.1884 C   0  0  0  0  0  0  0  0  0  0  0  0
    0.3565   -8.0502   -4.0722 C   0  0  0  0  0  0  0  0  0  0  0  0
   -0.6560   -8.9705   -4.0492 N   0  0  0  0  0  0  0  0  0  0  0  0
   -0.5666  -10.2042   -4.7210 C   0  0  0  0  0  0  0  0  0  0  0  0
    0.6538  -10.8650   -4.8356 C   0  0  0  0  0  0  0  0  0  0  0  0
    0.7254  -12.0732   -5.4997 C   0  0  0  0  0  0  0  0  0  0  0  0
   -0.4091  -12.6596   -6.0482 C   0  0  0  0  0  0  0  0  0  0  0  0
   -0.3329  -13.9613   -6.7848 C   0  0  0  0  0  0  0  0  0  0  0  0
   -1.6264  -12.0041   -5.9046 C   0  0  0  0  0  0  0  0  0  0  0  0
   -1.7123  -10.7898   -5.2540 C   0  0  0  0  0  0  0  0  0  0  0  0
   -1.7639   -8.7353   -3.2119 C   0  0  0  0  0  0  0  0  0  0  0  0
   -2.3653   -7.4796   -3.1923 C   0  0  0  0  0  0  0  0  0  0  0  0
   -3.4447   -7.2431   -2.3658 C   0  0  0  0  0  0  0  0  0  0  0  0
   -3.9554   -8.2455   -1.5489 C   0  0  0  0  0  0  0  0  0  0  0  0
   -5.1124   -7.9689   -0.6396 C   0  0  0  0  0  0  0  0  0  0  0  0
   -3.3555   -9.4984   -1.5855 C   0  0  0  0  0  0  0  0  0  0  0  0
   -2.2711   -9.7469   -2.4032 C   0  0  0  0  0  0  0  0  0  0  0  0
    0.7166   -7.2535   -2.9719 C   0  0  0  0  0  0  0  0  0  0  0  0
    0.0768   -7.0337   -1.3729 S   0  0  0  0  0  0  0  0  0  0  0  0
    1.3578   -5.8921   -1.0089 C   0  0  0  0  0  0  0  0  0  0  0  0
    2.2001   -5.6624   -2.0856 C   0  0  0  0  0  0  0  0  0  0  0  0
    3.2340   -4.7388   -2.1113 N   0  0  0  0  0  0  0  0  0  0  0  0
    4.4174   -5.0770   -2.7846 C   0  0  0  0  0  0  0  0  0  0  0  0
    5.1323   -4.1166   -3.4948 C   0  0  0  0  0  0  0  0  0  0  0  0
    6.2894   -4.4661   -4.1607 C   0  0  0  0  0  0  0  0  0  0  0  0
    6.7601   -5.7734   -4.1496 C   0  0  0  0  0  0  0  0  0  0  0  0
    7.9961   -6.1512   -4.9067 C   0  0  0  0  0  0  0  0  0  0  0  0
    6.0383   -6.7255   -3.4423 C   0  0  0  0  0  0  0  0  0  0  0  0
    4.8848   -6.3879   -2.7647 C   0  0  0  0  0  0  0  0  0  0  0  0
    3.0843   -3.4888   -1.4994 C   0  0  0  0  0  0  0  0  0  0  0  0
    1.8509   -2.8419   -1.4966 C   0  0  0  0  0  0  0  0  0  0  0  0
    1.6872   -1.6497   -0.8171 C   0  0  0  0  0  0  0  0  0  0  0  0
    2.7406   -1.0619   -0.1321 C   0  0  0  0  0  0  0  0  0  0  0  0
    2.5571    0.2109    0.6373 C   0  0  0  0  0  0  0  0  0  0  0  0
    3.9849   -1.6813   -0.1893 C   0  0  0  0  0  0  0  0  0  0  0  0
    4.1611   -2.8702   -0.8654 C   0  0  0  0  0  0  0  0  0  0  0  0
    1.8329   -6.4581   -3.1975 C   0  0  0  0  0  0  0  0  0  0  0  0
    2.4891   -6.6468   -4.7817 S   0  0  0  0  0  0  0  0  0  0  0  0
    1.4503   -5.2160    0.2536 C   0  0  0  0  0  0  0  0  0  0  0  0
    2.5963   -5.0693    1.0077 C   0  0  0  0  0  0  0  0  0  0  0  0
    3.7783   -5.9082    0.8209 C   0  0  0  0  0  0  0  0  0  0  0  0
    3.6328   -7.2558    0.4964 C   0  0  0  0  0  0  0  0  0  0  0  0
    4.7493   -8.0451    0.2991 C   0  0  0  0  0  0  0  0  0  0  0  0
    6.0166   -7.4995    0.4022 C   0  0  0  0  0  0  0  0  0  0  0  0
    6.1815   -6.1624    0.7409 C   0  0  0  0  0  0  0  0  0  0  0  0
    7.5541   -5.5574    0.8012 C   0  0  0  0  0  0  0  0  0  0  0  0
    8.0236   -5.1709   -0.6032 C   0  0  0  0  0  0  0  0  0  0  0  0
    5.0579   -5.3835    0.9685 C   0  0  0  0  0  0  0  0  0  0  0  0
    2.4453   -4.0398    1.9628 C   0  0  0  0  0  0  0  0  0  0  0  0
    3.5375   -3.2948    3.1023 S   0  0  0  0  0  0  0  0  0  0  0  0
    2.3099   -2.1420    3.5071 C   0  0  0  0  0  0  0  0  0  0  0  0
    2.1417   -0.9877    4.2979 C   0  0  0  0  0  0  0  0  0  0  0  0
    2.9207   -0.3632    5.2989 C   0  0  0  0  0  0  0  0  0  0  0  0
    2.3819    0.7712    6.0100 C   0  0  0  0  0  0  0  0  0  0  0  0
    3.1941    1.1973    6.9637 N   0  0  0  0  0  0  0  0  0  0  0  0
    4.5206    0.2691    6.9677 S   0  0  0  0  0  0  0  0  0  0  0  0
    4.1129   -0.7176    5.7507 N   0  0  0  0  0  0  0  0  0  0  0  0
    1.1573    1.3358    5.5848 C   0  0  0  0  0  0  0  0  0  0  0  0
    0.4658    2.5180    5.9161 C   0  0  0  0  0  0  0  0  0  0  0  0
    0.5619    3.8309    7.0416 S   0  0  0  0  0  0  0  0  0  0  0  0
   -0.8135    4.5822    6.2639 C   0  0  0  0  0  0  0  0  0  0  0  0
   -1.5296    5.7736    6.5110 C   0  0  0  0  0  0  0  0  0  0  0  0
   -1.2593    6.6615    7.6396 C   0  0  0  0  0  0  0  0  0  0  0  0
    0.0523    6.9230    8.0280 C   0  0  0  0  0  0  0  0  0  0  0  0
    0.3017    7.7573    9.1001 C   0  0  0  0  0  0  0  0  0  0  0  0
   -0.7454    8.3388    9.7922 C   0  0  0  0  0  0  0  0  0  0  0  0
   -2.0606    8.0869    9.4220 C   0  0  0  0  0  0  0  0  0  0  0  0
   -3.2038    8.6878   10.1877 C   0  0  0  0  0  0  0  0  0  0  0  0
   -3.6625    7.7411   11.2981 C   0  0  0  0  0  0  0  0  0  0  0  0
   -2.3047    7.2386    8.3544 C   0  0  0  0  0  0  0  0  0  0  0  0
   -2.5520    5.9374    5.5903 C   0  0  0  0  0  0  0  0  0  0  0  0
   -2.6713    4.5915    4.4637 S   0  0  0  0  0  0  0  0  0  0  0  0
   -1.3098    3.8298    5.1980 C   0  0  0  0  0  0  0  0  0  0  0  0
   -0.5845    2.6501    5.0029 C   0  0  0  0  0  0  0  0  0  0  0  0
   -0.6021    1.5830    4.1383 N   0  0  0  0  0  0  0  0  0  0  0  0
    0.4462    0.7582    4.5034 C   0  0  0  0  0  0  0  0  0  0  0  0
    0.8496   -0.4920    3.9917 C   0  0  0  0  0  0  0  0  0  0  0  0
    0.2168   -1.3526    3.1152 N   0  0  0  0  0  0  0  0  0  0  0  0
    1.1134   -2.3461    2.8142 C   0  0  0  0  0  0  0  0  0  0  0  0
    1.1871   -3.4402    1.9446 C   0  0  0  0  0  0  0  0  0  0  0  0
    0.1407   -4.1729    0.7847 S   0  0  0  0  0  0  0  0  0  0  0  0
   -1.2105   -1.5741    3.0107 C   0  0  0  0  0  0  0  0  0  0  0  0
   -1.6354   -2.8217    3.7844 C   0  0  0  0  0  0  0  0  0  0  0  0
   -1.1306    1.7433    2.7982 C   0  0  0  0  0  0  0  0  0  0  0  0
   -0.3979    2.8538    2.0451 C   0  0  0  0  0  0  0  0  0  0  0  0
   -3.4868    7.0011    5.4118 C   0  0  0  0  0  0  0  0  0  0  0  0
   -3.3387    8.3787    5.5702 C   0  0  0  0  0  0  0  0  0  0  0  0
   -2.1147    9.0653    5.9050 C   0  0  0  0  0  0  0  0  0  0  0  0
   -0.8276    8.7612    5.5672 C   0  0  0  0  0  0  0  0  0  0  0  0
    0.1050    9.7101    6.0284 C   0  0  0  0  0  0  0  0  0  0  0  0
   -0.4587   10.7399    6.7156 C   0  0  0  0  0  0  0  0  0  0  0  0
    0.2109   11.8960    7.3737 C   0  0  0  0  0  0  0  0  0  0  0  0
    0.2342   11.7314    8.8942 C   0  0  0  0  0  0  0  0  0  0  0  0
   -2.1784   10.5563    6.8005 S   0  0  0  0  0  0  0  0  0  0  0  0
   -4.5180    9.0752    5.2659 C   0  0  0  0  0  0  0  0  0  0  0  0
   -5.5614    8.2795    4.8445 C   0  0  0  0  0  0  0  0  0  0  0  0
   -5.0895    6.6026    4.8794 S   0  0  0  0  0  0  0  0  0  0  0  0
   -6.8745    8.6262    4.4511 C   0  0  0  0  0  0  0  0  0  0  0  0
   -7.3486    9.8229    4.0105 C   0  0  0  0  0  0  0  0  0  0  0  0
   -8.8150   10.0766    4.0359 C   0  0  0  0  0  0  0  0  0  0  0  0
   -9.6863    9.2555    4.2162 O   0  0  0  0  0  0  0  0  0  0  0  0
   -8.9657   11.5312    3.8455 C   0  0  0  0  0  0  0  0  0  0  0  0
  -10.1457   12.2699    3.8946 C   0  0  0  0  0  0  0  0  0  0  0  0
   -9.9727   13.6170    3.6867 C   0  0  0  0  0  0  0  0  0  0  0  0
   -8.7155   14.1947    3.4627 C   0  0  0  0  0  0  0  0  0  0  0  0
   -7.5428   13.4795    3.4118 C   0  0  0  0  0  0  0  0  0  0  0  0
   -7.6997   12.1043    3.6014 C   0  0  0  0  0  0  0  0  0  0  0  0
   -6.7061   11.0333    3.5478 C   0  0  0  0  0  0  0  0  0  0  0  0
   -5.4914   11.1197    2.9169 C   0  0  0  0  0  0  0  0  0  0  0  0
   -4.9506   12.3131    2.3980 C   0  0  0  0  0  0  0  0  0  0  0  0
   -4.4525   13.2555    1.9709 N   0  0  0  0  0  0  0  0  0  0  0  0
   -4.6811   10.0077    2.6112 C   0  0  0  0  0  0  0  0  0  0  0  0
   -4.0067    9.1384    2.2827 N   0  0  0  0  0  0  0  0  0  0  0  0
   -9.2886   15.5830    3.3296 C   0  0  0  0  0  0  0  0  0  0  0  0
   -9.4229   16.1679    1.9018 C   0  0  0  0  0  0  0  0  0  0  0  0
   -9.5567   14.9911    0.9671 C   0  0  0  0  0  0  0  0  0  0  0  0
  -10.7471   14.4439    1.1734 C   0  0  0  0  0  0  0  0  0  0  0  0
  -11.4395   15.2404    2.2518 C   0  0  0  0  0  0  0  0  0  0  0  0
  -10.8842   16.6418    1.9515 C   0  0  0  0  0  0  0  0  0  0  0  0
  -10.6898   14.9390    3.5735 C   0  0  0  0  0  0  0  0  0  0  0  0
   -0.0133   -8.7997   -6.5421 H   0  0  0  0  0  0  0  0  0  0  0  0
    5.1097   -6.4597   -9.3222 H   0  0  0  0  0  0  0  0  0  0  0  0
    1.3951   -8.7864  -11.8592 H   0  0  0  0  0  0  0  0  0  0  0  0
    3.4412   -7.1030  -14.0210 H   0  0  0  0  0  0  0  0  0  0  0  0
    4.0158   -9.7005  -14.1605 H   0  0  0  0  0  0  0  0  0  0  0  0
    5.4813   -8.4249  -15.9300 H   0  0  0  0  0  0  0  0  0  0  0  0
    7.4504   -7.1938  -14.6401 H   0  0  0  0  0  0  0  0  0  0  0  0
    7.1988   -7.7127  -12.0767 H   0  0  0  0  0  0  0  0  0  0  0  0
    6.3683  -10.0506  -12.9985 H   0  0  0  0  0  0  0  0  0  0  0  0
    5.2134   -9.4960  -11.7644 H   0  0  0  0  0  0  0  0  0  0  0  0
    5.3690   -5.8973  -12.7543 H   0  0  0  0  0  0  0  0  0  0  0  0
    1.5437  -10.4270   -4.4076 H   0  0  0  0  0  0  0  0  0  0  0  0
    1.6801  -12.5721   -5.5849 H   0  0  0  0  0  0  0  0  0  0  0  0
   -0.5441  -13.8051   -7.8426 H   0  0  0  0  0  0  0  0  0  0  0  0
    0.6548  -14.4061   -6.6924 H   0  0  0  0  0  0  0  0  0  0  0  0
   -1.0716  -14.6625   -6.4002 H   0  0  0  0  0  0  0  0  0  0  0  0
   -2.5195  -12.4420   -6.3240 H   0  0  0  0  0  0  0  0  0  0  0  0
   -2.6610  -10.2847   -5.1669 H   0  0  0  0  0  0  0  0  0  0  0  0
   -1.9858   -6.6981   -3.8343 H   0  0  0  0  0  0  0  0  0  0  0  0
   -3.9036   -6.2652   -2.3586 H   0  0  0  0  0  0  0  0  0  0  0  0
   -5.5898   -8.8929   -0.3238 H   0  0  0  0  0  0  0  0  0  0  0  0
   -4.7667   -7.4421    0.2504 H   0  0  0  0  0  0  0  0  0  0  0  0
   -5.8504   -7.3405   -1.1336 H   0  0  0  0  0  0  0  0  0  0  0  0
   -3.7377  -10.2914   -0.9594 H   0  0  0  0  0  0  0  0  0  0  0  0
   -1.8087  -10.7227   -2.4168 H   0  0  0  0  0  0  0  0  0  0  0  0
    4.7717   -3.0990   -3.5283 H   0  0  0  0  0  0  0  0  0  0  0  0
    6.8314   -3.7099   -4.7104 H   0  0  0  0  0  0  0  0  0  0  0  0
    8.6929   -5.3175   -4.9565 H   0  0  0  0  0  0  0  0  0  0  0  0
    7.7302   -6.4319   -5.9263 H   0  0  0  0  0  0  0  0  0  0  0  0
    8.4927   -7.0008   -4.4433 H   0  0  0  0  0  0  0  0  0  0  0  0
    6.3846   -7.7488   -3.4174 H   0  0  0  0  0  0  0  0  0  0  0  0
    4.3444   -7.1378   -2.2077 H   0  0  0  0  0  0  0  0  0  0  0  0
    1.0162   -3.2823   -2.0228 H   0  0  0  0  0  0  0  0  0  0  0  0
    0.7160   -1.1746   -0.8161 H   0  0  0  0  0  0  0  0  0  0  0  0
    3.0646    1.0348    0.1349 H   0  0  0  0  0  0  0  0  0  0  0  0
    2.9807    0.1188    1.6366 H   0  0  0  0  0  0  0  0  0  0  0  0
    1.5022    0.4599    0.7253 H   0  0  0  0  0  0  0  0  0  0  0  0
    4.8243   -1.2309    0.3209 H   0  0  0  0  0  0  0  0  0  0  0  0
    5.1305   -3.3425   -0.8951 H   0  0  0  0  0  0  0  0  0  0  0  0
    2.6449   -7.6853    0.4182 H   0  0  0  0  0  0  0  0  0  0  0  0
    4.6298   -9.0916    0.0576 H   0  0  0  0  0  0  0  0  0  0  0  0
    6.8857   -8.1174    0.2287 H   0  0  0  0  0  0  0  0  0  0  0  0
    7.5412   -4.6707    1.4376 H   0  0  0  0  0  0  0  0  0  0  0  0
    8.2574   -6.2754    1.2287 H   0  0  0  0  0  0  0  0  0  0  0  0
    8.0492   -6.0442   -1.2506 H   0  0  0  0  0  0  0  0  0  0  0  0
    7.3442   -4.4482   -1.0499 H   0  0  0  0  0  0  0  0  0  0  0  0
    9.0187   -4.7340   -0.5653 H   0  0  0  0  0  0  0  0  0  0  0  0
    5.1759   -4.3487    1.2517 H   0  0  0  0  0  0  0  0  0  0  0  0
    0.8731    6.4897    7.4779 H   0  0  0  0  0  0  0  0  0  0  0  0
    1.3215    7.9574    9.3949 H   0  0  0  0  0  0  0  0  0  0  0  0
   -0.5445    8.9936   10.6280 H   0  0  0  0  0  0  0  0  0  0  0  0
   -4.0377    8.8833    9.5102 H   0  0  0  0  0  0  0  0  0  0  0  0
   -2.8936    9.6374   10.6283 H   0  0  0  0  0  0  0  0  0  0  0  0
   -2.8461    7.5465   11.9900 H   0  0  0  0  0  0  0  0  0  0  0  0
   -4.4914    8.1763   11.8514 H   0  0  0  0  0  0  0  0  0  0  0  0
   -3.9860    6.7921   10.8764 H   0  0  0  0  0  0  0  0  0  0  0  0
   -3.3252    7.0169    8.0760 H   0  0  0  0  0  0  0  0  0  0  0  0
   -1.4755   -1.6892    1.9541 H   0  0  0  0  0  0  0  0  0  0  0  0
   -1.7319   -0.7144    3.4300 H   0  0  0  0  0  0  0  0  0  0  0  0
   -2.7161   -2.9250    3.7413 H   0  0  0  0  0  0  0  0  0  0  0  0
   -1.1863   -3.7148    3.3594 H   0  0  0  0  0  0  0  0  0  0  0  0
   -1.3326   -2.7383    4.8260 H   0  0  0  0  0  0  0  0  0  0  0  0
   -1.0044    0.8120    2.2500 H   0  0  0  0  0  0  0  0  0  0  0  0
   -2.1960    1.9829    2.8712 H   0  0  0  0  0  0  0  0  0  0  0  0
   -0.5582    3.8178    2.5191 H   0  0  0  0  0  0  0  0  0  0  0  0
    0.6707    2.6491    2.0222 H   0  0  0  0  0  0  0  0  0  0  0  0
   -0.7670    2.9075    1.0246 H   0  0  0  0  0  0  0  0  0  0  0  0
   -0.5615    7.9003    4.9815 H   0  0  0  0  0  0  0  0  0  0  0  0
    1.1630    9.6329    5.8508 H   0  0  0  0  0  0  0  0  0  0  0  0
   -0.3162   12.8192    7.1207 H   0  0  0  0  0  0  0  0  0  0  0  0
    1.2328   11.9702    6.9962 H   0  0  0  0  0  0  0  0  0  0  0  0
   -0.7808   11.6554    9.2777 H   0  0  0  0  0  0  0  0  0  0  0  0
    0.7741   10.8274    9.1647 H   0  0  0  0  0  0  0  0  0  0  0  0
    0.7215   12.5849    9.3591 H   0  0  0  0  0  0  0  0  0  0  0  0
   -4.5946   10.1439    5.3675 H   0  0  0  0  0  0  0  0  0  0  0  0
   -7.6267    7.8514    4.5646 H   0  0  0  0  0  0  0  0  0  0  0  0
  -11.0938   11.7881    4.0758 H   0  0  0  0  0  0  0  0  0  0  0  0
   -6.5803   13.9353    3.2474 H   0  0  0  0  0  0  0  0  0  0  0  0
   -8.9331   16.3188    4.0483 H   0  0  0  0  0  0  0  0  0  0  0  0
   -8.6657   16.9027    1.6421 H   0  0  0  0  0  0  0  0  0  0  0  0
   -8.7732   14.6537    0.3142 H   0  0  0  0  0  0  0  0  0  0  0  0
  -11.1578   13.5575    0.7265 H   0  0  0  0  0  0  0  0  0  0  0  0
  -12.5193   15.1316    2.3107 H   0  0  0  0  0  0  0  0  0  0  0  0
  -11.2314   17.0366    0.9979 H   0  0  0  0  0  0  0  0  0  0  0  0
  -11.0796   17.3649    2.7423 H   0  0  0  0  0  0  0  0  0  0  0  0
  -11.2515   15.2553    4.4504 H   0  0  0  0  0  0  0  0  0  0  0  0
  1  2  2  0  0  0  0
  2  3  1  0  0  0  0
  3  4  2  0  0  0  0
  3  5  1  0  0  0  0
  5  6  2  0  0  0  0
  6  7  1  0  0  0  0
  7  8  2  0  0  0  0
  8  9  1  0  0  0  0
  9 10  2  0  0  0  0
 10 11  1  0  0  0  0
 11 12  2  0  0  0  0
 12 13  1  0  0  0  0
 13 14  3  0  0  0  0
 12 15  1  0  0  0  0
 15 16  3  0  0  0  0
  8 17  1  0  0  0  0
 17 18  1  0  0  0  0
 18 19  1  0  0  0  0
 19 20  2  0  0  0  0
 20 21  1  0  0  0  0
 21 22  1  0  0  0  0
 21 23  1  0  0  0  0
  1 24  1  0  0  0  0
 24 25  2  0  0  0  0
 25 26  1  0  0  0  0
 26 27  1  0  0  0  0
 27 28  2  0  0  0  0
 28 29  1  0  0  0  0
 29 30  2  0  0  0  0
 30 31  1  0  0  0  0
 30 32  1  0  0  0  0
 32 33  2  0  0  0  0
 26 34  1  0  0  0  0
 34 35  2  0  0  0  0
 35 36  1  0  0  0  0
 36 37  2  0  0  0  0
 37 38  1  0  0  0  0
 37 39  1  0  0  0  0
 39 40  2  0  0  0  0
 25 41  1  0  0  0  0
 41 42  1  0  0  0  0
 42 43  1  0  0  0  0
 43 44  2  0  0  0  0
 44 45  1  0  0  0  0
 45 46  1  0  0  0  0
 46 47  2  0  0  0  0
 47 48  1  0  0  0  0
 48 49  2  0  0  0  0
 49 50  1  0  0  0  0
 49 51  1  0  0  0  0
 51 52  2  0  0  0  0
 45 53  1  0  0  0  0
 53 54  2  0  0  0  0
 54 55  1  0  0  0  0
 55 56  2  0  0  0  0
 56 57  1  0  0  0  0
 56 58  1  0  0  0  0
 58 59  2  0  0  0  0
 44 60  1  0  0  0  0
 60 61  1  0  0  0  0
 43 62  1  0  0  0  0
 62 63  2  0  0  0  0
 63 64  1  0  0  0  0
 64 65  2  0  0  0  0
 65 66  1  0  0  0  0
 66 67  2  0  0  0  0
 67 68  1  0  0  0  0
 68 69  1  0  0  0  0
 69 70  1  0  0  0  0
 68 71  2  0  0  0  0
 63 72  1  0  0  0  0
 72 73  1  0  0  0  0
 73 74  1  0  0  0  0
 74 75  1  0  0  0  0
 75 76  1  0  0  0  0
 76 77  1  0  0  0  0
 77 78  2  0  0  0  0
 78 79  1  0  0  0  0
 79 80  1  0  0  0  0
 77 81  1  0  0  0  0
 81 82  1  0  0  0  0
 82 83  1  0  0  0  0
 83 84  1  0  0  0  0
 84 85  1  0  0  0  0
 85 86  1  0  0  0  0
 86 87  2  0  0  0  0
 87 88  1  0  0  0  0
 88 89  2  0  0  0  0
 89 90  1  0  0  0  0
 90 91  1  0  0  0  0
 91 92  1  0  0  0  0
 90 93  2  0  0  0  0
 85 94  2  0  0  0  0
 94 95  1  0  0  0  0
 95 96  1  0  0  0  0
 96 97  1  0  0  0  0
 97 98  1  0  0  0  0
 98 99  1  0  0  0  0
 99100  1  0  0  0  0
100101  1  0  0  0  0
101102  1  0  0  0  0
102103  1  0  0  0  0
103104  1  0  0  0  0
101105  1  0  0  0  0
105106  1  0  0  0  0
 98107  1  0  0  0  0
107108  1  0  0  0  0
 94109  1  0  0  0  0
109110  2  0  0  0  0
110111  1  0  0  0  0
111112  2  0  0  0  0
112113  1  0  0  0  0
113114  2  0  0  0  0
114115  1  0  0  0  0
115116  1  0  0  0  0
114117  1  0  0  0  0
110118  1  0  0  0  0
118119  2  0  0  0  0
119120  1  0  0  0  0
119121  1  0  0  0  0
121122  2  0  0  0  0
122123  1  0  0  0  0
123124  2  0  0  0  0
123125  1  0  0  0  0
125126  2  0  0  0  0
126127  1  0  0  0  0
127128  2  0  0  0  0
128129  1  0  0  0  0
129130  2  0  0  0  0
130131  1  0  0  0  0
131132  2  0  0  0  0
132133  1  0  0  0  0
133134  3  0  0  0  0
132135  1  0  0  0  0
135136  3  0  0  0  0
128137  1  0  0  0  0
137138  1  0  0  0  0
138139  1  0  0  0  0
139140  2  0  0  0  0
140141  1  0  0  0  0
141142  1  0  0  0  0
141143  1  0  0  0  0
 11  2  1  0  0  0  0
 23 17  1  0  0  0  0
 61 24  1  0  0  0  0
104 62  1  0  0  0  0
120109  1  0  0  0  0
131122  1  0  0  0  0
143137  1  0  0  0  0
 10  5  1  0  0  0  0
 22 18  1  0  0  0  0
 33 27  1  0  0  0  0
 40 34  1  0  0  0  0
 60 41  2  0  0  0  0
 71 64  1  0  0  0  0
103 72  2  0  0  0  0
117111  1  0  0  0  0
130125  1  0  0  0  0
142138  1  0  0  0  0
 23  7  1  0  0  0  0
 52 46  1  0  0  0  0
 59 53  1  0  0  0  0
102 74  2  0  0  0  0
143127  1  0  0  0  0
100 75  2  0  0  0  0
 80 76  2  0  0  0  0
 99 81  2  0  0  0  0
 97 82  2  0  0  0  0
 96 84  2  0  0  0  0
 93 86  1  0  0  0  0
  1144  1  0  0  0  0
  6145  1  0  0  0  0
  9146  1  0  0  0  0
 17147  1  0  0  0  0
 18148  1  0  0  0  0
 19149  1  0  0  0  0
 20150  1  0  0  0  0
 21151  1  0  0  0  0
 22152  1  0  0  0  0
 22153  1  0  0  0  0
 23154  1  0  0  0  0
 28155  1  0  0  0  0
 29156  1  0  0  0  0
 31157  1  0  0  0  0
 31158  1  0  0  0  0
 31159  1  0  0  0  0
 32160  1  0  0  0  0
 33161  1  0  0  0  0
 35162  1  0  0  0  0
 36163  1  0  0  0  0
 38164  1  0  0  0  0
 38165  1  0  0  0  0
 38166  1  0  0  0  0
 39167  1  0  0  0  0
 40168  1  0  0  0  0
 47169  1  0  0  0  0
 48170  1  0  0  0  0
 50171  1  0  0  0  0
 50172  1  0  0  0  0
 50173  1  0  0  0  0
 51174  1  0  0  0  0
 52175  1  0  0  0  0
 54176  1  0  0  0  0
 55177  1  0  0  0  0
 57178  1  0  0  0  0
 57179  1  0  0  0  0
 57180  1  0  0  0  0
 58181  1  0  0  0  0
 59182  1  0  0  0  0
 65183  1  0  0  0  0
 66184  1  0  0  0  0
 67185  1  0  0  0  0
 69186  1  0  0  0  0
 69187  1  0  0  0  0
 70188  1  0  0  0  0
 70189  1  0  0  0  0
 70190  1  0  0  0  0
 71191  1  0  0  0  0
 87192  1  0  0  0  0
 88193  1  0  0  0  0
 89194  1  0  0  0  0
 91195  1  0  0  0  0
 91196  1  0  0  0  0
 92197  1  0  0  0  0
 92198  1  0  0  0  0
 92199  1  0  0  0  0
 93200  1  0  0  0  0
105201  1  0  0  0  0
105202  1  0  0  0  0
106203  1  0  0  0  0
106204  1  0  0  0  0
106205  1  0  0  0  0
107206  1  0  0  0  0
107207  1  0  0  0  0
108208  1  0  0  0  0
108209  1  0  0  0  0
108210  1  0  0  0  0
112211  1  0  0  0  0
113212  1  0  0  0  0
115213  1  0  0  0  0
115214  1  0  0  0  0
116215  1  0  0  0  0
116216  1  0  0  0  0
116217  1  0  0  0  0
118218  1  0  0  0  0
121219  1  0  0  0  0
126220  1  0  0  0  0
129221  1  0  0  0  0
137222  1  0  0  0  0
138223  1  0  0  0  0
139224  1  0  0  0  0
140225  1  0  0  0  0
141226  1  0  0  0  0
142227  1  0  0  0  0
142228  1  0  0  0  0
143229  1  0  0  0  0
M  END
