
  xtb     02132212173D
 energy: -303.713033766320 gnorm: 0.000769774454 xtb: 6.4.1 (unknown)
165188  0     0  0            999 V2000
    6.1203   -8.0821    6.8951 C   0  0  0  0  0  0  0  0  0  0  0  0
    7.1579   -7.2368    7.1075 C   0  0  0  0  0  0  0  0  0  0  0  0
    7.4816   -6.0799    6.2233 C   0  0  0  0  0  0  0  0  0  0  0  0
    6.9078   -5.7490    5.2087 O   0  0  0  0  0  0  0  0  0  0  0  0
    8.7333   -5.5150    6.7506 C   0  0  0  0  0  0  0  0  0  0  0  0
    9.4113   -4.3984    6.2638 C   0  0  0  0  0  0  0  0  0  0  0  0
   10.5656   -4.1025    6.9468 C   0  0  0  0  0  0  0  0  0  0  0  0
   11.0208   -4.8667    8.0311 C   0  0  0  0  0  0  0  0  0  0  0  0
   10.3662   -5.9719    8.5185 C   0  0  0  0  0  0  0  0  0  0  0  0
    9.1832   -6.2890    7.8407 C   0  0  0  0  0  0  0  0  0  0  0  0
    8.2276   -7.3640    8.0835 C   0  0  0  0  0  0  0  0  0  0  0  0
    8.2884   -8.2818    9.0973 C   0  0  0  0  0  0  0  0  0  0  0  0
    7.3039   -9.2581    9.3630 C   0  0  0  0  0  0  0  0  0  0  0  0
    6.5424  -10.0661    9.6548 N   0  0  0  0  0  0  0  0  0  0  0  0
    9.3384   -8.3714   10.0361 C   0  0  0  0  0  0  0  0  0  0  0  0
   10.1604   -8.5079   10.8257 N   0  0  0  0  0  0  0  0  0  0  0  0
   12.2411   -4.0029    8.2302 C   0  0  0  0  0  0  0  0  0  0  0  0
   13.5799   -4.5679    7.7098 C   0  0  0  0  0  0  0  0  0  0  0  0
   14.4684   -3.3496    7.6015 C   0  0  0  0  0  0  0  0  0  0  0  0
   14.0370   -2.6251    6.5769 C   0  0  0  0  0  0  0  0  0  0  0  0
   12.8497   -3.3416    5.9751 C   0  0  0  0  0  0  0  0  0  0  0  0
   13.2650   -4.7971    6.2258 C   0  0  0  0  0  0  0  0  0  0  0  0
   11.7327   -3.1502    7.0235 C   0  0  0  0  0  0  0  0  0  0  0  0
    5.0111   -7.7697    6.0369 C   0  0  0  0  0  0  0  0  0  0  0  0
    4.4016   -8.7063    5.2192 C   0  0  0  0  0  0  0  0  0  0  0  0
    4.8862   -9.9557    5.1976 F   0  0  0  0  0  0  0  0  0  0  0  0
    3.3485   -8.4193    4.3288 C   0  0  0  0  0  0  0  0  0  0  0  0
    2.9699   -9.4179    3.5156 F   0  0  0  0  0  0  0  0  0  0  0  0
    2.7588   -7.1676    4.2226 C   0  0  0  0  0  0  0  0  0  0  0  0
    3.3249   -6.1925    5.0942 C   0  0  0  0  0  0  0  0  0  0  0  0
    4.4172   -6.4812    5.9851 C   0  0  0  0  0  0  0  0  0  0  0  0
    4.6400   -5.3922    6.6916 N   0  0  0  0  0  0  0  0  0  0  0  0
    3.7661   -4.4857    6.2646 O   0  0  0  0  0  0  0  0  0  0  0  0
    2.9667   -4.9435    5.3065 N   0  0  0  0  0  0  0  0  0  0  0  0
    1.7236   -6.7946    3.3116 C   0  0  0  0  0  0  0  0  0  0  0  0
    0.7036   -7.5513    2.7475 C   0  0  0  0  0  0  0  0  0  0  0  0
    0.3085   -8.8986    3.1521 C   0  0  0  0  0  0  0  0  0  0  0  0
    0.2487   -9.2466    4.5001 C   0  0  0  0  0  0  0  0  0  0  0  0
   -0.1758  -10.5087    4.8653 C   0  0  0  0  0  0  0  0  0  0  0  0
   -0.5480  -11.4278    3.8991 C   0  0  0  0  0  0  0  0  0  0  0  0
   -0.5000  -11.0955    2.5515 C   0  0  0  0  0  0  0  0  0  0  0  0
   -0.9552  -12.0616    1.4968 C   0  0  0  0  0  0  0  0  0  0  0  0
   -2.4104  -11.7803    1.1161 C   0  0  0  0  0  0  0  0  0  0  0  0
   -0.0734   -9.8270    2.1902 C   0  0  0  0  0  0  0  0  0  0  0  0
   -0.0179   -6.7976    1.8057 C   0  0  0  0  0  0  0  0  0  0  0  0
   -1.3957   -7.1722    0.7947 S   0  0  0  0  0  0  0  0  0  0  0  0
   -1.3619   -5.5512    0.1905 C   0  0  0  0  0  0  0  0  0  0  0  0
   -2.0321   -4.7462   -0.7397 C   0  0  0  0  0  0  0  0  0  0  0  0
   -3.0858   -5.0654   -1.6222 C   0  0  0  0  0  0  0  0  0  0  0  0
   -3.5470   -4.0639   -2.5345 C   0  0  0  0  0  0  0  0  0  0  0  0
   -4.5153   -4.5035   -3.3235 N   0  0  0  0  0  0  0  0  0  0  0  0
   -4.8202   -6.0478   -2.9458 S   0  0  0  0  0  0  0  0  0  0  0  0
   -3.7276   -6.2151   -1.7620 N   0  0  0  0  0  0  0  0  0  0  0  0
   -2.9711   -2.7770   -2.4785 C   0  0  0  0  0  0  0  0  0  0  0  0
   -3.2839   -1.6178   -3.2031 C   0  0  0  0  0  0  0  0  0  0  0  0
   -4.3710   -1.0943   -4.4456 S   0  0  0  0  0  0  0  0  0  0  0  0
   -3.7190    0.5192   -4.2956 C   0  0  0  0  0  0  0  0  0  0  0  0
   -3.9977    1.7231   -4.9826 C   0  0  0  0  0  0  0  0  0  0  0  0
   -5.0909    1.8200   -5.9588 C   0  0  0  0  0  0  0  0  0  0  0  0
   -6.3708    1.4324   -5.5700 C   0  0  0  0  0  0  0  0  0  0  0  0
   -7.4129    1.4982   -6.4744 C   0  0  0  0  0  0  0  0  0  0  0  0
   -7.1905    1.9422   -7.7669 C   0  0  0  0  0  0  0  0  0  0  0  0
   -5.9180    2.3210   -8.1718 C   0  0  0  0  0  0  0  0  0  0  0  0
   -5.6467    2.7620   -9.5824 C   0  0  0  0  0  0  0  0  0  0  0  0
   -5.0334    1.6211  -10.3955 C   0  0  0  0  0  0  0  0  0  0  0  0
   -4.8741    2.2472   -7.2604 C   0  0  0  0  0  0  0  0  0  0  0  0
   -3.2041    2.7464   -4.5235 C   0  0  0  0  0  0  0  0  0  0  0  0
   -2.1172    2.2425   -3.2400 S   0  0  0  0  0  0  0  0  0  0  0  0
   -2.7161    0.6269   -3.3339 C   0  0  0  0  0  0  0  0  0  0  0  0
   -2.4650   -0.6025   -2.7084 C   0  0  0  0  0  0  0  0  0  0  0  0
   -1.6646   -1.0870   -1.7130 N   0  0  0  0  0  0  0  0  0  0  0  0
   -1.9349   -2.4366   -1.5570 C   0  0  0  0  0  0  0  0  0  0  0  0
   -1.4145   -3.4578   -0.7108 C   0  0  0  0  0  0  0  0  0  0  0  0
   -0.3728   -3.5140    0.1979 N   0  0  0  0  0  0  0  0  0  0  0  0
   -0.3499   -4.7660    0.7472 C   0  0  0  0  0  0  0  0  0  0  0  0
    0.4238   -5.4756    1.6712 C   0  0  0  0  0  0  0  0  0  0  0  0
    1.7452   -5.1377    2.7269 S   0  0  0  0  0  0  0  0  0  0  0  0
    0.6685   -2.5870    0.5740 C   0  0  0  0  0  0  0  0  0  0  0  0
    0.3610   -1.8983    1.9042 C   0  0  0  0  0  0  0  0  0  0  0  0
   -0.8220   -0.1552   -1.0017 C   0  0  0  0  0  0  0  0  0  0  0  0
    0.4728    0.1300   -1.7635 C   0  0  0  0  0  0  0  0  0  0  0  0
   -3.1988    4.1611   -4.8662 C   0  0  0  0  0  0  0  0  0  0  0  0
   -3.4985    5.1237   -3.9202 C   0  0  0  0  0  0  0  0  0  0  0  0
   -3.8381    4.7426   -2.6788 F   0  0  0  0  0  0  0  0  0  0  0  0
   -3.4775    6.5059   -4.1837 C   0  0  0  0  0  0  0  0  0  0  0  0
   -3.7199    7.3257   -3.1556 F   0  0  0  0  0  0  0  0  0  0  0  0
   -3.1374    7.0229   -5.4205 C   0  0  0  0  0  0  0  0  0  0  0  0
   -2.7615    6.0689   -6.3975 C   0  0  0  0  0  0  0  0  0  0  0  0
   -2.7963    4.6559   -6.1293 C   0  0  0  0  0  0  0  0  0  0  0  0
   -2.3568    3.9488   -7.1702 N   0  0  0  0  0  0  0  0  0  0  0  0
   -1.9763    4.9534   -8.3636 S   0  0  0  0  0  0  0  0  0  0  0  0
   -2.3343    6.3354   -7.6293 N   0  0  0  0  0  0  0  0  0  0  0  0
   -3.0519    8.4339   -5.7137 C   0  0  0  0  0  0  0  0  0  0  0  0
   -3.9512    9.3626   -5.3221 C   0  0  0  0  0  0  0  0  0  0  0  0
   -5.3246    9.0498   -4.8204 C   0  0  0  0  0  0  0  0  0  0  0  0
   -5.8162    7.9552   -4.6674 O   0  0  0  0  0  0  0  0  0  0  0  0
   -5.9962   10.3512   -4.6733 C   0  0  0  0  0  0  0  0  0  0  0  0
   -7.2997   10.5671   -4.2279 C   0  0  0  0  0  0  0  0  0  0  0  0
   -7.6685   11.8898   -4.1945 C   0  0  0  0  0  0  0  0  0  0  0  0
   -6.8105   12.9256   -4.5933 C   0  0  0  0  0  0  0  0  0  0  0  0
   -5.5282   12.7280   -5.0438 C   0  0  0  0  0  0  0  0  0  0  0  0
   -5.1252   11.3874   -5.0712 C   0  0  0  0  0  0  0  0  0  0  0  0
   -3.8472   10.8083   -5.4640 C   0  0  0  0  0  0  0  0  0  0  0  0
   -2.7235   11.5009   -5.8233 C   0  0  0  0  0  0  0  0  0  0  0  0
   -2.6465   12.9069   -5.9247 C   0  0  0  0  0  0  0  0  0  0  0  0
   -2.5111   14.0420   -6.0283 N   0  0  0  0  0  0  0  0  0  0  0  0
   -1.4730   10.9174   -6.1235 C   0  0  0  0  0  0  0  0  0  0  0  0
   -0.4203   10.5256   -6.3608 N   0  0  0  0  0  0  0  0  0  0  0  0
   -7.8330   13.9939   -4.2986 C   0  0  0  0  0  0  0  0  0  0  0  0
   -7.6305   14.7971   -2.9961 C   0  0  0  0  0  0  0  0  0  0  0  0
   -8.9896   15.4030   -2.7302 C   0  0  0  0  0  0  0  0  0  0  0  0
   -9.8002   14.4239   -2.3491 C   0  0  0  0  0  0  0  0  0  0  0  0
   -9.0024   13.1397   -2.3510 C   0  0  0  0  0  0  0  0  0  0  0  0
   -7.6274   13.6831   -1.9413 C   0  0  0  0  0  0  0  0  0  0  0  0
   -8.7874   12.8406   -3.8504 C   0  0  0  0  0  0  0  0  0  0  0  0
    6.1007   -9.0600    7.3588 H   0  0  0  0  0  0  0  0  0  0  0  0
    9.0230   -3.8379    5.4280 H   0  0  0  0  0  0  0  0  0  0  0  0
   10.7297   -6.5483    9.3526 H   0  0  0  0  0  0  0  0  0  0  0  0
   12.3303   -3.5268    9.2047 H   0  0  0  0  0  0  0  0  0  0  0  0
   13.9693   -5.4094    8.2760 H   0  0  0  0  0  0  0  0  0  0  0  0
   15.2582   -3.1199    8.2924 H   0  0  0  0  0  0  0  0  0  0  0  0
   14.3943   -1.6693    6.2411 H   0  0  0  0  0  0  0  0  0  0  0  0
   12.5743   -3.0661    4.9607 H   0  0  0  0  0  0  0  0  0  0  0  0
   14.1498   -5.0761    5.6561 H   0  0  0  0  0  0  0  0  0  0  0  0
   12.4731   -5.5220    6.0464 H   0  0  0  0  0  0  0  0  0  0  0  0
   11.4821   -2.1047    7.1927 H   0  0  0  0  0  0  0  0  0  0  0  0
    0.5188   -8.5216    5.2550 H   0  0  0  0  0  0  0  0  0  0  0  0
   -0.2206  -10.7771    5.9105 H   0  0  0  0  0  0  0  0  0  0  0  0
   -0.8785  -12.4130    4.1948 H   0  0  0  0  0  0  0  0  0  0  0  0
   -0.3265  -11.9623    0.6098 H   0  0  0  0  0  0  0  0  0  0  0  0
   -0.8674  -13.0849    1.8662 H   0  0  0  0  0  0  0  0  0  0  0  0
   -2.7425  -12.4730    0.3465 H   0  0  0  0  0  0  0  0  0  0  0  0
   -3.0559  -11.8904    1.9846 H   0  0  0  0  0  0  0  0  0  0  0  0
   -2.5141  -10.7651    0.7397 H   0  0  0  0  0  0  0  0  0  0  0  0
   -0.0146   -9.5630    1.1447 H   0  0  0  0  0  0  0  0  0  0  0  0
   -6.5458    1.0940   -4.5597 H   0  0  0  0  0  0  0  0  0  0  0  0
   -8.4056    1.2011   -6.1701 H   0  0  0  0  0  0  0  0  0  0  0  0
   -8.0117    1.9914   -8.4676 H   0  0  0  0  0  0  0  0  0  0  0  0
   -6.5764    3.0844  -10.0548 H   0  0  0  0  0  0  0  0  0  0  0  0
   -4.9562    3.6094   -9.5758 H   0  0  0  0  0  0  0  0  0  0  0  0
   -5.7125    0.7720  -10.4242 H   0  0  0  0  0  0  0  0  0  0  0  0
   -4.0983    1.2957   -9.9454 H   0  0  0  0  0  0  0  0  0  0  0  0
   -4.8361    1.9435  -11.4154 H   0  0  0  0  0  0  0  0  0  0  0  0
   -3.8733    2.5098   -7.5659 H   0  0  0  0  0  0  0  0  0  0  0  0
    0.8342   -1.8731   -0.2270 H   0  0  0  0  0  0  0  0  0  0  0  0
    1.5885   -3.1696    0.6910 H   0  0  0  0  0  0  0  0  0  0  0  0
   -0.6218   -1.4310    1.8940 H   0  0  0  0  0  0  0  0  0  0  0  0
    0.3786   -2.6246    2.7122 H   0  0  0  0  0  0  0  0  0  0  0  0
    1.1116   -1.1405    2.1101 H   0  0  0  0  0  0  0  0  0  0  0  0
   -0.6324   -0.5194    0.0033 H   0  0  0  0  0  0  0  0  0  0  0  0
   -1.3839    0.7805   -0.9110 H   0  0  0  0  0  0  0  0  0  0  0  0
    0.9994   -0.7890   -2.0134 H   0  0  0  0  0  0  0  0  0  0  0  0
    0.2504    0.6504   -2.6914 H   0  0  0  0  0  0  0  0  0  0  0  0
    1.1240    0.7597   -1.1639 H   0  0  0  0  0  0  0  0  0  0  0  0
   -2.2022    8.7132   -6.3228 H   0  0  0  0  0  0  0  0  0  0  0  0
   -7.9284    9.7395   -3.9394 H   0  0  0  0  0  0  0  0  0  0  0  0
   -4.8852   13.5335   -5.3562 H   0  0  0  0  0  0  0  0  0  0  0  0
   -8.1261   14.6161   -5.1418 H   0  0  0  0  0  0  0  0  0  0  0  0
   -6.7842   15.4783   -3.0094 H   0  0  0  0  0  0  0  0  0  0  0  0
   -9.2276   16.4375   -2.8939 H   0  0  0  0  0  0  0  0  0  0  0  0
  -10.8506   14.4772   -2.1310 H   0  0  0  0  0  0  0  0  0  0  0  0
   -9.4065   12.3117   -1.7751 H   0  0  0  0  0  0  0  0  0  0  0  0
   -6.8152   12.9671   -2.0526 H   0  0  0  0  0  0  0  0  0  0  0  0
   -7.6275   14.0779   -0.9268 H   0  0  0  0  0  0  0  0  0  0  0  0
   -9.7195   12.6933   -4.3925 H   0  0  0  0  0  0  0  0  0  0  0  0
  1  2  2  0  0  0  0
  2  3  1  0  0  0  0
  3  4  2  0  0  0  0
  3  5  1  0  0  0  0
  5  6  2  0  0  0  0
  6  7  1  0  0  0  0
  7  8  2  0  0  0  0
  8  9  1  0  0  0  0
  9 10  2  0  0  0  0
 10 11  1  0  0  0  0
 11 12  2  0  0  0  0
 12 13  1  0  0  0  0
 13 14  3  0  0  0  0
 12 15  1  0  0  0  0
 15 16  3  0  0  0  0
  8 17  1  0  0  0  0
 17 18  1  0  0  0  0
 18 19  1  0  0  0  0
 19 20  2  0  0  0  0
 20 21  1  0  0  0  0
 21 22  1  0  0  0  0
 21 23  1  0  0  0  0
  1 24  1  0  0  0  0
 24 25  2  0  0  0  0
 25 26  1  0  0  0  0
 25 27  1  0  0  0  0
 27 28  1  0  0  0  0
 27 29  2  0  0  0  0
 29 30  1  0  0  0  0
 30 31  1  0  0  0  0
 31 32  2  0  0  0  0
 32 33  1  0  0  0  0
 33 34  1  0  0  0  0
 29 35  1  0  0  0  0
 35 36  2  0  0  0  0
 36 37  1  0  0  0  0
 37 38  2  0  0  0  0
 38 39  1  0  0  0  0
 39 40  2  0  0  0  0
 40 41  1  0  0  0  0
 41 42  1  0  0  0  0
 42 43  1  0  0  0  0
 41 44  2  0  0  0  0
 36 45  1  0  0  0  0
 45 46  1  0  0  0  0
 46 47  1  0  0  0  0
 47 48  1  0  0  0  0
 48 49  1  0  0  0  0
 49 50  1  0  0  0  0
 50 51  2  0  0  0  0
 51 52  1  0  0  0  0
 52 53  1  0  0  0  0
 50 54  1  0  0  0  0
 54 55  1  0  0  0  0
 55 56  1  0  0  0  0
 56 57  1  0  0  0  0
 57 58  1  0  0  0  0
 58 59  1  0  0  0  0
 59 60  2  0  0  0  0
 60 61  1  0  0  0  0
 61 62  2  0  0  0  0
 62 63  1  0  0  0  0
 63 64  1  0  0  0  0
 64 65  1  0  0  0  0
 63 66  2  0  0  0  0
 58 67  2  0  0  0  0
 67 68  1  0  0  0  0
 68 69  1  0  0  0  0
 69 70  1  0  0  0  0
 70 71  1  0  0  0  0
 71 72  1  0  0  0  0
 72 73  1  0  0  0  0
 73 74  1  0  0  0  0
 74 75  1  0  0  0  0
 75 76  1  0  0  0  0
 76 77  1  0  0  0  0
 74 78  1  0  0  0  0
 78 79  1  0  0  0  0
 71 80  1  0  0  0  0
 80 81  1  0  0  0  0
 67 82  1  0  0  0  0
 82 83  2  0  0  0  0
 83 84  1  0  0  0  0
 83 85  1  0  0  0  0
 85 86  1  0  0  0  0
 85 87  2  0  0  0  0
 87 88  1  0  0  0  0
 88 89  1  0  0  0  0
 89 90  2  0  0  0  0
 90 91  1  0  0  0  0
 91 92  1  0  0  0  0
 87 93  1  0  0  0  0
 93 94  2  0  0  0  0
 94 95  1  0  0  0  0
 95 96  2  0  0  0  0
 95 97  1  0  0  0  0
 97 98  2  0  0  0  0
 98 99  1  0  0  0  0
 99100  2  0  0  0  0
100101  1  0  0  0  0
101102  2  0  0  0  0
102103  1  0  0  0  0
103104  2  0  0  0  0
104105  1  0  0  0  0
105106  3  0  0  0  0
104107  1  0  0  0  0
107108  3  0  0  0  0
100109  1  0  0  0  0
109110  1  0  0  0  0
110111  1  0  0  0  0
111112  2  0  0  0  0
112113  1  0  0  0  0
113114  1  0  0  0  0
113115  1  0  0  0  0
 11  2  1  0  0  0  0
 23 17  1  0  0  0  0
 31 24  1  0  0  0  0
 77 35  1  0  0  0  0
 89 82  1  0  0  0  0
103 94  1  0  0  0  0
115109  1  0  0  0  0
 10  5  1  0  0  0  0
 22 18  1  0  0  0  0
 34 30  2  0  0  0  0
 44 37  1  0  0  0  0
 76 45  2  0  0  0  0
 92 88  2  0  0  0  0
102 97  1  0  0  0  0
114110  1  0  0  0  0
 23  7  1  0  0  0  0
 75 47  2  0  0  0  0
115 99  1  0  0  0  0
 73 48  2  0  0  0  0
 53 49  2  0  0  0  0
 72 54  2  0  0  0  0
 70 55  2  0  0  0  0
 69 57  2  0  0  0  0
 66 59  1  0  0  0  0
  1116  1  0  0  0  0
  6117  1  0  0  0  0
  9118  1  0  0  0  0
 17119  1  0  0  0  0
 18120  1  0  0  0  0
 19121  1  0  0  0  0
 20122  1  0  0  0  0
 21123  1  0  0  0  0
 22124  1  0  0  0  0
 22125  1  0  0  0  0
 23126  1  0  0  0  0
 38127  1  0  0  0  0
 39128  1  0  0  0  0
 40129  1  0  0  0  0
 42130  1  0  0  0  0
 42131  1  0  0  0  0
 43132  1  0  0  0  0
 43133  1  0  0  0  0
 43134  1  0  0  0  0
 44135  1  0  0  0  0
 60136  1  0  0  0  0
 61137  1  0  0  0  0
 62138  1  0  0  0  0
 64139  1  0  0  0  0
 64140  1  0  0  0  0
 65141  1  0  0  0  0
 65142  1  0  0  0  0
 65143  1  0  0  0  0
 66144  1  0  0  0  0
 78145  1  0  0  0  0
 78146  1  0  0  0  0
 79147  1  0  0  0  0
 79148  1  0  0  0  0
 79149  1  0  0  0  0
 80150  1  0  0  0  0
 80151  1  0  0  0  0
 81152  1  0  0  0  0
 81153  1  0  0  0  0
 81154  1  0  0  0  0
 93155  1  0  0  0  0
 98156  1  0  0  0  0
101157  1  0  0  0  0
109158  1  0  0  0  0
110159  1  0  0  0  0
111160  1  0  0  0  0
112161  1  0  0  0  0
113162  1  0  0  0  0
114163  1  0  0  0  0
114164  1  0  0  0  0
115165  1  0  0  0  0
M  END
