
  xtb     02232217343D
 energy: -418.075823428076 gnorm: 0.000492513189 xtb: 6.4.1 (unknown)
251281  0     0  0            999 V2000
   -8.7034    4.4339    6.8414 C   0  0  0  0  0  0  0  0  0  0  0  0
   -9.4500    3.3493    7.2462 C   0  0  0  0  0  0  0  0  0  0  0  0
   -9.3575    1.9837    6.7275 C   0  0  0  0  0  0  0  0  0  0  0  0
   -8.7293    1.5878    5.7593 O   0  0  0  0  0  0  0  0  0  0  0  0
  -10.1753    1.1456    7.6246 C   0  0  0  0  0  0  0  0  0  0  0  0
  -10.3804   -0.2280    7.5337 C   0  0  0  0  0  0  0  0  0  0  0  0
  -11.1901   -0.7393    8.5197 C   0  0  0  0  0  0  0  0  0  0  0  0
  -11.7564    0.0592    9.5208 C   0  0  0  0  0  0  0  0  0  0  0  0
  -11.5694    1.4186    9.6152 C   0  0  0  0  0  0  0  0  0  0  0  0
  -10.7459    1.9578    8.6241 C   0  0  0  0  0  0  0  0  0  0  0  0
  -10.3397    3.3430    8.3819 C   0  0  0  0  0  0  0  0  0  0  0  0
  -10.7573    4.4305    9.1127 C   0  0  0  0  0  0  0  0  0  0  0  0
  -10.5078    5.7776    8.7896 C   0  0  0  0  0  0  0  0  0  0  0  0
  -10.3913    6.9031    8.5823 N   0  0  0  0  0  0  0  0  0  0  0  0
  -11.5266    4.3543   10.2894 C   0  0  0  0  0  0  0  0  0  0  0  0
  -12.1242    4.3742   11.2708 N   0  0  0  0  0  0  0  0  0  0  0  0
  -12.4457   -1.1120   10.1760 C   0  0  0  0  0  0  0  0  0  0  0  0
  -11.8184   -1.6908   11.4684 C   0  0  0  0  0  0  0  0  0  0  0  0
  -10.3439   -1.3794   11.4070 C   0  0  0  0  0  0  0  0  0  0  0  0
   -9.8094   -2.1357   10.4576 C   0  0  0  0  0  0  0  0  0  0  0  0
  -10.9134   -2.9721    9.8596 C   0  0  0  0  0  0  0  0  0  0  0  0
  -11.7955   -3.1831   11.1003 C   0  0  0  0  0  0  0  0  0  0  0  0
  -11.8161   -2.0017    9.0583 C   0  0  0  0  0  0  0  0  0  0  0  0
   -7.7479    4.5507    5.8347 C   0  0  0  0  0  0  0  0  0  0  0  0
   -6.9377    5.7021    5.6520 C   0  0  0  0  0  0  0  0  0  0  0  0
   -6.8474    6.7598    6.5159 N   0  0  0  0  0  0  0  0  0  0  0  0
   -6.4652    8.0175    6.0079 C   0  0  0  0  0  0  0  0  0  0  0  0
   -7.0694    8.5231    4.8605 C   0  0  0  0  0  0  0  0  0  0  0  0
   -6.6883    9.7533    4.3636 C   0  0  0  0  0  0  0  0  0  0  0  0
   -5.7052   10.5069    4.9925 C   0  0  0  0  0  0  0  0  0  0  0  0
   -5.2758   11.8263    4.4320 C   0  0  0  0  0  0  0  0  0  0  0  0
   -5.1155    9.9974    6.1434 C   0  0  0  0  0  0  0  0  0  0  0  0
   -5.4865    8.7689    6.6508 C   0  0  0  0  0  0  0  0  0  0  0  0
   -6.9682    6.6194    7.9124 C   0  0  0  0  0  0  0  0  0  0  0  0
   -7.5776    7.6257    8.6563 C   0  0  0  0  0  0  0  0  0  0  0  0
   -7.7148    7.4875   10.0234 C   0  0  0  0  0  0  0  0  0  0  0  0
   -7.2640    6.3486   10.6792 C   0  0  0  0  0  0  0  0  0  0  0  0
   -7.4813    6.1806   12.1511 C   0  0  0  0  0  0  0  0  0  0  0  0
   -6.6298    5.3628    9.9306 C   0  0  0  0  0  0  0  0  0  0  0  0
   -6.4684    5.4955    8.5665 C   0  0  0  0  0  0  0  0  0  0  0  0
   -6.1763    5.5951    4.4754 C   0  0  0  0  0  0  0  0  0  0  0  0
   -5.0098    6.6168    3.6920 S   0  0  0  0  0  0  0  0  0  0  0  0
   -4.7165    5.3716    2.4834 C   0  0  0  0  0  0  0  0  0  0  0  0
   -5.5253    4.2565    2.6578 C   0  0  0  0  0  0  0  0  0  0  0  0
   -5.5609    3.1552    1.8192 N   0  0  0  0  0  0  0  0  0  0  0  0
   -5.4788    3.2971    0.4312 C   0  0  0  0  0  0  0  0  0  0  0  0
   -4.8625    2.3138   -0.3398 C   0  0  0  0  0  0  0  0  0  0  0  0
   -4.7298    2.4818   -1.7041 C   0  0  0  0  0  0  0  0  0  0  0  0
   -5.1963    3.6264   -2.3376 C   0  0  0  0  0  0  0  0  0  0  0  0
   -5.0146    3.8315   -3.8106 C   0  0  0  0  0  0  0  0  0  0  0  0
   -5.8328    4.5920   -1.5654 C   0  0  0  0  0  0  0  0  0  0  0  0
   -5.9825    4.4301   -0.2041 C   0  0  0  0  0  0  0  0  0  0  0  0
   -5.8157    1.8995    2.3984 C   0  0  0  0  0  0  0  0  0  0  0  0
   -5.1726    1.5402    3.5799 C   0  0  0  0  0  0  0  0  0  0  0  0
   -5.4720    0.3420    4.1943 C   0  0  0  0  0  0  0  0  0  0  0  0
   -6.4057   -0.5289    3.6465 C   0  0  0  0  0  0  0  0  0  0  0  0
   -6.7659   -1.7964    4.3573 C   0  0  0  0  0  0  0  0  0  0  0  0
   -7.0153   -0.1777    2.4491 C   0  0  0  0  0  0  0  0  0  0  0  0
   -6.7304    1.0218    1.8275 C   0  0  0  0  0  0  0  0  0  0  0  0
   -6.3478    4.3919    3.8019 C   0  0  0  0  0  0  0  0  0  0  0  0
   -7.4533    3.3296    4.5929 S   0  0  0  0  0  0  0  0  0  0  0  0
   -3.6496    5.5288    1.5507 C   0  0  0  0  0  0  0  0  0  0  0  0
   -3.1525    6.6896    0.9883 C   0  0  0  0  0  0  0  0  0  0  0  0
   -3.7914    8.0038    1.0636 C   0  0  0  0  0  0  0  0  0  0  0  0
   -3.0233    9.1485    1.2565 C   0  0  0  0  0  0  0  0  0  0  0  0
   -3.6285   10.3903    1.2675 C   0  0  0  0  0  0  0  0  0  0  0  0
   -4.9948   10.5063    1.0783 C   0  0  0  0  0  0  0  0  0  0  0  0
   -5.7768    9.3754    0.8847 C   0  0  0  0  0  0  0  0  0  0  0  0
   -7.2506    9.4850    0.6139 C   0  0  0  0  0  0  0  0  0  0  0  0
   -7.5282    9.3788   -0.8867 C   0  0  0  0  0  0  0  0  0  0  0  0
   -5.1641    8.1327    0.8814 C   0  0  0  0  0  0  0  0  0  0  0  0
   -1.9790    6.4357    0.2471 C   0  0  0  0  0  0  0  0  0  0  0  0
   -0.9231    7.4556   -0.7023 S   0  0  0  0  0  0  0  0  0  0  0  0
    0.0343    6.0673   -1.1019 C   0  0  0  0  0  0  0  0  0  0  0  0
    1.2095    5.7407   -1.8066 C   0  0  0  0  0  0  0  0  0  0  0  0
    2.2184    6.5131   -2.4268 C   0  0  0  0  0  0  0  0  0  0  0  0
    3.4133    5.8610   -2.9042 C   0  0  0  0  0  0  0  0  0  0  0  0
    4.2999    6.7216   -3.3779 N   0  0  0  0  0  0  0  0  0  0  0  0
    3.6905    8.2158   -3.2492 S   0  0  0  0  0  0  0  0  0  0  0  0
    2.2698    7.8267   -2.5780 N   0  0  0  0  0  0  0  0  0  0  0  0
    3.4864    4.4495   -2.8831 C   0  0  0  0  0  0  0  0  0  0  0  0
    4.4228    3.5181   -3.3723 C   0  0  0  0  0  0  0  0  0  0  0  0
    6.0005    3.4910   -4.0837 S   0  0  0  0  0  0  0  0  0  0  0  0
    5.9214    1.7463   -4.1504 C   0  0  0  0  0  0  0  0  0  0  0  0
    6.8188    0.7652   -4.6215 C   0  0  0  0  0  0  0  0  0  0  0  0
    8.1048    1.0938   -5.2377 C   0  0  0  0  0  0  0  0  0  0  0  0
    8.5055    0.5048   -6.4342 C   0  0  0  0  0  0  0  0  0  0  0  0
    9.7073    0.8700   -7.0090 C   0  0  0  0  0  0  0  0  0  0  0  0
   10.5086    1.8290   -6.4124 C   0  0  0  0  0  0  0  0  0  0  0  0
   10.1160    2.4395   -5.2287 C   0  0  0  0  0  0  0  0  0  0  0  0
   10.9720    3.4765   -4.5607 C   0  0  0  0  0  0  0  0  0  0  0  0
   11.7217    2.8804   -3.3683 C   0  0  0  0  0  0  0  0  0  0  0  0
    8.9139    2.0605   -4.6501 C   0  0  0  0  0  0  0  0  0  0  0  0
    6.2922   -0.5038   -4.4559 C   0  0  0  0  0  0  0  0  0  0  0  0
    4.6821   -0.4904   -3.7531 S   0  0  0  0  0  0  0  0  0  0  0  0
    4.7204    1.2340   -3.6564 C   0  0  0  0  0  0  0  0  0  0  0  0
    3.8663    2.2455   -3.2053 C   0  0  0  0  0  0  0  0  0  0  0  0
    2.6308    2.3423   -2.6120 N   0  0  0  0  0  0  0  0  0  0  0  0
    2.4043    3.6863   -2.3776 C   0  0  0  0  0  0  0  0  0  0  0  0
    1.3571    4.3352   -1.6918 C   0  0  0  0  0  0  0  0  0  0  0  0
    0.3492    3.8248   -0.8937 N   0  0  0  0  0  0  0  0  0  0  0  0
   -0.4513    4.8825   -0.5410 C   0  0  0  0  0  0  0  0  0  0  0  0
   -1.5960    5.0953    0.2348 C   0  0  0  0  0  0  0  0  0  0  0  0
   -2.6662    4.1183    1.1685 S   0  0  0  0  0  0  0  0  0  0  0  0
    0.4418    2.6645   -0.0308 C   0  0  0  0  0  0  0  0  0  0  0  0
    0.8965    3.0560    1.3751 C   0  0  0  0  0  0  0  0  0  0  0  0
    1.6154    1.3380   -2.8575 C   0  0  0  0  0  0  0  0  0  0  0  0
    1.3714    1.1506   -4.3548 C   0  0  0  0  0  0  0  0  0  0  0  0
    6.8781   -1.7804   -4.6955 C   0  0  0  0  0  0  0  0  0  0  0  0
    6.2772   -3.0145   -4.6755 C   0  0  0  0  0  0  0  0  0  0  0  0
    7.2888   -3.9607   -4.9615 C   0  0  0  0  0  0  0  0  0  0  0  0
    7.2899   -5.3613   -5.0863 C   0  0  0  0  0  0  0  0  0  0  0  0
    6.1343   -6.2137   -4.9731 C   0  0  0  0  0  0  0  0  0  0  0  0
    6.1168   -7.5457   -4.6543 C   0  0  0  0  0  0  0  0  0  0  0  0
    4.8212   -8.0875   -4.7146 C   0  0  0  0  0  0  0  0  0  0  0  0
    4.5795   -9.3815   -4.4275 F   0  0  0  0  0  0  0  0  0  0  0  0
    3.8379   -7.2184   -5.0842 C   0  0  0  0  0  0  0  0  0  0  0  0
    2.3847   -7.4875   -5.2618 C   0  0  0  0  0  0  0  0  0  0  0  0
    1.5245   -6.5807   -4.3830 C   0  0  0  0  0  0  0  0  0  0  0  0
    4.5288   -5.6548   -5.3499 S   0  0  0  0  0  0  0  0  0  0  0  0
    8.5384   -5.8915   -5.3953 C   0  0  0  0  0  0  0  0  0  0  0  0
    9.7232   -5.1406   -5.6075 C   0  0  0  0  0  0  0  0  0  0  0  0
    9.7244   -3.7343   -5.4627 C   0  0  0  0  0  0  0  0  0  0  0  0
   10.8806   -2.8980   -5.6476 C   0  0  0  0  0  0  0  0  0  0  0  0
   12.2694   -3.4381   -6.5529 S   0  0  0  0  0  0  0  0  0  0  0  0
   13.1065   -1.9474   -6.3098 C   0  0  0  0  0  0  0  0  0  0  0  0
   14.4810   -1.7123   -6.8326 C   0  0  0  0  0  0  0  0  0  0  0  0
   15.5042   -2.6164   -6.1434 C   0  0  0  0  0  0  0  0  0  0  0  0
   12.3282   -1.1108   -5.5633 C   0  0  0  0  0  0  0  0  0  0  0  0
   11.0726   -1.6186   -5.1918 C   0  0  0  0  0  0  0  0  0  0  0  0
   12.7462    0.1164   -5.2029 F   0  0  0  0  0  0  0  0  0  0  0  0
    8.4788   -3.2033   -5.1283 C   0  0  0  0  0  0  0  0  0  0  0  0
    8.2084   -1.8878   -4.9586 O   0  0  0  0  0  0  0  0  0  0  0  0
   10.7045   -6.1000   -5.9593 C   0  0  0  0  0  0  0  0  0  0  0  0
   10.0795   -7.3258   -5.9726 C   0  0  0  0  0  0  0  0  0  0  0  0
    8.7742   -7.2007   -5.6022 O   0  0  0  0  0  0  0  0  0  0  0  0
   10.5731   -8.6233   -6.2740 C   0  0  0  0  0  0  0  0  0  0  0  0
    9.8146   -9.7336   -6.4626 C   0  0  0  0  0  0  0  0  0  0  0  0
   10.4022  -11.0947   -6.3056 C   0  0  0  0  0  0  0  0  0  0  0  0
   11.5764  -11.3843   -6.3328 O   0  0  0  0  0  0  0  0  0  0  0  0
    9.2515  -11.9786   -6.0372 C   0  0  0  0  0  0  0  0  0  0  0  0
    9.2858  -13.3218   -5.6675 C   0  0  0  0  0  0  0  0  0  0  0  0
    8.0471  -13.8734   -5.4443 C   0  0  0  0  0  0  0  0  0  0  0  0
    6.8555  -13.1435   -5.5615 C   0  0  0  0  0  0  0  0  0  0  0  0
    6.8023  -11.8203   -5.9290 C   0  0  0  0  0  0  0  0  0  0  0  0
    8.0514  -11.2474   -6.1785 C   0  0  0  0  0  0  0  0  0  0  0  0
    8.3811   -9.8983   -6.6232 C   0  0  0  0  0  0  0  0  0  0  0  0
    7.5389   -9.0551   -7.2953 C   0  0  0  0  0  0  0  0  0  0  0  0
    6.1627   -9.2840   -7.4929 C   0  0  0  0  0  0  0  0  0  0  0  0
    5.0344   -9.3875   -7.6795 N   0  0  0  0  0  0  0  0  0  0  0  0
    7.9737   -7.8826   -7.9512 C   0  0  0  0  0  0  0  0  0  0  0  0
    8.2927   -6.9547   -8.5466 N   0  0  0  0  0  0  0  0  0  0  0  0
    6.0007  -14.3257   -5.1813 C   0  0  0  0  0  0  0  0  0  0  0  0
    5.2463  -15.0600   -6.3169 C   0  0  0  0  0  0  0  0  0  0  0  0
    6.0417  -14.8272   -7.5776 C   0  0  0  0  0  0  0  0  0  0  0  0
    7.1691  -15.5187   -7.4779 C   0  0  0  0  0  0  0  0  0  0  0  0
    7.1565  -16.2313   -6.1480 C   0  0  0  0  0  0  0  0  0  0  0  0
    5.6517  -16.5092   -6.0040 C   0  0  0  0  0  0  0  0  0  0  0  0
    7.3265  -15.1413   -5.0604 C   0  0  0  0  0  0  0  0  0  0  0  0
   -8.8537    5.3414    7.4112 H   0  0  0  0  0  0  0  0  0  0  0  0
   -9.9299   -0.8044    6.7406 H   0  0  0  0  0  0  0  0  0  0  0  0
  -12.0189    2.0195   10.3881 H   0  0  0  0  0  0  0  0  0  0  0  0
  -13.5311   -1.0561   10.2320 H   0  0  0  0  0  0  0  0  0  0  0  0
  -12.3307   -1.4084   12.3842 H   0  0  0  0  0  0  0  0  0  0  0  0
   -9.8669   -0.6222   12.0013 H   0  0  0  0  0  0  0  0  0  0  0  0
   -8.7963   -2.1366   10.1001 H   0  0  0  0  0  0  0  0  0  0  0  0
  -10.6018   -3.8572    9.3107 H   0  0  0  0  0  0  0  0  0  0  0  0
  -11.3146   -3.7975   11.8601 H   0  0  0  0  0  0  0  0  0  0  0  0
  -12.7799   -3.5878   10.8689 H   0  0  0  0  0  0  0  0  0  0  0  0
  -12.4917   -2.5251    8.3843 H   0  0  0  0  0  0  0  0  0  0  0  0
   -7.8439    7.9509    4.3712 H   0  0  0  0  0  0  0  0  0  0  0  0
   -7.1662   10.1371    3.4757 H   0  0  0  0  0  0  0  0  0  0  0  0
   -4.4772   11.6707    3.7065 H   0  0  0  0  0  0  0  0  0  0  0  0
   -6.1013   12.3190    3.9239 H   0  0  0  0  0  0  0  0  0  0  0  0
   -4.9013   12.4797    5.2162 H   0  0  0  0  0  0  0  0  0  0  0  0
   -4.3497   10.5687    6.6475 H   0  0  0  0  0  0  0  0  0  0  0  0
   -5.0181    8.3810    7.5433 H   0  0  0  0  0  0  0  0  0  0  0  0
   -7.9570    8.5032    8.1566 H   0  0  0  0  0  0  0  0  0  0  0  0
   -8.2038    8.2681   10.5860 H   0  0  0  0  0  0  0  0  0  0  0  0
   -6.7943    5.4476   12.5673 H   0  0  0  0  0  0  0  0  0  0  0  0
   -7.3500    7.1265   12.6719 H   0  0  0  0  0  0  0  0  0  0  0  0
   -8.4998    5.8372   12.3372 H   0  0  0  0  0  0  0  0  0  0  0  0
   -6.2504    4.4793   10.4238 H   0  0  0  0  0  0  0  0  0  0  0  0
   -5.9684    4.7234    8.0000 H   0  0  0  0  0  0  0  0  0  0  0  0
   -4.4790    1.4271    0.1428 H   0  0  0  0  0  0  0  0  0  0  0  0
   -4.2420    1.7122   -2.2855 H   0  0  0  0  0  0  0  0  0  0  0  0
   -5.9329    4.2001   -4.2641 H   0  0  0  0  0  0  0  0  0  0  0  0
   -4.2339    4.5708   -3.9928 H   0  0  0  0  0  0  0  0  0  0  0  0
   -4.7287    2.9042   -4.3009 H   0  0  0  0  0  0  0  0  0  0  0  0
   -6.2217    5.4809   -2.0414 H   0  0  0  0  0  0  0  0  0  0  0  0
   -6.5019    5.1758    0.3795 H   0  0  0  0  0  0  0  0  0  0  0  0
   -4.4458    2.2123    4.0136 H   0  0  0  0  0  0  0  0  0  0  0  0
   -4.9783    0.0805    5.1190 H   0  0  0  0  0  0  0  0  0  0  0  0
   -7.4392   -1.5660    5.1830 H   0  0  0  0  0  0  0  0  0  0  0  0
   -5.8810   -2.2766    4.7709 H   0  0  0  0  0  0  0  0  0  0  0  0
   -7.2678   -2.4924    3.6897 H   0  0  0  0  0  0  0  0  0  0  0  0
   -7.7414   -0.8431    2.0046 H   0  0  0  0  0  0  0  0  0  0  0  0
   -7.2276    1.2938    0.9078 H   0  0  0  0  0  0  0  0  0  0  0  0
   -1.9576    9.0616    1.4041 H   0  0  0  0  0  0  0  0  0  0  0  0
   -3.0269   11.2759    1.4135 H   0  0  0  0  0  0  0  0  0  0  0  0
   -5.4574   11.4830    1.0736 H   0  0  0  0  0  0  0  0  0  0  0  0
   -7.7821    8.6854    1.1353 H   0  0  0  0  0  0  0  0  0  0  0  0
   -7.6276   10.4427    0.9787 H   0  0  0  0  0  0  0  0  0  0  0  0
   -8.5949    9.4588   -1.0839 H   0  0  0  0  0  0  0  0  0  0  0  0
   -7.1740    8.4252   -1.2714 H   0  0  0  0  0  0  0  0  0  0  0  0
   -7.0147   10.1741   -1.4225 H   0  0  0  0  0  0  0  0  0  0  0  0
   -5.7583    7.2478    0.7094 H   0  0  0  0  0  0  0  0  0  0  0  0
    7.8685   -0.2191   -6.9194 H   0  0  0  0  0  0  0  0  0  0  0  0
   10.0176    0.4092   -7.9358 H   0  0  0  0  0  0  0  0  0  0  0  0
   11.4449    2.1099   -6.8718 H   0  0  0  0  0  0  0  0  0  0  0  0
   10.3415    4.2994   -4.2155 H   0  0  0  0  0  0  0  0  0  0  0  0
   11.6934    3.8745   -5.2762 H   0  0  0  0  0  0  0  0  0  0  0  0
   11.0206    2.4906   -2.6337 H   0  0  0  0  0  0  0  0  0  0  0  0
   12.3376    3.6389   -2.8905 H   0  0  0  0  0  0  0  0  0  0  0  0
   12.3630    2.0677   -3.6975 H   0  0  0  0  0  0  0  0  0  0  0  0
    8.6031    2.5210   -3.7233 H   0  0  0  0  0  0  0  0  0  0  0  0
   -0.5432    2.1891    0.0160 H   0  0  0  0  0  0  0  0  0  0  0  0
    1.1667    1.9657   -0.4432 H   0  0  0  0  0  0  0  0  0  0  0  0
    1.0059    2.1627    1.9837 H   0  0  0  0  0  0  0  0  0  0  0  0
    0.1720    3.7110    1.8503 H   0  0  0  0  0  0  0  0  0  0  0  0
    1.8550    3.5687    1.3290 H   0  0  0  0  0  0  0  0  0  0  0  0
    0.6825    1.6571   -2.3957 H   0  0  0  0  0  0  0  0  0  0  0  0
    1.9428    0.3917   -2.4147 H   0  0  0  0  0  0  0  0  0  0  0  0
    1.0889    2.0978   -4.8094 H   0  0  0  0  0  0  0  0  0  0  0  0
    0.5665    0.4365   -4.5046 H   0  0  0  0  0  0  0  0  0  0  0  0
    2.2616    0.7757   -4.8514 H   0  0  0  0  0  0  0  0  0  0  0  0
    5.2419   -3.2065   -4.4844 H   0  0  0  0  0  0  0  0  0  0  0  0
    6.9794   -8.1141   -4.3624 H   0  0  0  0  0  0  0  0  0  0  0  0
    2.2012   -8.5356   -5.0170 H   0  0  0  0  0  0  0  0  0  0  0  0
    2.1172   -7.3338   -6.3109 H   0  0  0  0  0  0  0  0  0  0  0  0
    1.7026   -5.5368   -4.6320 H   0  0  0  0  0  0  0  0  0  0  0  0
    1.7625   -6.7314   -3.3324 H   0  0  0  0  0  0  0  0  0  0  0  0
    0.4712   -6.8012   -4.5355 H   0  0  0  0  0  0  0  0  0  0  0  0
   14.7381   -0.6645   -6.6632 H   0  0  0  0  0  0  0  0  0  0  0  0
   14.5007   -1.9030   -7.9087 H   0  0  0  0  0  0  0  0  0  0  0  0
   16.4988   -2.4233   -6.5364 H   0  0  0  0  0  0  0  0  0  0  0  0
   15.5121   -2.4321   -5.0716 H   0  0  0  0  0  0  0  0  0  0  0  0
   15.2577   -3.6619   -6.3142 H   0  0  0  0  0  0  0  0  0  0  0  0
   10.3630   -1.0643   -4.6090 H   0  0  0  0  0  0  0  0  0  0  0  0
   11.7330   -5.9289   -6.1987 H   0  0  0  0  0  0  0  0  0  0  0  0
   11.6478   -8.7501   -6.2663 H   0  0  0  0  0  0  0  0  0  0  0  0
   10.2229  -13.8482   -5.5749 H   0  0  0  0  0  0  0  0  0  0  0  0
    5.8840  -11.2606   -5.9996 H   0  0  0  0  0  0  0  0  0  0  0  0
    5.3923  -14.2046   -4.2875 H   0  0  0  0  0  0  0  0  0  0  0  0
    4.1844  -14.8364   -6.3711 H   0  0  0  0  0  0  0  0  0  0  0  0
    5.7382  -14.1581   -8.3613 H   0  0  0  0  0  0  0  0  0  0  0  0
    7.9966  -15.5433   -8.1626 H   0  0  0  0  0  0  0  0  0  0  0  0
    7.8334  -17.0760   -6.0496 H   0  0  0  0  0  0  0  0  0  0  0  0
    5.3640  -16.8345   -5.0051 H   0  0  0  0  0  0  0  0  0  0  0  0
    5.2821  -17.2187   -6.7428 H   0  0  0  0  0  0  0  0  0  0  0  0
    7.5816  -15.5616   -4.0894 H   0  0  0  0  0  0  0  0  0  0  0  0
  1  2  2  0  0  0  0
  2  3  1  0  0  0  0
  3  4  2  0  0  0  0
  3  5  1  0  0  0  0
  5  6  2  0  0  0  0
  6  7  1  0  0  0  0
  7  8  2  0  0  0  0
  8  9  1  0  0  0  0
  9 10  2  0  0  0  0
 10 11  1  0  0  0  0
 11 12  2  0  0  0  0
 12 13  1  0  0  0  0
 13 14  3  0  0  0  0
 12 15  1  0  0  0  0
 15 16  3  0  0  0  0
  8 17  1  0  0  0  0
 17 18  1  0  0  0  0
 18 19  1  0  0  0  0
 19 20  2  0  0  0  0
 20 21  1  0  0  0  0
 21 22  1  0  0  0  0
 21 23  1  0  0  0  0
  1 24  1  0  0  0  0
 24 25  2  0  0  0  0
 25 26  1  0  0  0  0
 26 27  1  0  0  0  0
 27 28  2  0  0  0  0
 28 29  1  0  0  0  0
 29 30  2  0  0  0  0
 30 31  1  0  0  0  0
 30 32  1  0  0  0  0
 32 33  2  0  0  0  0
 26 34  1  0  0  0  0
 34 35  2  0  0  0  0
 35 36  1  0  0  0  0
 36 37  2  0  0  0  0
 37 38  1  0  0  0  0
 37 39  1  0  0  0  0
 39 40  2  0  0  0  0
 25 41  1  0  0  0  0
 41 42  1  0  0  0  0
 42 43  1  0  0  0  0
 43 44  2  0  0  0  0
 44 45  1  0  0  0  0
 45 46  1  0  0  0  0
 46 47  2  0  0  0  0
 47 48  1  0  0  0  0
 48 49  2  0  0  0  0
 49 50  1  0  0  0  0
 49 51  1  0  0  0  0
 51 52  2  0  0  0  0
 45 53  1  0  0  0  0
 53 54  2  0  0  0  0
 54 55  1  0  0  0  0
 55 56  2  0  0  0  0
 56 57  1  0  0  0  0
 56 58  1  0  0  0  0
 58 59  2  0  0  0  0
 44 60  1  0  0  0  0
 60 61  1  0  0  0  0
 43 62  1  0  0  0  0
 62 63  2  0  0  0  0
 63 64  1  0  0  0  0
 64 65  2  0  0  0  0
 65 66  1  0  0  0  0
 66 67  2  0  0  0  0
 67 68  1  0  0  0  0
 68 69  1  0  0  0  0
 69 70  1  0  0  0  0
 68 71  2  0  0  0  0
 63 72  1  0  0  0  0
 72 73  1  0  0  0  0
 73 74  1  0  0  0  0
 74 75  1  0  0  0  0
 75 76  1  0  0  0  0
 76 77  1  0  0  0  0
 77 78  2  0  0  0  0
 78 79  1  0  0  0  0
 79 80  1  0  0  0  0
 77 81  1  0  0  0  0
 81 82  1  0  0  0  0
 82 83  1  0  0  0  0
 83 84  1  0  0  0  0
 84 85  1  0  0  0  0
 85 86  1  0  0  0  0
 86 87  2  0  0  0  0
 87 88  1  0  0  0  0
 88 89  2  0  0  0  0
 89 90  1  0  0  0  0
 90 91  1  0  0  0  0
 91 92  1  0  0  0  0
 90 93  2  0  0  0  0
 85 94  2  0  0  0  0
 94 95  1  0  0  0  0
 95 96  1  0  0  0  0
 96 97  1  0  0  0  0
 97 98  1  0  0  0  0
 98 99  1  0  0  0  0
 99100  1  0  0  0  0
100101  1  0  0  0  0
101102  1  0  0  0  0
102103  1  0  0  0  0
103104  1  0  0  0  0
101105  1  0  0  0  0
105106  1  0  0  0  0
 98107  1  0  0  0  0
107108  1  0  0  0  0
 94109  1  0  0  0  0
109110  2  0  0  0  0
110111  1  0  0  0  0
111112  2  0  0  0  0
112113  1  0  0  0  0
113114  2  0  0  0  0
114115  1  0  0  0  0
115116  1  0  0  0  0
115117  2  0  0  0  0
117118  1  0  0  0  0
118119  1  0  0  0  0
117120  1  0  0  0  0
112121  1  0  0  0  0
121122  2  0  0  0  0
122123  1  0  0  0  0
123124  1  0  0  0  0
124125  1  0  0  0  0
125126  1  0  0  0  0
126127  1  0  0  0  0
127128  1  0  0  0  0
126129  2  0  0  0  0
129130  1  0  0  0  0
129131  1  0  0  0  0
123132  2  0  0  0  0
132133  1  0  0  0  0
122134  1  0  0  0  0
134135  2  0  0  0  0
135136  1  0  0  0  0
135137  1  0  0  0  0
137138  2  0  0  0  0
138139  1  0  0  0  0
139140  2  0  0  0  0
139141  1  0  0  0  0
141142  2  0  0  0  0
142143  1  0  0  0  0
143144  2  0  0  0  0
144145  1  0  0  0  0
145146  2  0  0  0  0
146147  1  0  0  0  0
147148  2  0  0  0  0
148149  1  0  0  0  0
149150  3  0  0  0  0
148151  1  0  0  0  0
151152  3  0  0  0  0
144153  1  0  0  0  0
153154  1  0  0  0  0
154155  1  0  0  0  0
155156  2  0  0  0  0
156157  1  0  0  0  0
157158  1  0  0  0  0
157159  1  0  0  0  0
 11  2  1  0  0  0  0
 23 17  1  0  0  0  0
 61 24  1  0  0  0  0
104 62  1  0  0  0  0
133109  1  0  0  0  0
147138  1  0  0  0  0
159153  1  0  0  0  0
 10  5  1  0  0  0  0
 22 18  1  0  0  0  0
 33 27  1  0  0  0  0
 40 34  1  0  0  0  0
 60 41  2  0  0  0  0
 71 64  1  0  0  0  0
103 72  2  0  0  0  0
132111  1  0  0  0  0
146141  1  0  0  0  0
158154  1  0  0  0  0
 23  7  1  0  0  0  0
 52 46  1  0  0  0  0
 59 53  1  0  0  0  0
102 74  2  0  0  0  0
120113  1  0  0  0  0
136121  1  0  0  0  0
159143  1  0  0  0  0
100 75  2  0  0  0  0
130124  2  0  0  0  0
 80 76  2  0  0  0  0
 99 81  2  0  0  0  0
 97 82  2  0  0  0  0
 96 84  2  0  0  0  0
 93 86  1  0  0  0  0
  1160  1  0  0  0  0
  6161  1  0  0  0  0
  9162  1  0  0  0  0
 17163  1  0  0  0  0
 18164  1  0  0  0  0
 19165  1  0  0  0  0
 20166  1  0  0  0  0
 21167  1  0  0  0  0
 22168  1  0  0  0  0
 22169  1  0  0  0  0
 23170  1  0  0  0  0
 28171  1  0  0  0  0
 29172  1  0  0  0  0
 31173  1  0  0  0  0
 31174  1  0  0  0  0
 31175  1  0  0  0  0
 32176  1  0  0  0  0
 33177  1  0  0  0  0
 35178  1  0  0  0  0
 36179  1  0  0  0  0
 38180  1  0  0  0  0
 38181  1  0  0  0  0
 38182  1  0  0  0  0
 39183  1  0  0  0  0
 40184  1  0  0  0  0
 47185  1  0  0  0  0
 48186  1  0  0  0  0
 50187  1  0  0  0  0
 50188  1  0  0  0  0
 50189  1  0  0  0  0
 51190  1  0  0  0  0
 52191  1  0  0  0  0
 54192  1  0  0  0  0
 55193  1  0  0  0  0
 57194  1  0  0  0  0
 57195  1  0  0  0  0
 57196  1  0  0  0  0
 58197  1  0  0  0  0
 59198  1  0  0  0  0
 65199  1  0  0  0  0
 66200  1  0  0  0  0
 67201  1  0  0  0  0
 69202  1  0  0  0  0
 69203  1  0  0  0  0
 70204  1  0  0  0  0
 70205  1  0  0  0  0
 70206  1  0  0  0  0
 71207  1  0  0  0  0
 87208  1  0  0  0  0
 88209  1  0  0  0  0
 89210  1  0  0  0  0
 91211  1  0  0  0  0
 91212  1  0  0  0  0
 92213  1  0  0  0  0
 92214  1  0  0  0  0
 92215  1  0  0  0  0
 93216  1  0  0  0  0
105217  1  0  0  0  0
105218  1  0  0  0  0
106219  1  0  0  0  0
106220  1  0  0  0  0
106221  1  0  0  0  0
107222  1  0  0  0  0
107223  1  0  0  0  0
108224  1  0  0  0  0
108225  1  0  0  0  0
108226  1  0  0  0  0
110227  1  0  0  0  0
114228  1  0  0  0  0
118229  1  0  0  0  0
118230  1  0  0  0  0
119231  1  0  0  0  0
119232  1  0  0  0  0
119233  1  0  0  0  0
127234  1  0  0  0  0
127235  1  0  0  0  0
128236  1  0  0  0  0
128237  1  0  0  0  0
128238  1  0  0  0  0
130239  1  0  0  0  0
134240  1  0  0  0  0
137241  1  0  0  0  0
142242  1  0  0  0  0
145243  1  0  0  0  0
153244  1  0  0  0  0
154245  1  0  0  0  0
155246  1  0  0  0  0
156247  1  0  0  0  0
157248  1  0  0  0  0
158249  1  0  0  0  0
158250  1  0  0  0  0
159251  1  0  0  0  0
M  END
