
  xtb     02092207103D
 energy: -504.624894544578 gnorm: 0.000432726748 xtb: 6.4.1 (unknown)
320354  0     0  0            999 V2000
   -4.9163   -2.3923    2.9481 C   0  0  0  0  0  0  0  0  0  0  0  0
   -4.1387   -3.5207    2.8384 C   0  0  0  0  0  0  0  0  0  0  0  0
   -3.9605   -4.1485    1.5148 C   0  0  0  0  0  0  0  0  0  0  0  0
   -4.6596   -4.0109    0.5304 O   0  0  0  0  0  0  0  0  0  0  0  0
   -2.6904   -4.9045    1.6131 C   0  0  0  0  0  0  0  0  0  0  0  0
   -1.9850   -5.5156    0.5798 C   0  0  0  0  0  0  0  0  0  0  0  0
   -0.7712   -6.0373    0.9605 C   0  0  0  0  0  0  0  0  0  0  0  0
   -0.3011   -5.9803    2.2778 C   0  0  0  0  0  0  0  0  0  0  0  0
   -1.0035   -5.4152    3.3167 C   0  0  0  0  0  0  0  0  0  0  0  0
   -2.2225   -4.8513    2.9425 C   0  0  0  0  0  0  0  0  0  0  0  0
   -3.1991   -4.1163    3.7450 C   0  0  0  0  0  0  0  0  0  0  0  0
   -3.3349   -4.1700    5.1134 C   0  0  0  0  0  0  0  0  0  0  0  0
   -2.3923   -4.7443    5.9797 C   0  0  0  0  0  0  0  0  0  0  0  0
   -1.6281   -5.1752    6.7230 N   0  0  0  0  0  0  0  0  0  0  0  0
   -4.5067   -3.7163    5.7515 C   0  0  0  0  0  0  0  0  0  0  0  0
   -5.4858   -3.4168    6.2726 N   0  0  0  0  0  0  0  0  0  0  0  0
    1.0138   -6.6260    1.9214 C   0  0  0  0  0  0  0  0  0  0  0  0
    2.2501   -5.7027    1.7837 C   0  0  0  0  0  0  0  0  0  0  0  0
    1.7415   -4.3385    1.3879 C   0  0  0  0  0  0  0  0  0  0  0  0
    1.2981   -4.4147    0.1401 C   0  0  0  0  0  0  0  0  0  0  0  0
    1.4957   -5.8331   -0.3298 C   0  0  0  0  0  0  0  0  0  0  0  0
    2.7833   -6.1929    0.4283 C   0  0  0  0  0  0  0  0  0  0  0  0
    0.4844   -6.7037    0.4549 C   0  0  0  0  0  0  0  0  0  0  0  0
   -4.7565   -1.3007    3.8032 C   0  0  0  0  0  0  0  0  0  0  0  0
   -5.3927   -0.0518    3.6181 C   0  0  0  0  0  0  0  0  0  0  0  0
   -6.4950    0.1537    2.8354 N   0  0  0  0  0  0  0  0  0  0  0  0
   -6.6019    1.3757    2.1394 C   0  0  0  0  0  0  0  0  0  0  0  0
   -5.5020    1.8651    1.4378 C   0  0  0  0  0  0  0  0  0  0  0  0
   -5.5817    3.0749    0.7807 C   0  0  0  0  0  0  0  0  0  0  0  0
   -6.7559    3.8205    0.7943 C   0  0  0  0  0  0  0  0  0  0  0  0
   -6.8139    5.1414    0.0922 C   0  0  0  0  0  0  0  0  0  0  0  0
   -7.8536    3.3123    1.4770 C   0  0  0  0  0  0  0  0  0  0  0  0
   -7.7846    2.1051    2.1466 C   0  0  0  0  0  0  0  0  0  0  0  0
   -7.5371   -0.7875    2.7630 C   0  0  0  0  0  0  0  0  0  0  0  0
   -8.2639   -0.9313    1.5848 C   0  0  0  0  0  0  0  0  0  0  0  0
   -9.2973   -1.8449    1.5169 C   0  0  0  0  0  0  0  0  0  0  0  0
   -9.6283   -2.6371    2.6092 C   0  0  0  0  0  0  0  0  0  0  0  0
  -10.7281   -3.6496    2.5200 C   0  0  0  0  0  0  0  0  0  0  0  0
   -8.8966   -2.4835    3.7818 C   0  0  0  0  0  0  0  0  0  0  0  0
   -7.8677   -1.5687    3.8679 C   0  0  0  0  0  0  0  0  0  0  0  0
   -4.6948    0.9720    4.2822 C   0  0  0  0  0  0  0  0  0  0  0  0
   -4.8243    2.6991    4.3138 S   0  0  0  0  0  0  0  0  0  0  0  0
   -3.3246    2.8231    5.2237 C   0  0  0  0  0  0  0  0  0  0  0  0
   -2.8567    1.5697    5.6363 C   0  0  0  0  0  0  0  0  0  0  0  0
   -1.7804    1.3337    6.4728 N   0  0  0  0  0  0  0  0  0  0  0  0
   -1.5529    2.1013    7.6182 C   0  0  0  0  0  0  0  0  0  0  0  0
   -0.2650    2.1854    8.1492 C   0  0  0  0  0  0  0  0  0  0  0  0
   -0.0140    2.9763    9.2527 C   0  0  0  0  0  0  0  0  0  0  0  0
   -1.0272    3.7089    9.8573 C   0  0  0  0  0  0  0  0  0  0  0  0
   -0.7584    4.5679   11.0549 C   0  0  0  0  0  0  0  0  0  0  0  0
   -2.3101    3.6117    9.3301 C   0  0  0  0  0  0  0  0  0  0  0  0
   -2.5767    2.8217    8.2309 C   0  0  0  0  0  0  0  0  0  0  0  0
   -1.0294    0.1581    6.2561 C   0  0  0  0  0  0  0  0  0  0  0  0
   -0.8046   -0.7442    7.2923 C   0  0  0  0  0  0  0  0  0  0  0  0
   -0.0924   -1.9012    7.0571 C   0  0  0  0  0  0  0  0  0  0  0  0
    0.4093   -2.1923    5.7921 C   0  0  0  0  0  0  0  0  0  0  0  0
    1.1948   -3.4471    5.5703 C   0  0  0  0  0  0  0  0  0  0  0  0
    0.1773   -1.2883    4.7644 C   0  0  0  0  0  0  0  0  0  0  0  0
   -0.5301   -0.1213    4.9882 C   0  0  0  0  0  0  0  0  0  0  0  0
   -3.6120    0.5383    5.0392 C   0  0  0  0  0  0  0  0  0  0  0  0
   -3.4134   -1.1749    4.9453 S   0  0  0  0  0  0  0  0  0  0  0  0
   -2.6310    4.0583    5.1734 C   0  0  0  0  0  0  0  0  0  0  0  0
   -3.3370    5.3377    4.1714 S   0  0  0  0  0  0  0  0  0  0  0  0
   -1.8005    6.1146    4.0636 C   0  0  0  0  0  0  0  0  0  0  0  0
   -1.1014    6.9930    3.2425 C   0  0  0  0  0  0  0  0  0  0  0  0
   -1.3730    7.8483    1.7563 S   0  0  0  0  0  0  0  0  0  0  0  0
    0.3461    7.8578    1.4971 C   0  0  0  0  0  0  0  0  0  0  0  0
    1.0959    7.7961    0.2791 C   0  0  0  0  0  0  0  0  0  0  0  0
    0.6016    7.7485   -1.0225 C   0  0  0  0  0  0  0  0  0  0  0  0
    1.3553    7.0744   -1.9552 C   0  0  0  0  0  0  0  0  0  0  0  0
    0.8571    6.4829   -3.2726 C   0  0  0  0  0  0  0  0  0  0  0  0
   -0.5287    5.9099   -3.0225 C   0  0  0  0  0  0  0  0  0  0  0  0
   -0.6925    5.0206   -1.9677 C   0  0  0  0  0  0  0  0  0  0  0  0
   -1.9509    4.5284   -1.6684 C   0  0  0  0  0  0  0  0  0  0  0  0
   -3.0467    4.9076   -2.4163 C   0  0  0  0  0  0  0  0  0  0  0  0
   -2.8912    5.7868   -3.4879 C   0  0  0  0  0  0  0  0  0  0  0  0
   -4.0274    6.0743   -4.1800 O   0  0  0  0  0  0  0  0  0  0  0  0
   -4.0039    7.0443   -5.2078 C   0  0  0  0  0  0  0  0  0  0  0  0
   -3.9404    8.4728   -4.6753 C   0  0  0  0  0  0  0  0  0  0  0  0
   -1.6260    6.2841   -3.7845 C   0  0  0  0  0  0  0  0  0  0  0  0
    0.8866    7.5025   -4.3964 C   0  0  0  0  0  0  0  0  0  0  0  0
    0.3872    8.7827   -4.2004 C   0  0  0  0  0  0  0  0  0  0  0  0
    0.3974    9.6957   -5.2418 C   0  0  0  0  0  0  0  0  0  0  0  0
    0.9074    9.3515   -6.4760 C   0  0  0  0  0  0  0  0  0  0  0  0
    1.4229    8.0719   -6.6833 C   0  0  0  0  0  0  0  0  0  0  0  0
    1.8947    7.8189   -7.9347 O   0  0  0  0  0  0  0  0  0  0  0  0
    2.5329    6.5887   -8.2130 C   0  0  0  0  0  0  0  0  0  0  0  0
    3.9424    6.5028   -7.6344 C   0  0  0  0  0  0  0  0  0  0  0  0
    1.4018    7.1550   -5.6390 C   0  0  0  0  0  0  0  0  0  0  0  0
    1.8842    5.3917   -3.4850 C   0  0  0  0  0  0  0  0  0  0  0  0
    2.9358    5.5553   -2.6000 C   0  0  0  0  0  0  0  0  0  0  0  0
    2.6200    6.5471   -1.6178 C   0  0  0  0  0  0  0  0  0  0  0  0
    3.1768    6.7266   -0.3526 C   0  0  0  0  0  0  0  0  0  0  0  0
    2.3806    7.3109    0.6046 C   0  0  0  0  0  0  0  0  0  0  0  0
    2.5346    7.1806    2.1175 C   0  0  0  0  0  0  0  0  0  0  0  0
    3.4215    8.2526    2.7175 C   0  0  0  0  0  0  0  0  0  0  0  0
    4.5006    8.7720    2.0100 C   0  0  0  0  0  0  0  0  0  0  0  0
    5.3016    9.7350    2.5913 C   0  0  0  0  0  0  0  0  0  0  0  0
    5.0591   10.1944    3.8753 C   0  0  0  0  0  0  0  0  0  0  0  0
    3.9825    9.6827    4.5901 C   0  0  0  0  0  0  0  0  0  0  0  0
    3.6094   10.0484    5.8479 O   0  0  0  0  0  0  0  0  0  0  0  0
    4.4048   10.9562    6.5827 C   0  0  0  0  0  0  0  0  0  0  0  0
    5.6605   10.3061    7.1570 C   0  0  0  0  0  0  0  0  0  0  0  0
    3.1704    8.7166    3.9962 C   0  0  0  0  0  0  0  0  0  0  0  0
    3.0245    5.7738    2.4144 C   0  0  0  0  0  0  0  0  0  0  0  0
    4.2767    5.5149    2.9580 C   0  0  0  0  0  0  0  0  0  0  0  0
    4.6656    4.2070    3.1823 C   0  0  0  0  0  0  0  0  0  0  0  0
    3.8345    3.1448    2.8725 C   0  0  0  0  0  0  0  0  0  0  0  0
    2.5831    3.3936    2.3161 C   0  0  0  0  0  0  0  0  0  0  0  0
    1.6569    2.4546    1.9830 O   0  0  0  0  0  0  0  0  0  0  0  0
    1.9977    1.0822    2.0106 C   0  0  0  0  0  0  0  0  0  0  0  0
    2.8928    0.6735    0.8446 C   0  0  0  0  0  0  0  0  0  0  0  0
    2.1951    4.7125    2.0901 C   0  0  0  0  0  0  0  0  0  0  0  0
    1.0940    7.3567    2.5492 C   0  0  0  0  0  0  0  0  0  0  0  0
    0.2741    6.8600    3.5717 C   0  0  0  0  0  0  0  0  0  0  0  0
    0.4039    5.9837    4.6202 N   0  0  0  0  0  0  0  0  0  0  0  0
   -0.8443    5.4789    4.8838 C   0  0  0  0  0  0  0  0  0  0  0  0
   -1.3181    4.3270    5.5146 C   0  0  0  0  0  0  0  0  0  0  0  0
    1.5896    5.6127    5.3490 C   0  0  0  0  0  0  0  0  0  0  0  0
    1.5533    6.1542    6.7769 C   0  0  0  0  0  0  0  0  0  0  0  0
    4.1408    4.3072   -2.6581 S   0  0  0  0  0  0  0  0  0  0  0  0
    3.1831    3.4885   -3.8496 C   0  0  0  0  0  0  0  0  0  0  0  0
    3.1154    2.2480   -4.4821 C   0  0  0  0  0  0  0  0  0  0  0  0
    3.9036    0.7153   -4.5446 S   0  0  0  0  0  0  0  0  0  0  0  0
    2.5459    0.0383   -5.4624 C   0  0  0  0  0  0  0  0  0  0  0  0
    1.5954    0.9882   -5.7629 C   0  0  0  0  0  0  0  0  0  0  0  0
    1.9093    2.2332   -5.2097 C   0  0  0  0  0  0  0  0  0  0  0  0
    1.2665    3.4378   -5.0775 N   0  0  0  0  0  0  0  0  0  0  0  0
   -0.0358    3.7291   -5.6238 C   0  0  0  0  0  0  0  0  0  0  0  0
   -1.1390    2.9371   -4.9270 C   0  0  0  0  0  0  0  0  0  0  0  0
    2.0094    4.1990   -4.2089 C   0  0  0  0  0  0  0  0  0  0  0  0
    2.5025   -1.3794   -5.5830 C   0  0  0  0  0  0  0  0  0  0  0  0
    1.3967   -2.2286   -5.5796 C   0  0  0  0  0  0  0  0  0  0  0  0
    0.0730   -1.8556   -5.7752 N   0  0  0  0  0  0  0  0  0  0  0  0
   -0.9095   -2.5425   -5.0264 C   0  0  0  0  0  0  0  0  0  0  0  0
   -1.9898   -3.1497   -5.6580 C   0  0  0  0  0  0  0  0  0  0  0  0
   -2.9325   -3.8273   -4.9138 C   0  0  0  0  0  0  0  0  0  0  0  0
   -2.8246   -3.9272   -3.5318 C   0  0  0  0  0  0  0  0  0  0  0  0
   -3.8383   -4.7019   -2.7507 C   0  0  0  0  0  0  0  0  0  0  0  0
   -1.7394   -3.3217   -2.9104 C   0  0  0  0  0  0  0  0  0  0  0  0
   -0.7912   -2.6338   -3.6434 C   0  0  0  0  0  0  0  0  0  0  0  0
   -0.3142   -1.1450   -6.9124 C   0  0  0  0  0  0  0  0  0  0  0  0
   -1.4992   -0.4053   -6.8957 C   0  0  0  0  0  0  0  0  0  0  0  0
   -1.8748    0.3353   -7.9976 C   0  0  0  0  0  0  0  0  0  0  0  0
   -1.0910    0.3669   -9.1458 C   0  0  0  0  0  0  0  0  0  0  0  0
   -1.5117    1.1627  -10.3439 C   0  0  0  0  0  0  0  0  0  0  0  0
    0.0808   -0.3798   -9.1606 C   0  0  0  0  0  0  0  0  0  0  0  0
    0.4679   -1.1291   -8.0673 C   0  0  0  0  0  0  0  0  0  0  0  0
    1.7812   -3.5630   -5.3066 C   0  0  0  0  0  0  0  0  0  0  0  0
    0.8932   -4.9742   -4.8655 S   0  0  0  0  0  0  0  0  0  0  0  0
    2.4008   -5.8810   -4.6864 C   0  0  0  0  0  0  0  0  0  0  0  0
    3.5406   -5.0717   -4.9271 C   0  0  0  0  0  0  0  0  0  0  0  0
    4.8530   -5.4645   -4.8650 N   0  0  0  0  0  0  0  0  0  0  0  0
    5.7917   -4.7888   -5.6716 C   0  0  0  0  0  0  0  0  0  0  0  0
    7.0213   -4.4051   -5.1456 C   0  0  0  0  0  0  0  0  0  0  0  0
    7.9390   -3.7503   -5.9418 C   0  0  0  0  0  0  0  0  0  0  0  0
    7.6588   -3.4609   -7.2723 C   0  0  0  0  0  0  0  0  0  0  0  0
    8.6474   -2.7218   -8.1198 C   0  0  0  0  0  0  0  0  0  0  0  0
    6.4314   -3.8560   -7.7903 C   0  0  0  0  0  0  0  0  0  0  0  0
    5.5065   -4.5158   -7.0063 C   0  0  0  0  0  0  0  0  0  0  0  0
    5.3366   -6.4755   -4.0130 C   0  0  0  0  0  0  0  0  0  0  0  0
    4.8852   -6.5862   -2.6998 C   0  0  0  0  0  0  0  0  0  0  0  0
    5.3489   -7.6090   -1.8974 C   0  0  0  0  0  0  0  0  0  0  0  0
    6.2840   -8.5265   -2.3648 C   0  0  0  0  0  0  0  0  0  0  0  0
    6.7368   -9.6656   -1.5054 C   0  0  0  0  0  0  0  0  0  0  0  0
    6.7639   -8.3763   -3.6597 C   0  0  0  0  0  0  0  0  0  0  0  0
    6.2969   -7.3687   -4.4801 C   0  0  0  0  0  0  0  0  0  0  0  0
    3.1558   -3.7556   -5.2302 C   0  0  0  0  0  0  0  0  0  0  0  0
    4.0167   -2.2630   -5.4399 S   0  0  0  0  0  0  0  0  0  0  0  0
    2.4564   -7.2312   -4.3438 C   0  0  0  0  0  0  0  0  0  0  0  0
    1.5062   -8.0379   -3.7574 C   0  0  0  0  0  0  0  0  0  0  0  0
    0.1630   -7.6402   -3.3292 C   0  0  0  0  0  0  0  0  0  0  0  0
   -0.4661   -6.6457   -3.6485 O   0  0  0  0  0  0  0  0  0  0  0  0
   -0.2987   -8.6937   -2.4040 C   0  0  0  0  0  0  0  0  0  0  0  0
   -1.4890   -8.7135   -1.6812 C   0  0  0  0  0  0  0  0  0  0  0  0
   -1.6277   -9.8081   -0.8616 C   0  0  0  0  0  0  0  0  0  0  0  0
   -0.6632  -10.8206   -0.7813 C   0  0  0  0  0  0  0  0  0  0  0  0
    0.5099  -10.8196   -1.5008 C   0  0  0  0  0  0  0  0  0  0  0  0
    0.6798   -9.7046   -2.3268 C   0  0  0  0  0  0  0  0  0  0  0  0
    1.7810   -9.3489   -3.2225 C   0  0  0  0  0  0  0  0  0  0  0  0
    2.8753  -10.1348   -3.4974 C   0  0  0  0  0  0  0  0  0  0  0  0
    3.1875  -11.3332   -2.8303 C   0  0  0  0  0  0  0  0  0  0  0  0
    3.5348  -12.2923   -2.3003 N   0  0  0  0  0  0  0  0  0  0  0  0
    3.8242   -9.8696   -4.5034 C   0  0  0  0  0  0  0  0  0  0  0  0
    4.6117   -9.7532   -5.3332 N   0  0  0  0  0  0  0  0  0  0  0  0
   -1.4594  -11.6070    0.2330 C   0  0  0  0  0  0  0  0  0  0  0  0
   -0.9888  -11.5297    1.7005 C   0  0  0  0  0  0  0  0  0  0  0  0
   -2.1997  -11.9634    2.4948 C   0  0  0  0  0  0  0  0  0  0  0  0
   -3.0984  -10.9895    2.4252 C   0  0  0  0  0  0  0  0  0  0  0  0
   -2.5122   -9.8827    1.5787 C   0  0  0  0  0  0  0  0  0  0  0  0
   -1.0329  -10.0187    1.9593 C   0  0  0  0  0  0  0  0  0  0  0  0
   -2.5281  -10.4697    0.1505 C   0  0  0  0  0  0  0  0  0  0  0  0
   -5.6180   -2.2483    2.1325 H   0  0  0  0  0  0  0  0  0  0  0  0
   -2.3710   -5.5381   -0.4264 H   0  0  0  0  0  0  0  0  0  0  0  0
   -0.6420   -5.3782    4.3303 H   0  0  0  0  0  0  0  0  0  0  0  0
    1.2511   -7.5578    2.4315 H   0  0  0  0  0  0  0  0  0  0  0  0
    2.9318   -5.7327    2.6303 H   0  0  0  0  0  0  0  0  0  0  0  0
    1.7077   -3.4940    2.0521 H   0  0  0  0  0  0  0  0  0  0  0  0
    0.8199   -3.6523   -0.4466 H   0  0  0  0  0  0  0  0  0  0  0  0
    1.4808   -5.9875   -1.4062 H   0  0  0  0  0  0  0  0  0  0  0  0
    3.0047   -7.2595    0.4135 H   0  0  0  0  0  0  0  0  0  0  0  0
    3.6506   -5.6274    0.0899 H   0  0  0  0  0  0  0  0  0  0  0  0
    0.3629   -7.6876    0.0076 H   0  0  0  0  0  0  0  0  0  0  0  0
   -4.5881    1.2889    1.4141 H   0  0  0  0  0  0  0  0  0  0  0  0
   -4.7202    3.4509    0.2487 H   0  0  0  0  0  0  0  0  0  0  0  0
   -6.1236    5.8426    0.5602 H   0  0  0  0  0  0  0  0  0  0  0  0
   -7.8154    5.5615    0.1314 H   0  0  0  0  0  0  0  0  0  0  0  0
   -6.5198    5.0351   -0.9511 H   0  0  0  0  0  0  0  0  0  0  0  0
   -8.7762    3.8739    1.4976 H   0  0  0  0  0  0  0  0  0  0  0  0
   -8.6411    1.7265    2.6844 H   0  0  0  0  0  0  0  0  0  0  0  0
   -8.0093   -0.3311    0.7237 H   0  0  0  0  0  0  0  0  0  0  0  0
   -9.8498   -1.9494    0.5944 H   0  0  0  0  0  0  0  0  0  0  0  0
  -11.4744   -3.3506    1.7877 H   0  0  0  0  0  0  0  0  0  0  0  0
  -10.3201   -4.6130    2.2122 H   0  0  0  0  0  0  0  0  0  0  0  0
  -11.2110   -3.7833    3.4852 H   0  0  0  0  0  0  0  0  0  0  0  0
   -9.1376   -3.0849    4.6456 H   0  0  0  0  0  0  0  0  0  0  0  0
   -7.3158   -1.4652    4.7898 H   0  0  0  0  0  0  0  0  0  0  0  0
    0.5392    1.6337    7.6836 H   0  0  0  0  0  0  0  0  0  0  0  0
    0.9922    3.0317    9.6432 H   0  0  0  0  0  0  0  0  0  0  0  0
    0.3086    4.7305   11.1857 H   0  0  0  0  0  0  0  0  0  0  0  0
   -1.2523    5.5327   10.9550 H   0  0  0  0  0  0  0  0  0  0  0  0
   -1.1440    4.0884   11.9549 H   0  0  0  0  0  0  0  0  0  0  0  0
   -3.1165    4.1632    9.7914 H   0  0  0  0  0  0  0  0  0  0  0  0
   -3.5832    2.7570    7.8470 H   0  0  0  0  0  0  0  0  0  0  0  0
   -1.2017   -0.5346    8.2746 H   0  0  0  0  0  0  0  0  0  0  0  0
    0.0635   -2.6041    7.8615 H   0  0  0  0  0  0  0  0  0  0  0  0
    1.2637   -3.6859    4.5119 H   0  0  0  0  0  0  0  0  0  0  0  0
    2.2057   -3.3301    5.9629 H   0  0  0  0  0  0  0  0  0  0  0  0
    0.7285   -4.2778    6.0965 H   0  0  0  0  0  0  0  0  0  0  0  0
    0.5521   -1.4967    3.7719 H   0  0  0  0  0  0  0  0  0  0  0  0
   -0.7041    0.5792    4.1834 H   0  0  0  0  0  0  0  0  0  0  0  0
   -0.4120    8.0629   -1.2227 H   0  0  0  0  0  0  0  0  0  0  0  0
    0.1615    4.7261   -1.3759 H   0  0  0  0  0  0  0  0  0  0  0  0
   -2.0745    3.8459   -0.8408 H   0  0  0  0  0  0  0  0  0  0  0  0
   -4.0345    4.5349   -2.1971 H   0  0  0  0  0  0  0  0  0  0  0  0
   -4.9460    6.8903   -5.7416 H   0  0  0  0  0  0  0  0  0  0  0  0
   -3.1786    6.8522   -5.9056 H   0  0  0  0  0  0  0  0  0  0  0  0
   -3.0157    8.6463   -4.1307 H   0  0  0  0  0  0  0  0  0  0  0  0
   -4.7755    8.6518   -4.0027 H   0  0  0  0  0  0  0  0  0  0  0  0
   -3.9959    9.1732   -5.5040 H   0  0  0  0  0  0  0  0  0  0  0  0
   -1.4821    6.9711   -4.6032 H   0  0  0  0  0  0  0  0  0  0  0  0
   -0.0073    9.0692   -3.2393 H   0  0  0  0  0  0  0  0  0  0  0  0
    0.0044   10.6892   -5.0850 H   0  0  0  0  0  0  0  0  0  0  0  0
    0.9234   10.0532   -7.2944 H   0  0  0  0  0  0  0  0  0  0  0  0
    1.9189    5.7458   -7.8695 H   0  0  0  0  0  0  0  0  0  0  0  0
    2.5795    6.5535   -9.3051 H   0  0  0  0  0  0  0  0  0  0  0  0
    4.5467    7.3223   -8.0147 H   0  0  0  0  0  0  0  0  0  0  0  0
    3.9266    6.5643   -6.5489 H   0  0  0  0  0  0  0  0  0  0  0  0
    4.3990    5.5608   -7.9257 H   0  0  0  0  0  0  0  0  0  0  0  0
    1.7946    6.1624   -5.7822 H   0  0  0  0  0  0  0  0  0  0  0  0
    4.1194    6.2621   -0.1024 H   0  0  0  0  0  0  0  0  0  0  0  0
    4.7097    8.4285    1.0097 H   0  0  0  0  0  0  0  0  0  0  0  0
    6.1362   10.1402    2.0380 H   0  0  0  0  0  0  0  0  0  0  0  0
    5.7071   10.9484    4.2929 H   0  0  0  0  0  0  0  0  0  0  0  0
    3.7542   11.2875    7.3971 H   0  0  0  0  0  0  0  0  0  0  0  0
    4.6614   11.8301    5.9715 H   0  0  0  0  0  0  0  0  0  0  0  0
    5.3838    9.4627    7.7848 H   0  0  0  0  0  0  0  0  0  0  0  0
    6.2060   11.0293    7.7568 H   0  0  0  0  0  0  0  0  0  0  0  0
    6.3093    9.9442    6.3630 H   0  0  0  0  0  0  0  0  0  0  0  0
    2.3315    8.3541    4.5674 H   0  0  0  0  0  0  0  0  0  0  0  0
    4.9420    6.3278    3.2053 H   0  0  0  0  0  0  0  0  0  0  0  0
    5.6387    4.0065    3.6061 H   0  0  0  0  0  0  0  0  0  0  0  0
    4.1732    2.1397    3.0671 H   0  0  0  0  0  0  0  0  0  0  0  0
    1.0354    0.5676    1.9360 H   0  0  0  0  0  0  0  0  0  0  0  0
    2.4552    0.8145    2.9715 H   0  0  0  0  0  0  0  0  0  0  0  0
    3.0684   -0.3986    0.8741 H   0  0  0  0  0  0  0  0  0  0  0  0
    2.4107    0.9261   -0.0967 H   0  0  0  0  0  0  0  0  0  0  0  0
    3.8485    1.1900    0.8864 H   0  0  0  0  0  0  0  0  0  0  0  0
    1.2245    4.8860    1.6507 H   0  0  0  0  0  0  0  0  0  0  0  0
   -0.7083    3.6785    6.1108 H   0  0  0  0  0  0  0  0  0  0  0  0
    1.6599    4.5194    5.3665 H   0  0  0  0  0  0  0  0  0  0  0  0
    2.4591    6.0017    4.8189 H   0  0  0  0  0  0  0  0  0  0  0  0
    0.6819    5.7750    7.3066 H   0  0  0  0  0  0  0  0  0  0  0  0
    1.5129    7.2413    6.7714 H   0  0  0  0  0  0  0  0  0  0  0  0
    2.4480    5.8438    7.3092 H   0  0  0  0  0  0  0  0  0  0  0  0
    0.7221    0.7935   -6.3507 H   0  0  0  0  0  0  0  0  0  0  0  0
   -0.2197    4.7988   -5.5092 H   0  0  0  0  0  0  0  0  0  0  0  0
   -0.0238    3.4818   -6.6919 H   0  0  0  0  0  0  0  0  0  0  0  0
   -1.1358    3.1467   -3.8609 H   0  0  0  0  0  0  0  0  0  0  0  0
   -2.1064    3.2200   -5.3320 H   0  0  0  0  0  0  0  0  0  0  0  0
   -0.9966    1.8704   -5.0756 H   0  0  0  0  0  0  0  0  0  0  0  0
   -2.0789   -3.0959   -6.7334 H   0  0  0  0  0  0  0  0  0  0  0  0
   -3.7623   -4.3011   -5.4181 H   0  0  0  0  0  0  0  0  0  0  0  0
   -3.4913   -5.7296   -2.6354 H   0  0  0  0  0  0  0  0  0  0  0  0
   -4.7902   -4.7327   -3.2760 H   0  0  0  0  0  0  0  0  0  0  0  0
   -4.0000   -4.2766   -1.7624 H   0  0  0  0  0  0  0  0  0  0  0  0
   -1.6382   -3.3863   -1.8362 H   0  0  0  0  0  0  0  0  0  0  0  0
    0.0508   -2.1643   -3.1535 H   0  0  0  0  0  0  0  0  0  0  0  0
   -2.1144   -0.4120   -6.0080 H   0  0  0  0  0  0  0  0  0  0  0  0
   -2.7910    0.9073   -7.9613 H   0  0  0  0  0  0  0  0  0  0  0  0
   -0.6455    1.5266  -10.8922 H   0  0  0  0  0  0  0  0  0  0  0  0
   -2.0985    0.5392  -11.0195 H   0  0  0  0  0  0  0  0  0  0  0  0
   -2.1271    2.0104  -10.0506 H   0  0  0  0  0  0  0  0  0  0  0  0
    0.7003   -0.3800  -10.0459 H   0  0  0  0  0  0  0  0  0  0  0  0
    1.3814   -1.7034   -8.1020 H   0  0  0  0  0  0  0  0  0  0  0  0
    7.2480   -4.6202   -4.1119 H   0  0  0  0  0  0  0  0  0  0  0  0
    8.8882   -3.4526   -5.5208 H   0  0  0  0  0  0  0  0  0  0  0  0
    9.6663   -2.9460   -7.8132 H   0  0  0  0  0  0  0  0  0  0  0  0
    8.5286   -2.9787   -9.1698 H   0  0  0  0  0  0  0  0  0  0  0  0
    8.4932   -1.6473   -8.0154 H   0  0  0  0  0  0  0  0  0  0  0  0
    6.1986   -3.6515   -8.8252 H   0  0  0  0  0  0  0  0  0  0  0  0
    4.5619   -4.8312   -7.4251 H   0  0  0  0  0  0  0  0  0  0  0  0
    4.1569   -5.8818   -2.3251 H   0  0  0  0  0  0  0  0  0  0  0  0
    4.9836   -7.6957   -0.8848 H   0  0  0  0  0  0  0  0  0  0  0  0
    6.1120  -10.5405   -1.6922 H   0  0  0  0  0  0  0  0  0  0  0  0
    7.7651   -9.9371   -1.7314 H   0  0  0  0  0  0  0  0  0  0  0  0
    6.6583   -9.4148   -0.4500 H   0  0  0  0  0  0  0  0  0  0  0  0
    7.4938   -9.0730   -4.0425 H   0  0  0  0  0  0  0  0  0  0  0  0
    6.6569   -7.2815   -5.4935 H   0  0  0  0  0  0  0  0  0  0  0  0
    3.4285   -7.6845   -4.4846 H   0  0  0  0  0  0  0  0  0  0  0  0
   -2.2113   -7.9186   -1.7767 H   0  0  0  0  0  0  0  0  0  0  0  0
    1.2416  -11.6078   -1.4344 H   0  0  0  0  0  0  0  0  0  0  0  0
   -1.7466  -12.6121   -0.0697 H   0  0  0  0  0  0  0  0  0  0  0  0
   -0.0563  -12.0479    1.9078 H   0  0  0  0  0  0  0  0  0  0  0  0
   -2.2962  -12.9249    2.9640 H   0  0  0  0  0  0  0  0  0  0  0  0
   -4.0954  -10.9751    2.8247 H   0  0  0  0  0  0  0  0  0  0  0  0
   -2.9627   -8.8979    1.6739 H   0  0  0  0  0  0  0  0  0  0  0  0
   -0.8546   -9.7702    3.0044 H   0  0  0  0  0  0  0  0  0  0  0  0
   -0.3590   -9.4437    1.3284 H   0  0  0  0  0  0  0  0  0  0  0  0
   -3.5299  -10.7198   -0.1937 H   0  0  0  0  0  0  0  0  0  0  0  0
  1  2  2  0  0  0  0
  2  3  1  0  0  0  0
  3  4  2  0  0  0  0
  3  5  1  0  0  0  0
  5  6  2  0  0  0  0
  6  7  1  0  0  0  0
  7  8  2  0  0  0  0
  8  9  1  0  0  0  0
  9 10  2  0  0  0  0
 10 11  1  0  0  0  0
 11 12  2  0  0  0  0
 12 13  1  0  0  0  0
 13 14  3  0  0  0  0
 12 15  1  0  0  0  0
 15 16  3  0  0  0  0
  8 17  1  0  0  0  0
 17 18  1  0  0  0  0
 18 19  1  0  0  0  0
 19 20  2  0  0  0  0
 20 21  1  0  0  0  0
 21 22  1  0  0  0  0
 21 23  1  0  0  0  0
  1 24  1  0  0  0  0
 24 25  2  0  0  0  0
 25 26  1  0  0  0  0
 26 27  1  0  0  0  0
 27 28  2  0  0  0  0
 28 29  1  0  0  0  0
 29 30  2  0  0  0  0
 30 31  1  0  0  0  0
 30 32  1  0  0  0  0
 32 33  2  0  0  0  0
 26 34  1  0  0  0  0
 34 35  2  0  0  0  0
 35 36  1  0  0  0  0
 36 37  2  0  0  0  0
 37 38  1  0  0  0  0
 37 39  1  0  0  0  0
 39 40  2  0  0  0  0
 25 41  1  0  0  0  0
 41 42  1  0  0  0  0
 42 43  1  0  0  0  0
 43 44  2  0  0  0  0
 44 45  1  0  0  0  0
 45 46  1  0  0  0  0
 46 47  2  0  0  0  0
 47 48  1  0  0  0  0
 48 49  2  0  0  0  0
 49 50  1  0  0  0  0
 49 51  1  0  0  0  0
 51 52  2  0  0  0  0
 45 53  1  0  0  0  0
 53 54  2  0  0  0  0
 54 55  1  0  0  0  0
 55 56  2  0  0  0  0
 56 57  1  0  0  0  0
 56 58  1  0  0  0  0
 58 59  2  0  0  0  0
 44 60  1  0  0  0  0
 60 61  1  0  0  0  0
 43 62  1  0  0  0  0
 62 63  1  0  0  0  0
 63 64  1  0  0  0  0
 64 65  1  0  0  0  0
 65 66  1  0  0  0  0
 66 67  1  0  0  0  0
 67 68  1  0  0  0  0
 68 69  2  0  0  0  0
 69 70  1  0  0  0  0
 70 71  1  0  0  0  0
 71 72  1  0  0  0  0
 72 73  2  0  0  0  0
 73 74  1  0  0  0  0
 74 75  2  0  0  0  0
 75 76  1  0  0  0  0
 76 77  1  0  0  0  0
 77 78  1  0  0  0  0
 78 79  1  0  0  0  0
 76 80  2  0  0  0  0
 71 81  1  0  0  0  0
 81 82  2  0  0  0  0
 82 83  1  0  0  0  0
 83 84  2  0  0  0  0
 84 85  1  0  0  0  0
 85 86  1  0  0  0  0
 86 87  1  0  0  0  0
 87 88  1  0  0  0  0
 85 89  2  0  0  0  0
 71 90  1  0  0  0  0
 90 91  2  0  0  0  0
 91 92  1  0  0  0  0
 92 93  1  0  0  0  0
 93 94  2  0  0  0  0
 94 95  1  0  0  0  0
 95 96  1  0  0  0  0
 96 97  2  0  0  0  0
 97 98  1  0  0  0  0
 98 99  2  0  0  0  0
 99100  1  0  0  0  0
100101  1  0  0  0  0
101102  1  0  0  0  0
102103  1  0  0  0  0
100104  2  0  0  0  0
 95105  1  0  0  0  0
105106  2  0  0  0  0
106107  1  0  0  0  0
107108  2  0  0  0  0
108109  1  0  0  0  0
109110  1  0  0  0  0
110111  1  0  0  0  0
111112  1  0  0  0  0
109113  2  0  0  0  0
 95114  1  0  0  0  0
114115  1  0  0  0  0
115116  1  0  0  0  0
116117  1  0  0  0  0
117118  1  0  0  0  0
116119  1  0  0  0  0
119120  1  0  0  0  0
 91121  1  0  0  0  0
121122  1  0  0  0  0
122123  1  0  0  0  0
123124  1  0  0  0  0
124125  1  0  0  0  0
125126  2  0  0  0  0
126127  1  0  0  0  0
127128  1  0  0  0  0
128129  1  0  0  0  0
129130  1  0  0  0  0
128131  1  0  0  0  0
125132  1  0  0  0  0
132133  2  0  0  0  0
133134  1  0  0  0  0
134135  1  0  0  0  0
135136  2  0  0  0  0
136137  1  0  0  0  0
137138  2  0  0  0  0
138139  1  0  0  0  0
138140  1  0  0  0  0
140141  2  0  0  0  0
134142  1  0  0  0  0
142143  2  0  0  0  0
143144  1  0  0  0  0
144145  2  0  0  0  0
145146  1  0  0  0  0
145147  1  0  0  0  0
147148  2  0  0  0  0
133149  1  0  0  0  0
149150  1  0  0  0  0
150151  1  0  0  0  0
151152  2  0  0  0  0
152153  1  0  0  0  0
153154  1  0  0  0  0
154155  2  0  0  0  0
155156  1  0  0  0  0
156157  2  0  0  0  0
157158  1  0  0  0  0
157159  1  0  0  0  0
159160  2  0  0  0  0
153161  1  0  0  0  0
161162  2  0  0  0  0
162163  1  0  0  0  0
163164  2  0  0  0  0
164165  1  0  0  0  0
164166  1  0  0  0  0
166167  2  0  0  0  0
152168  1  0  0  0  0
168169  1  0  0  0  0
151170  1  0  0  0  0
170171  2  0  0  0  0
171172  1  0  0  0  0
172173  2  0  0  0  0
172174  1  0  0  0  0
174175  2  0  0  0  0
175176  1  0  0  0  0
176177  2  0  0  0  0
177178  1  0  0  0  0
178179  2  0  0  0  0
179180  1  0  0  0  0
180181  2  0  0  0  0
181182  1  0  0  0  0
182183  3  0  0  0  0
181184  1  0  0  0  0
184185  3  0  0  0  0
177186  1  0  0  0  0
186187  1  0  0  0  0
187188  1  0  0  0  0
188189  2  0  0  0  0
189190  1  0  0  0  0
190191  1  0  0  0  0
190192  1  0  0  0  0
 11  2  1  0  0  0  0
 23 17  1  0  0  0  0
 61 24  1  0  0  0  0
118 62  2  0  0  0  0
131122  2  0  0  0  0
169132  1  0  0  0  0
180171  1  0  0  0  0
192186  1  0  0  0  0
 10  5  1  0  0  0  0
 22 18  1  0  0  0  0
 33 27  1  0  0  0  0
 40 34  1  0  0  0  0
 60 41  2  0  0  0  0
117 64  2  0  0  0  0
127123  2  0  0  0  0
141135  1  0  0  0  0
148142  1  0  0  0  0
168149  2  0  0  0  0
179174  1  0  0  0  0
191187  1  0  0  0  0
 23  7  1  0  0  0  0
 52 46  1  0  0  0  0
 59 53  1  0  0  0  0
115 65  2  0  0  0  0
160154  1  0  0  0  0
167161  1  0  0  0  0
192176  1  0  0  0  0
114 67  2  0  0  0  0
 94 68  1  0  0  0  0
104 96  1  0  0  0  0
113105  1  0  0  0  0
 92 70  2  0  0  0  0
 80 72  1  0  0  0  0
 89 81  1  0  0  0  0
131 90  1  0  0  0  0
  1193  1  0  0  0  0
  6194  1  0  0  0  0
  9195  1  0  0  0  0
 17196  1  0  0  0  0
 18197  1  0  0  0  0
 19198  1  0  0  0  0
 20199  1  0  0  0  0
 21200  1  0  0  0  0
 22201  1  0  0  0  0
 22202  1  0  0  0  0
 23203  1  0  0  0  0
 28204  1  0  0  0  0
 29205  1  0  0  0  0
 31206  1  0  0  0  0
 31207  1  0  0  0  0
 31208  1  0  0  0  0
 32209  1  0  0  0  0
 33210  1  0  0  0  0
 35211  1  0  0  0  0
 36212  1  0  0  0  0
 38213  1  0  0  0  0
 38214  1  0  0  0  0
 38215  1  0  0  0  0
 39216  1  0  0  0  0
 40217  1  0  0  0  0
 47218  1  0  0  0  0
 48219  1  0  0  0  0
 50220  1  0  0  0  0
 50221  1  0  0  0  0
 50222  1  0  0  0  0
 51223  1  0  0  0  0
 52224  1  0  0  0  0
 54225  1  0  0  0  0
 55226  1  0  0  0  0
 57227  1  0  0  0  0
 57228  1  0  0  0  0
 57229  1  0  0  0  0
 58230  1  0  0  0  0
 59231  1  0  0  0  0
 69232  1  0  0  0  0
 73233  1  0  0  0  0
 74234  1  0  0  0  0
 75235  1  0  0  0  0
 78236  1  0  0  0  0
 78237  1  0  0  0  0
 79238  1  0  0  0  0
 79239  1  0  0  0  0
 79240  1  0  0  0  0
 80241  1  0  0  0  0
 82242  1  0  0  0  0
 83243  1  0  0  0  0
 84244  1  0  0  0  0
 87245  1  0  0  0  0
 87246  1  0  0  0  0
 88247  1  0  0  0  0
 88248  1  0  0  0  0
 88249  1  0  0  0  0
 89250  1  0  0  0  0
 93251  1  0  0  0  0
 97252  1  0  0  0  0
 98253  1  0  0  0  0
 99254  1  0  0  0  0
102255  1  0  0  0  0
102256  1  0  0  0  0
103257  1  0  0  0  0
103258  1  0  0  0  0
103259  1  0  0  0  0
104260  1  0  0  0  0
106261  1  0  0  0  0
107262  1  0  0  0  0
108263  1  0  0  0  0
111264  1  0  0  0  0
111265  1  0  0  0  0
112266  1  0  0  0  0
112267  1  0  0  0  0
112268  1  0  0  0  0
113269  1  0  0  0  0
118270  1  0  0  0  0
119271  1  0  0  0  0
119272  1  0  0  0  0
120273  1  0  0  0  0
120274  1  0  0  0  0
120275  1  0  0  0  0
126276  1  0  0  0  0
129277  1  0  0  0  0
129278  1  0  0  0  0
130279  1  0  0  0  0
130280  1  0  0  0  0
130281  1  0  0  0  0
136282  1  0  0  0  0
137283  1  0  0  0  0
139284  1  0  0  0  0
139285  1  0  0  0  0
139286  1  0  0  0  0
140287  1  0  0  0  0
141288  1  0  0  0  0
143289  1  0  0  0  0
144290  1  0  0  0  0
146291  1  0  0  0  0
146292  1  0  0  0  0
146293  1  0  0  0  0
147294  1  0  0  0  0
148295  1  0  0  0  0
155296  1  0  0  0  0
156297  1  0  0  0  0
158298  1  0  0  0  0
158299  1  0  0  0  0
158300  1  0  0  0  0
159301  1  0  0  0  0
160302  1  0  0  0  0
162303  1  0  0  0  0
163304  1  0  0  0  0
165305  1  0  0  0  0
165306  1  0  0  0  0
165307  1  0  0  0  0
166308  1  0  0  0  0
167309  1  0  0  0  0
170310  1  0  0  0  0
175311  1  0  0  0  0
178312  1  0  0  0  0
186313  1  0  0  0  0
187314  1  0  0  0  0
188315  1  0  0  0  0
189316  1  0  0  0  0
190317  1  0  0  0  0
191318  1  0  0  0  0
191319  1  0  0  0  0
192320  1  0  0  0  0
M  END
