
  xtb     02142205543D
 energy: -369.138168276088 gnorm: 0.000317493257 xtb: 6.4.1 (unknown)
218242  0     0  0            999 V2000
   -3.9537    2.0431   -9.1313 C   0  0  0  0  0  0  0  0  0  0  0  0
   -3.7945    1.0248  -10.0462 C   0  0  0  0  0  0  0  0  0  0  0  0
   -3.4377   -0.3623   -9.7474 C   0  0  0  0  0  0  0  0  0  0  0  0
   -3.1385   -0.8460   -8.6672 O   0  0  0  0  0  0  0  0  0  0  0  0
   -3.5375   -1.0989  -11.0206 C   0  0  0  0  0  0  0  0  0  0  0  0
   -3.2832   -2.4514  -11.2283 C   0  0  0  0  0  0  0  0  0  0  0  0
   -3.4577   -2.8596  -12.5291 C   0  0  0  0  0  0  0  0  0  0  0  0
   -3.8558   -1.9848  -13.5473 C   0  0  0  0  0  0  0  0  0  0  0  0
   -4.1030   -0.6453  -13.3556 C   0  0  0  0  0  0  0  0  0  0  0  0
   -3.9330   -0.2100  -12.0393 C   0  0  0  0  0  0  0  0  0  0  0  0
   -4.0741    1.1263  -11.4578 C   0  0  0  0  0  0  0  0  0  0  0  0
   -4.3851    2.2664  -12.1610 C   0  0  0  0  0  0  0  0  0  0  0  0
   -4.3809    3.5762  -11.6451 C   0  0  0  0  0  0  0  0  0  0  0  0
   -4.3648    4.6806  -11.3238 N   0  0  0  0  0  0  0  0  0  0  0  0
   -4.7243    2.2935  -13.5278 C   0  0  0  0  0  0  0  0  0  0  0  0
   -5.0299    2.3948  -14.6309 N   0  0  0  0  0  0  0  0  0  0  0  0
   -3.8418   -3.0702  -14.5947 C   0  0  0  0  0  0  0  0  0  0  0  0
   -5.2017   -3.6637  -15.0385 C   0  0  0  0  0  0  0  0  0  0  0  0
   -6.1473   -3.4868  -13.8767 C   0  0  0  0  0  0  0  0  0  0  0  0
   -5.7663   -4.3163  -12.9145 C   0  0  0  0  0  0  0  0  0  0  0  0
   -4.5551   -5.0681  -13.4081 C   0  0  0  0  0  0  0  0  0  0  0  0
   -4.8869   -5.1623  -14.9059 C   0  0  0  0  0  0  0  0  0  0  0  0
   -3.3939   -4.0448  -13.4603 C   0  0  0  0  0  0  0  0  0  0  0  0
   -3.6925    2.0750   -7.7642 C   0  0  0  0  0  0  0  0  0  0  0  0
   -3.9418    3.2103   -6.9491 C   0  0  0  0  0  0  0  0  0  0  0  0
   -4.6261    4.3359   -7.3224 N   0  0  0  0  0  0  0  0  0  0  0  0
   -4.2528    5.5627   -6.7378 C   0  0  0  0  0  0  0  0  0  0  0  0
   -5.2117    6.4391   -6.2426 C   0  0  0  0  0  0  0  0  0  0  0  0
   -4.8247    7.6423   -5.6854 C   0  0  0  0  0  0  0  0  0  0  0  0
   -3.4849    7.9983   -5.6055 C   0  0  0  0  0  0  0  0  0  0  0  0
   -3.0578    9.3151   -5.0371 C   0  0  0  0  0  0  0  0  0  0  0  0
   -2.5334    7.1103   -6.0949 C   0  0  0  0  0  0  0  0  0  0  0  0
   -2.9060    5.9083   -6.6585 C   0  0  0  0  0  0  0  0  0  0  0  0
   -5.7443    4.3045   -8.1747 C   0  0  0  0  0  0  0  0  0  0  0  0
   -6.6379    3.2367   -8.1399 C   0  0  0  0  0  0  0  0  0  0  0  0
   -7.7239    3.2168   -8.9922 C   0  0  0  0  0  0  0  0  0  0  0  0
   -7.9592    4.2594   -9.8809 C   0  0  0  0  0  0  0  0  0  0  0  0
   -9.1219    4.2305  -10.8243 C   0  0  0  0  0  0  0  0  0  0  0  0
   -7.0782    5.3345   -9.8854 C   0  0  0  0  0  0  0  0  0  0  0  0
   -5.9799    5.3619   -9.0500 C   0  0  0  0  0  0  0  0  0  0  0  0
   -3.3900    3.0372   -5.6701 C   0  0  0  0  0  0  0  0  0  0  0  0
   -3.3377    4.0095   -4.2336 S   0  0  0  0  0  0  0  0  0  0  0  0
   -2.5254    2.7149   -3.3580 C   0  0  0  0  0  0  0  0  0  0  0  0
   -2.2546    1.6230   -4.1798 C   0  0  0  0  0  0  0  0  0  0  0  0
   -1.5560    0.4693   -3.8248 N   0  0  0  0  0  0  0  0  0  0  0  0
   -2.0726   -0.7199   -4.3852 C   0  0  0  0  0  0  0  0  0  0  0  0
   -1.2872   -1.5716   -5.1549 C   0  0  0  0  0  0  0  0  0  0  0  0
   -1.8563   -2.6712   -5.7636 C   0  0  0  0  0  0  0  0  0  0  0  0
   -3.2118   -2.9460   -5.6312 C   0  0  0  0  0  0  0  0  0  0  0  0
   -3.8332   -4.0930   -6.3652 C   0  0  0  0  0  0  0  0  0  0  0  0
   -3.9831   -2.1033   -4.8414 C   0  0  0  0  0  0  0  0  0  0  0  0
   -3.4245   -1.0041   -4.2206 C   0  0  0  0  0  0  0  0  0  0  0  0
   -0.2284    0.5259   -3.3972 C   0  0  0  0  0  0  0  0  0  0  0  0
    0.3402   -0.5818   -2.7683 C   0  0  0  0  0  0  0  0  0  0  0  0
    1.6480   -0.5415   -2.3302 C   0  0  0  0  0  0  0  0  0  0  0  0
    2.4236    0.6008   -2.4824 C   0  0  0  0  0  0  0  0  0  0  0  0
    3.8406    0.6559   -1.9974 C   0  0  0  0  0  0  0  0  0  0  0  0
    1.8464    1.7067   -3.0959 C   0  0  0  0  0  0  0  0  0  0  0  0
    0.5454    1.6752   -3.5541 C   0  0  0  0  0  0  0  0  0  0  0  0
   -2.7800    1.8055   -5.4791 C   0  0  0  0  0  0  0  0  0  0  0  0
   -2.8756    0.7880   -6.8709 S   0  0  0  0  0  0  0  0  0  0  0  0
   -2.2407    2.8612   -1.9740 C   0  0  0  0  0  0  0  0  0  0  0  0
   -2.3678    3.9834   -1.1688 C   0  0  0  0  0  0  0  0  0  0  0  0
   -2.9113    5.3031   -1.5207 C   0  0  0  0  0  0  0  0  0  0  0  0
   -4.2543    5.4601   -1.8489 C   0  0  0  0  0  0  0  0  0  0  0  0
   -4.7623    6.7250   -2.0744 C   0  0  0  0  0  0  0  0  0  0  0  0
   -3.9507    7.8374   -1.9424 C   0  0  0  0  0  0  0  0  0  0  0  0
   -2.6142    7.6996   -1.5929 C   0  0  0  0  0  0  0  0  0  0  0  0
   -1.7459    8.9004   -1.3488 C   0  0  0  0  0  0  0  0  0  0  0  0
   -1.6857    9.2062    0.1495 C   0  0  0  0  0  0  0  0  0  0  0  0
   -2.1041    6.4257   -1.3919 C   0  0  0  0  0  0  0  0  0  0  0  0
   -1.9133    3.7317    0.1375 C   0  0  0  0  0  0  0  0  0  0  0  0
   -1.7646    4.7546    1.5473 S   0  0  0  0  0  0  0  0  0  0  0  0
   -1.1058    3.4113    2.4225 C   0  0  0  0  0  0  0  0  0  0  0  0
   -0.5465    3.1282    3.6825 C   0  0  0  0  0  0  0  0  0  0  0  0
   -0.1943    3.9346    4.7894 C   0  0  0  0  0  0  0  0  0  0  0  0
    0.5643    3.3559    5.8701 C   0  0  0  0  0  0  0  0  0  0  0  0
    0.8950    4.2504    6.7875 N   0  0  0  0  0  0  0  0  0  0  0  0
    0.2997    5.6894    6.3444 S   0  0  0  0  0  0  0  0  0  0  0  0
   -0.4000    5.2308    4.9593 N   0  0  0  0  0  0  0  0  0  0  0  0
    0.8086    1.9635    5.8744 C   0  0  0  0  0  0  0  0  0  0  0  0
    1.3995    1.0873    6.8026 C   0  0  0  0  0  0  0  0  0  0  0  0
    2.2729    1.1557    8.2955 S   0  0  0  0  0  0  0  0  0  0  0  0
    2.3919   -0.5872    8.2780 C   0  0  0  0  0  0  0  0  0  0  0  0
    2.9881   -1.5042    9.1573 C   0  0  0  0  0  0  0  0  0  0  0  0
    3.6544   -1.1049   10.4006 C   0  0  0  0  0  0  0  0  0  0  0  0
    3.2277   -1.6083   11.6262 C   0  0  0  0  0  0  0  0  0  0  0  0
    3.8512   -1.1994   12.7882 C   0  0  0  0  0  0  0  0  0  0  0  0
    4.8936   -0.2901   12.7380 C   0  0  0  0  0  0  0  0  0  0  0  0
    5.3215    0.2304   11.5245 C   0  0  0  0  0  0  0  0  0  0  0  0
    6.4080    1.2645   11.4643 C   0  0  0  0  0  0  0  0  0  0  0  0
    5.8007    2.6680   11.4124 C   0  0  0  0  0  0  0  0  0  0  0  0
    4.6886   -0.1796   10.3603 C   0  0  0  0  0  0  0  0  0  0  0  0
    2.8347   -2.8079    8.7110 C   0  0  0  0  0  0  0  0  0  0  0  0
    1.9119   -2.8944    7.2091 S   0  0  0  0  0  0  0  0  0  0  0  0
    1.7666   -1.1743    7.1722 C   0  0  0  0  0  0  0  0  0  0  0  0
    1.2057   -0.2157    6.3247 C   0  0  0  0  0  0  0  0  0  0  0  0
    0.5385   -0.1833    5.1237 N   0  0  0  0  0  0  0  0  0  0  0  0
    0.3237    1.1480    4.8193 C   0  0  0  0  0  0  0  0  0  0  0  0
   -0.1976    1.7533    3.6583 C   0  0  0  0  0  0  0  0  0  0  0  0
   -0.4780    1.2235    2.4097 N   0  0  0  0  0  0  0  0  0  0  0  0
   -1.0278    2.2375    1.6645 C   0  0  0  0  0  0  0  0  0  0  0  0
   -1.4836    2.4225    0.3553 C   0  0  0  0  0  0  0  0  0  0  0  0
   -1.6291    1.4719   -1.0761 S   0  0  0  0  0  0  0  0  0  0  0  0
    0.2724    0.1777    1.7424 C   0  0  0  0  0  0  0  0  0  0  0  0
    1.4752    0.7564    0.9987 C   0  0  0  0  0  0  0  0  0  0  0  0
   -0.2907   -1.2957    4.7055 C   0  0  0  0  0  0  0  0  0  0  0  0
   -1.3178   -1.6565    5.7783 C   0  0  0  0  0  0  0  0  0  0  0  0
    3.3905   -4.0002    9.2374 C   0  0  0  0  0  0  0  0  0  0  0  0
    3.0855   -5.2886    8.8212 C   0  0  0  0  0  0  0  0  0  0  0  0
    3.8368   -6.2630    9.4643 C   0  0  0  0  0  0  0  0  0  0  0  0
    3.7002   -7.7060    9.1720 C   0  0  0  0  0  0  0  0  0  0  0  0
    4.5629   -8.5330    9.3443 O   0  0  0  0  0  0  0  0  0  0  0  0
    2.4885   -7.9808    8.6813 O   0  0  0  0  0  0  0  0  0  0  0  0
    2.2206   -9.3483    8.3643 C   0  0  0  0  0  0  0  0  0  0  0  0
    2.7652   -9.7222    6.9933 C   0  0  0  0  0  0  0  0  0  0  0  0
    4.7562   -5.7353   10.3910 C   0  0  0  0  0  0  0  0  0  0  0  0
    4.6517   -3.9929   10.4279 S   0  0  0  0  0  0  0  0  0  0  0  0
    5.5663   -6.5242   11.2163 C   0  0  0  0  0  0  0  0  0  0  0  0
    6.5578   -6.1507   12.0892 C   0  0  0  0  0  0  0  0  0  0  0  0
    7.1224   -4.8056   12.2379 C   0  0  0  0  0  0  0  0  0  0  0  0
    6.6855   -3.7566   11.7982 O   0  0  0  0  0  0  0  0  0  0  0  0
    8.3623   -4.9733   13.0220 C   0  0  0  0  0  0  0  0  0  0  0  0
    9.2904   -4.0337   13.3642 C   0  0  0  0  0  0  0  0  0  0  0  0
   10.4272   -4.4308   14.1039 C   0  0  0  0  0  0  0  0  0  0  0  0
   11.4197   -3.5043   14.4776 C   0  0  0  0  0  0  0  0  0  0  0  0
   12.5136   -3.9157   15.1863 C   0  0  0  0  0  0  0  0  0  0  0  0
   13.4582   -3.0314   15.5395 F   0  0  0  0  0  0  0  0  0  0  0  0
   12.6623   -5.2678   15.5521 C   0  0  0  0  0  0  0  0  0  0  0  0
   13.7459   -5.6428   16.2464 F   0  0  0  0  0  0  0  0  0  0  0  0
   11.7155   -6.1903   15.2048 C   0  0  0  0  0  0  0  0  0  0  0  0
   10.5757   -5.7986   14.4745 C   0  0  0  0  0  0  0  0  0  0  0  0
    9.5912   -6.7472   14.1123 C   0  0  0  0  0  0  0  0  0  0  0  0
    8.4973   -6.3399   13.3968 C   0  0  0  0  0  0  0  0  0  0  0  0
    7.3360   -7.0699   12.8941 C   0  0  0  0  0  0  0  0  0  0  0  0
    7.0030   -8.3606   13.2125 C   0  0  0  0  0  0  0  0  0  0  0  0
    7.8105   -9.2046   14.0018 C   0  0  0  0  0  0  0  0  0  0  0  0
    8.4347   -9.9353   14.6302 N   0  0  0  0  0  0  0  0  0  0  0  0
    5.7858   -8.9909   12.8726 C   0  0  0  0  0  0  0  0  0  0  0  0
    4.8019   -9.5552   12.6950 N   0  0  0  0  0  0  0  0  0  0  0  0
   -4.3366    2.9749   -9.5272 H   0  0  0  0  0  0  0  0  0  0  0  0
   -2.9723   -3.0881  -10.4145 H   0  0  0  0  0  0  0  0  0  0  0  0
   -4.4024    0.0144  -14.1527 H   0  0  0  0  0  0  0  0  0  0  0  0
   -3.1642   -2.9168  -15.4323 H   0  0  0  0  0  0  0  0  0  0  0  0
   -5.5554   -3.3092  -16.0030 H   0  0  0  0  0  0  0  0  0  0  0  0
   -6.9355   -2.7573  -13.8522 H   0  0  0  0  0  0  0  0  0  0  0  0
   -6.1729   -4.4183  -11.9253 H   0  0  0  0  0  0  0  0  0  0  0  0
   -4.3194   -5.9935  -12.8887 H   0  0  0  0  0  0  0  0  0  0  0  0
   -5.7507   -5.7942  -15.1074 H   0  0  0  0  0  0  0  0  0  0  0  0
   -4.0449   -5.4844  -15.5172 H   0  0  0  0  0  0  0  0  0  0  0  0
   -2.4216   -4.5247  -13.5568 H   0  0  0  0  0  0  0  0  0  0  0  0
   -6.2565    6.1718   -6.2980 H   0  0  0  0  0  0  0  0  0  0  0  0
   -5.5792    8.3153   -5.3052 H   0  0  0  0  0  0  0  0  0  0  0  0
   -3.8938    9.8286   -4.5704 H   0  0  0  0  0  0  0  0  0  0  0  0
   -2.2721    9.1709   -4.2986 H   0  0  0  0  0  0  0  0  0  0  0  0
   -2.6613    9.9524   -5.8278 H   0  0  0  0  0  0  0  0  0  0  0  0
   -1.4867    7.3721   -6.0439 H   0  0  0  0  0  0  0  0  0  0  0  0
   -2.1603    5.2337   -7.0535 H   0  0  0  0  0  0  0  0  0  0  0  0
   -6.4727    2.4216   -7.4504 H   0  0  0  0  0  0  0  0  0  0  0  0
   -8.4043    2.3779   -8.9598 H   0  0  0  0  0  0  0  0  0  0  0  0
   -8.7684    4.1035  -11.8476 H   0  0  0  0  0  0  0  0  0  0  0  0
   -9.7970    3.4114  -10.5892 H   0  0  0  0  0  0  0  0  0  0  0  0
   -9.6753    5.1669  -10.7795 H   0  0  0  0  0  0  0  0  0  0  0  0
   -7.2422    6.1540  -10.5685 H   0  0  0  0  0  0  0  0  0  0  0  0
   -5.2925    6.1923   -9.0816 H   0  0  0  0  0  0  0  0  0  0  0  0
   -0.2393   -1.3519   -5.2959 H   0  0  0  0  0  0  0  0  0  0  0  0
   -1.2408   -3.3131   -6.3766 H   0  0  0  0  0  0  0  0  0  0  0  0
   -4.1215   -3.7625   -7.3635 H   0  0  0  0  0  0  0  0  0  0  0  0
   -3.1306   -4.9165   -6.4717 H   0  0  0  0  0  0  0  0  0  0  0  0
   -4.7251   -4.4497   -5.8551 H   0  0  0  0  0  0  0  0  0  0  0  0
   -5.0381   -2.3031   -4.7192 H   0  0  0  0  0  0  0  0  0  0  0  0
   -4.0341   -0.3447   -3.6190 H   0  0  0  0  0  0  0  0  0  0  0  0
   -0.2542   -1.4716   -2.6260 H   0  0  0  0  0  0  0  0  0  0  0  0
    2.0712   -1.4161   -1.8562 H   0  0  0  0  0  0  0  0  0  0  0  0
    3.9432    1.3969   -1.2047 H   0  0  0  0  0  0  0  0  0  0  0  0
    4.5096    0.9424   -2.8075 H   0  0  0  0  0  0  0  0  0  0  0  0
    4.1583   -0.3096   -1.6115 H   0  0  0  0  0  0  0  0  0  0  0  0
    2.4313    2.6060   -3.2266 H   0  0  0  0  0  0  0  0  0  0  0  0
    0.1257    2.5427   -4.0420 H   0  0  0  0  0  0  0  0  0  0  0  0
   -4.8975    4.5948   -1.9078 H   0  0  0  0  0  0  0  0  0  0  0  0
   -5.8032    6.8443   -2.3360 H   0  0  0  0  0  0  0  0  0  0  0  0
   -4.3624    8.8241   -2.0962 H   0  0  0  0  0  0  0  0  0  0  0  0
   -2.1473    9.7684   -1.8754 H   0  0  0  0  0  0  0  0  0  0  0  0
   -0.7351    8.7100   -1.7170 H   0  0  0  0  0  0  0  0  0  0  0  0
   -2.6819    9.4201    0.5299 H   0  0  0  0  0  0  0  0  0  0  0  0
   -1.2897    8.3534    0.6959 H   0  0  0  0  0  0  0  0  0  0  0  0
   -1.0492   10.0679    0.3371 H   0  0  0  0  0  0  0  0  0  0  0  0
   -1.0647    6.3016   -1.1223 H   0  0  0  0  0  0  0  0  0  0  0  0
    2.4068   -2.3098   11.6609 H   0  0  0  0  0  0  0  0  0  0  0  0
    3.5215   -1.5902   13.7394 H   0  0  0  0  0  0  0  0  0  0  0  0
    5.3790    0.0201   13.6521 H   0  0  0  0  0  0  0  0  0  0  0  0
    7.0210    1.1043   10.5751 H   0  0  0  0  0  0  0  0  0  0  0  0
    7.0502    1.1799   12.3427 H   0  0  0  0  0  0  0  0  0  0  0  0
    5.1590    2.7713   10.5404 H   0  0  0  0  0  0  0  0  0  0  0  0
    5.2005    2.8527   12.3005 H   0  0  0  0  0  0  0  0  0  0  0  0
    6.5842    3.4204   11.3599 H   0  0  0  0  0  0  0  0  0  0  0  0
    5.0137    0.2116    9.4068 H   0  0  0  0  0  0  0  0  0  0  0  0
    0.6316   -0.5398    2.4769 H   0  0  0  0  0  0  0  0  0  0  0  0
   -0.3945   -0.3237    1.0349 H   0  0  0  0  0  0  0  0  0  0  0  0
    2.0492   -0.0494    0.5520 H   0  0  0  0  0  0  0  0  0  0  0  0
    2.1133    1.3043    1.6893 H   0  0  0  0  0  0  0  0  0  0  0  0
    1.1558    1.4268    0.2055 H   0  0  0  0  0  0  0  0  0  0  0  0
    0.3521   -2.1589    4.5031 H   0  0  0  0  0  0  0  0  0  0  0  0
   -0.8258   -1.0150    3.7995 H   0  0  0  0  0  0  0  0  0  0  0  0
   -0.8305   -1.9960    6.6878 H   0  0  0  0  0  0  0  0  0  0  0  0
   -1.9342   -0.7914    6.0132 H   0  0  0  0  0  0  0  0  0  0  0  0
   -1.9590   -2.4537    5.4127 H   0  0  0  0  0  0  0  0  0  0  0  0
    2.3417   -5.5089    8.0759 H   0  0  0  0  0  0  0  0  0  0  0  0
    2.6690   -9.9831    9.1354 H   0  0  0  0  0  0  0  0  0  0  0  0
    1.1326   -9.4344    8.3950 H   0  0  0  0  0  0  0  0  0  0  0  0
    2.4863  -10.7455    6.7598 H   0  0  0  0  0  0  0  0  0  0  0  0
    3.8496   -9.6443    6.9911 H   0  0  0  0  0  0  0  0  0  0  0  0
    2.3600   -9.0598    6.2317 H   0  0  0  0  0  0  0  0  0  0  0  0
    5.3995   -7.5882   11.0945 H   0  0  0  0  0  0  0  0  0  0  0  0
    9.1614   -3.0029   13.0710 H   0  0  0  0  0  0  0  0  0  0  0  0
   11.3211   -2.4654   14.2043 H   0  0  0  0  0  0  0  0  0  0  0  0
   11.8440   -7.2217   15.4938 H   0  0  0  0  0  0  0  0  0  0  0  0
    9.7328   -7.7754   14.4039 H   0  0  0  0  0  0  0  0  0  0  0  0
  1  2  2  0  0  0  0
  2  3  1  0  0  0  0
  3  4  2  0  0  0  0
  3  5  1  0  0  0  0
  5  6  2  0  0  0  0
  6  7  1  0  0  0  0
  7  8  2  0  0  0  0
  8  9  1  0  0  0  0
  9 10  2  0  0  0  0
 10 11  1  0  0  0  0
 11 12  2  0  0  0  0
 12 13  1  0  0  0  0
 13 14  3  0  0  0  0
 12 15  1  0  0  0  0
 15 16  3  0  0  0  0
  8 17  1  0  0  0  0
 17 18  1  0  0  0  0
 18 19  1  0  0  0  0
 19 20  2  0  0  0  0
 20 21  1  0  0  0  0
 21 22  1  0  0  0  0
 21 23  1  0  0  0  0
  1 24  1  0  0  0  0
 24 25  2  0  0  0  0
 25 26  1  0  0  0  0
 26 27  1  0  0  0  0
 27 28  2  0  0  0  0
 28 29  1  0  0  0  0
 29 30  2  0  0  0  0
 30 31  1  0  0  0  0
 30 32  1  0  0  0  0
 32 33  2  0  0  0  0
 26 34  1  0  0  0  0
 34 35  2  0  0  0  0
 35 36  1  0  0  0  0
 36 37  2  0  0  0  0
 37 38  1  0  0  0  0
 37 39  1  0  0  0  0
 39 40  2  0  0  0  0
 25 41  1  0  0  0  0
 41 42  1  0  0  0  0
 42 43  1  0  0  0  0
 43 44  2  0  0  0  0
 44 45  1  0  0  0  0
 45 46  1  0  0  0  0
 46 47  2  0  0  0  0
 47 48  1  0  0  0  0
 48 49  2  0  0  0  0
 49 50  1  0  0  0  0
 49 51  1  0  0  0  0
 51 52  2  0  0  0  0
 45 53  1  0  0  0  0
 53 54  2  0  0  0  0
 54 55  1  0  0  0  0
 55 56  2  0  0  0  0
 56 57  1  0  0  0  0
 56 58  1  0  0  0  0
 58 59  2  0  0  0  0
 44 60  1  0  0  0  0
 60 61  1  0  0  0  0
 43 62  1  0  0  0  0
 62 63  2  0  0  0  0
 63 64  1  0  0  0  0
 64 65  2  0  0  0  0
 65 66  1  0  0  0  0
 66 67  2  0  0  0  0
 67 68  1  0  0  0  0
 68 69  1  0  0  0  0
 69 70  1  0  0  0  0
 68 71  2  0  0  0  0
 63 72  1  0  0  0  0
 72 73  1  0  0  0  0
 73 74  1  0  0  0  0
 74 75  1  0  0  0  0
 75 76  1  0  0  0  0
 76 77  1  0  0  0  0
 77 78  2  0  0  0  0
 78 79  1  0  0  0  0
 79 80  1  0  0  0  0
 77 81  1  0  0  0  0
 81 82  1  0  0  0  0
 82 83  1  0  0  0  0
 83 84  1  0  0  0  0
 84 85  1  0  0  0  0
 85 86  1  0  0  0  0
 86 87  2  0  0  0  0
 87 88  1  0  0  0  0
 88 89  2  0  0  0  0
 89 90  1  0  0  0  0
 90 91  1  0  0  0  0
 91 92  1  0  0  0  0
 90 93  2  0  0  0  0
 85 94  2  0  0  0  0
 94 95  1  0  0  0  0
 95 96  1  0  0  0  0
 96 97  1  0  0  0  0
 97 98  1  0  0  0  0
 98 99  1  0  0  0  0
 99100  1  0  0  0  0
100101  1  0  0  0  0
101102  1  0  0  0  0
102103  1  0  0  0  0
103104  1  0  0  0  0
101105  1  0  0  0  0
105106  1  0  0  0  0
 98107  1  0  0  0  0
107108  1  0  0  0  0
 94109  1  0  0  0  0
109110  2  0  0  0  0
110111  1  0  0  0  0
111112  1  0  0  0  0
112113  2  0  0  0  0
112114  1  0  0  0  0
114115  1  0  0  0  0
115116  1  0  0  0  0
111117  2  0  0  0  0
117118  1  0  0  0  0
117119  1  0  0  0  0
119120  2  0  0  0  0
120121  1  0  0  0  0
121122  2  0  0  0  0
121123  1  0  0  0  0
123124  2  0  0  0  0
124125  1  0  0  0  0
125126  2  0  0  0  0
126127  1  0  0  0  0
127128  1  0  0  0  0
127129  2  0  0  0  0
129130  1  0  0  0  0
129131  1  0  0  0  0
131132  2  0  0  0  0
132133  1  0  0  0  0
133134  2  0  0  0  0
134135  1  0  0  0  0
135136  2  0  0  0  0
136137  1  0  0  0  0
137138  3  0  0  0  0
136139  1  0  0  0  0
139140  3  0  0  0  0
 11  2  1  0  0  0  0
 23 17  1  0  0  0  0
 61 24  1  0  0  0  0
104 62  1  0  0  0  0
118109  1  0  0  0  0
135120  1  0  0  0  0
 10  5  1  0  0  0  0
 22 18  1  0  0  0  0
 33 27  1  0  0  0  0
 40 34  1  0  0  0  0
 60 41  2  0  0  0  0
 71 64  1  0  0  0  0
103 72  2  0  0  0  0
134123  1  0  0  0  0
 23  7  1  0  0  0  0
 52 46  1  0  0  0  0
 59 53  1  0  0  0  0
102 74  2  0  0  0  0
132125  1  0  0  0  0
100 75  2  0  0  0  0
 80 76  2  0  0  0  0
 99 81  2  0  0  0  0
 97 82  2  0  0  0  0
 96 84  2  0  0  0  0
 93 86  1  0  0  0  0
  1141  1  0  0  0  0
  6142  1  0  0  0  0
  9143  1  0  0  0  0
 17144  1  0  0  0  0
 18145  1  0  0  0  0
 19146  1  0  0  0  0
 20147  1  0  0  0  0
 21148  1  0  0  0  0
 22149  1  0  0  0  0
 22150  1  0  0  0  0
 23151  1  0  0  0  0
 28152  1  0  0  0  0
 29153  1  0  0  0  0
 31154  1  0  0  0  0
 31155  1  0  0  0  0
 31156  1  0  0  0  0
 32157  1  0  0  0  0
 33158  1  0  0  0  0
 35159  1  0  0  0  0
 36160  1  0  0  0  0
 38161  1  0  0  0  0
 38162  1  0  0  0  0
 38163  1  0  0  0  0
 39164  1  0  0  0  0
 40165  1  0  0  0  0
 47166  1  0  0  0  0
 48167  1  0  0  0  0
 50168  1  0  0  0  0
 50169  1  0  0  0  0
 50170  1  0  0  0  0
 51171  1  0  0  0  0
 52172  1  0  0  0  0
 54173  1  0  0  0  0
 55174  1  0  0  0  0
 57175  1  0  0  0  0
 57176  1  0  0  0  0
 57177  1  0  0  0  0
 58178  1  0  0  0  0
 59179  1  0  0  0  0
 65180  1  0  0  0  0
 66181  1  0  0  0  0
 67182  1  0  0  0  0
 69183  1  0  0  0  0
 69184  1  0  0  0  0
 70185  1  0  0  0  0
 70186  1  0  0  0  0
 70187  1  0  0  0  0
 71188  1  0  0  0  0
 87189  1  0  0  0  0
 88190  1  0  0  0  0
 89191  1  0  0  0  0
 91192  1  0  0  0  0
 91193  1  0  0  0  0
 92194  1  0  0  0  0
 92195  1  0  0  0  0
 92196  1  0  0  0  0
 93197  1  0  0  0  0
105198  1  0  0  0  0
105199  1  0  0  0  0
106200  1  0  0  0  0
106201  1  0  0  0  0
106202  1  0  0  0  0
107203  1  0  0  0  0
107204  1  0  0  0  0
108205  1  0  0  0  0
108206  1  0  0  0  0
108207  1  0  0  0  0
110208  1  0  0  0  0
115209  1  0  0  0  0
115210  1  0  0  0  0
116211  1  0  0  0  0
116212  1  0  0  0  0
116213  1  0  0  0  0
119214  1  0  0  0  0
124215  1  0  0  0  0
126216  1  0  0  0  0
131217  1  0  0  0  0
133218  1  0  0  0  0
M  END
