256

C          7.03930       -2.07250        9.13000
C          8.33950       -2.49520        9.29720
C          9.52760       -1.91960        8.66560
O          9.57850       -1.02290        7.83980
C         10.68620       -2.62150        9.25000
C         12.03050       -2.41590        8.95070
C         12.89000       -3.22520        9.65490
C         12.44450       -4.16410       10.59310
C         11.12030       -4.37630       10.89770
C         10.22860       -3.56810       10.18730
C          8.76560       -3.52550       10.21230
C          7.96240       -4.36180       10.95180
C          8.43620       -5.31250       11.87680
N          8.74120       -6.09760       12.65870
C          6.55840       -4.43180       10.87590
N          5.41930       -4.59160       10.85420
C         13.84410       -4.62860       10.91310
C         14.28300       -5.97190       10.29320
C         15.79210       -5.92870       10.36650
C         16.21410       -5.04150        9.47460
C         14.99700       -4.46990        8.78380
C         14.08370       -5.70250        8.79610
C         14.34110       -3.58330        9.86360
C          6.49780       -1.14370        8.24500
C          5.11080       -0.85140        8.18900
N          4.16220       -1.27510        9.08350
C          4.39540       -1.33170       10.46790
C          3.75790       -2.29800       11.24250
C          3.98290       -2.34910       12.60330
C          4.84730       -1.45520       13.22450
C          5.10620       -1.55030       14.69650
C          5.46770       -0.48650       12.44440
C          5.24230       -0.41370       11.08460
C          2.86670       -1.53340        8.59250
C          1.74100       -1.03620        9.24230
C          0.48550       -1.26700        8.71840
C          0.31740       -1.99050        7.54190
C         -1.05070       -2.19560        6.96700
C          1.44530       -2.50090        6.91310
C          2.70700       -2.28270        7.43060
C          4.81060       -0.07980        7.05500
S          3.34370        0.53910        6.37070
C          4.23980        1.25010        5.04240
C          5.59680        0.99850        5.12220
N          6.54010        1.34280        4.16310
C          6.27540        1.17840        2.80030
C          6.87320        2.02180        1.86620
C          6.62010        1.86230        0.51820
C          5.75810        0.87450        0.06020
C          5.51170        0.67390       -1.40420
C          5.15200        0.04710        0.99850
C          5.40880        0.18550        2.34630
C          7.82670        1.68050        4.61430
C          7.97240        2.48990        5.73840
C          9.22960        2.78610        6.22390
C         10.37060        2.29660        5.60140
C         11.72880        2.58580        6.16240
C         10.21690        1.50730        4.46860
C          8.96510        1.19600        3.97780
C          5.91760        0.25390        6.28580
S          7.39490       -0.34660        6.94670
C          3.50580        1.87720        3.96120
C          4.01260        2.98180        3.27280
C          3.36850        3.48540        2.15410
C          2.21490        2.87440        1.70490
C          1.37730        3.15280        0.47760
C          2.12600        2.80650       -0.82840
C          3.39700        3.59890       -1.10210
C          0.84060        4.59360        0.45860
C         -0.01320        4.90910        1.68160
C          0.25140        2.15100        0.64230
C          0.42070        1.40340        1.81650
C          1.65200        1.82790        2.45270
C          2.28270        1.33040        3.57330
C         -0.50320        0.44760        2.21940
C         -1.57490        0.20570        1.38590
C         -1.71700        0.92120        0.18400
C         -0.81960        1.91190       -0.19240
C         -2.93160        0.47840       -0.47370
C         -3.46200        0.83030       -1.69800
C         -4.68660        0.28200       -2.08530
C         -5.32350       -0.63780       -1.24840
C         -4.76610       -1.02070       -0.04040
C         -3.56870       -0.45980        0.35060
C         -2.72940       -0.75420        1.57450
C         -3.49310       -0.47490        2.87800
C         -4.04540        0.94490        2.92520
C         -2.29330       -2.23480        1.47500
C         -1.31430       -2.71820        2.53700
C         -5.28130        0.62780       -3.36060
C         -5.23700        1.82500       -4.05510
N         -4.66810        3.01140       -3.61750
C         -4.68250        3.38380       -2.26790
C         -3.60280        4.08240       -1.72810
C         -3.58700        4.42060       -0.39150
C         -4.63760        4.07290        0.44920
C         -4.61570        4.46370        1.89510
C         -5.71400        3.38550       -0.09620
C         -5.74490        3.04650       -1.43450
C         -4.06880        3.85250       -4.57090
C         -4.24970        5.23190       -4.51090
C         -3.66690        6.04830       -5.45820
C         -2.89870        5.51970       -6.49000
C         -2.30120        6.41260       -7.53380
C         -2.72100        4.14340       -6.54100
C         -3.29100        3.31580       -5.59360
C         -5.89270        1.70540       -5.30720
S         -6.22270        2.80970       -6.59020
C         -7.02020        1.53060       -7.52090
C         -7.11120        0.32720       -6.78970
N         -7.83220       -0.78200       -7.12390
C         -7.47520       -2.03200       -6.57200
C         -8.45560       -2.85040       -6.02300
C         -8.10770       -4.07220       -5.47940
C         -6.78680       -4.50220       -5.47180
C         -6.40290       -5.81330       -4.85770
C         -5.81810       -3.68120       -6.03950
C         -6.15110       -2.45920       -6.58730
C         -8.93130       -0.74610       -7.99340
C         -9.11400       -1.77170       -8.92000
C        -10.16620       -1.72270       -9.81330
C        -11.06710       -0.66460       -9.80360
C        -12.16590       -0.58860      -10.81650
C        -10.90680        0.32870       -8.84240
C         -9.85640        0.29470       -7.94830
C         -6.43050        0.45100       -5.55610
S         -6.18130       -0.61100       -4.21330
C         -7.45830        1.86450       -8.80440
C         -7.65810        0.97600       -9.84020
C         -6.94770       -0.30550       -9.96220
O         -6.13620       -0.77990       -9.18780
C         -7.31860       -0.84600      -11.28730
C         -6.89670       -2.04510      -11.85110
C         -7.44090       -2.30420      -13.08710
C         -8.32300       -1.42420      -13.72390
C         -8.73360       -0.22760      -13.18400
C         -8.20650        0.04420      -11.92050
C         -8.44400        1.17450      -11.02360
C         -9.38350        2.16190      -11.20370
C         -9.67910        3.14910      -10.24400
N         -9.99460        3.96270       -9.49630
C        -10.22300        2.26650      -12.32660
N        -10.94470        2.39690      -13.21170
C         -8.48580       -2.32650      -14.92190
C         -9.78820       -3.15840      -15.02230
C        -10.27850       -3.36180      -13.61040
C         -9.44340       -4.19840      -13.00870
C         -8.37250       -4.57350      -14.00240
C         -9.18960       -4.54580      -15.30390
C         -7.50250       -3.30900      -14.21110
H          6.30590       -2.54450        9.77150
H         12.32890       -1.67910        8.22120
H         10.79530       -5.10220       11.62400
H         14.15750       -4.51530       11.94930
H         13.79690       -6.84780       10.71410
H         16.37480       -6.48790       11.07490
H         17.21970       -4.71150        9.28950
H         15.16230       -3.97850        7.82860
H         14.47280       -6.50950        8.17720
H         13.05290       -5.49360        8.51640
H         14.98780       -2.77480       10.20040
H          3.10060       -3.01180       10.77200
H          3.49210       -3.11010       13.19090
H          4.16990       -1.62300       15.24700
H          5.65780       -0.68410       15.05340
H          5.68970       -2.44460       14.91560
H          6.13220        0.22880       12.90770
H          5.72580        0.35050       10.49360
H          1.85930       -0.46100       10.14850
H         -0.38170       -0.86790        9.22410
H         -1.44070       -1.25160        6.58520
H         -1.02580       -2.91500        6.15220
H         -1.73900       -2.55350        7.73040
H          1.33760       -3.07910        6.00670
H          3.57750       -2.68950        6.93680
H          7.54080        2.80060        2.20470
H          7.09900        2.52310       -0.19070
H          6.05590       -0.20310       -1.75660
H          4.45420        0.50890       -1.60030
H          5.84710        1.53440       -1.97730
H          4.47710       -0.72860        0.66550
H          4.94420       -0.48510        3.05360
H          7.09270        2.87940        6.23130
H          9.32660        3.40710        7.10280
H         11.76790        3.58390        6.59390
H         12.49510        2.50100        5.39550
H         11.95600        1.86910        6.95200
H         11.09160        1.11440        3.97040
H          8.86110        0.56430        3.10780
H          4.91850        3.45240        3.62270
H          3.78130        4.34550        1.65000
H          2.37760        1.74330       -0.79240
H          1.42840        2.95310       -1.65660
H          3.20840        4.66920       -1.08950
H          4.16430        3.36170       -0.37070
H          3.77680        3.33790       -2.08770
H          0.24610        4.73460       -0.44700
H          1.68040        5.28890        0.42400
H          0.56670        4.78740        2.59400
H         -0.37210        5.93530        1.63600
H         -0.87140        4.24190        1.73180
H          1.86330        0.50390        4.12840
H         -0.38010       -0.06450        3.16100
H         -0.97380        2.47560       -1.09990
H         -2.92370        1.49020       -2.35840
H         -6.26920       -1.05730       -1.56060
H         -5.27420       -1.74420        0.58050
H         -2.82350       -0.62390        3.72610
H         -4.31430       -1.18970        2.96570
H         -4.58640        1.10810        3.85490
H         -4.72170        1.12160        2.09170
H         -3.23620        1.66900        2.86420
H         -1.84410       -2.38440        0.48960
H         -3.19630       -2.84820        1.52060
H         -0.36190       -2.20310        2.45070
H         -1.13510       -3.78310        2.40120
H         -1.71060       -2.56810        3.53790
H         -2.77320        4.35250       -2.36600
H         -2.73890        4.95530        0.01090
H         -3.61110        4.37580        2.30360
H         -5.28870        3.84040        2.47800
H         -4.93120        5.50190        2.00620
H         -6.54790        3.11370        0.53510
H         -6.59550        2.51790       -1.83810
H         -4.85270        5.65410       -3.72060
H         -3.82000        7.11640       -5.40290
H         -3.02660        6.59060       -8.32850
H         -2.02590        7.37580       -7.11000
H         -1.41990        5.95620       -7.97850
H         -2.12400        3.71070       -7.33080
H         -3.13520        2.24740       -5.64230
H         -9.48520       -2.52310       -6.02150
H         -8.87630       -4.69820       -5.04970
H         -7.27510       -6.44380       -4.70480
H         -5.69180       -6.34150       -5.48980
H         -5.92800       -5.64530       -3.89080
H         -4.78870       -4.00850       -6.05700
H         -5.40500       -1.83720       -7.05610
H         -8.41610       -2.59520       -8.94310
H        -10.27790       -2.50950      -10.54490
H        -11.77470       -0.20830      -11.76140
H        -12.59100       -1.57310      -11.00110
H        -12.95470        0.08280      -10.48670
H        -11.60890        1.14850       -8.79820
H         -9.74780        1.08070       -7.21610
H         -7.60500        2.92180       -8.99110
H         -6.21150       -2.69440      -11.32840
H         -9.40210        0.44770      -13.69220
H         -8.18530       -1.91010      -15.88140
H        -10.51650       -2.77340      -15.73110
H        -11.12390       -2.84650      -13.19300
H         -9.44870       -4.52810      -11.98570
H         -7.81060       -5.47790      -13.78340
H         -8.57500       -4.57860      -16.20240
H         -9.94370       -5.33060      -15.34540
H         -6.55940       -3.53250      -14.70660
