188

C          8.93990        6.91500        5.97840
C          8.13710        7.48580        6.91420
C          6.71830        7.12900        7.19430
O          5.97880        6.41110        6.55660
C          6.39530        7.76630        8.48350
C          5.18430        7.67450        9.16620
C          5.16100        8.35680       10.35740
C          6.26430        9.07550       10.83900
C          7.46190        9.17870       10.17320
C          7.50640        8.49300        8.95410
C          8.58360        8.37580        7.97770
C          9.77470        9.05120        8.01820
C         10.16510        9.91750        9.06110
N         10.54480       10.62740        9.87960
C         10.76760        9.00850        7.01570
N         11.61290        9.04470        6.23910
C          5.54370        9.48970       12.09820
C          5.89270        8.74090       13.40840
C          6.38010        7.37210       13.00240
C          5.33860        6.69130       12.54310
C          4.12760        7.58730       12.63110
C          4.47680        8.39060       13.89400
C          4.31540        8.69010       11.55990
C          8.55600        6.06820        4.88120
C          9.44430        5.06540        4.46170
C          9.10840        4.19000        3.45760
C          7.87600        4.30310        2.80080
C          7.01590        5.34040        3.17720
C          7.34740        6.21000        4.18890
C          7.46950        3.35500        1.79010
C          8.23100        2.61840        0.90550
C          9.66490        2.78590        0.66030
C         10.22470        4.05650        0.54250
C         11.57120        4.19130        0.26680
C         12.36730        3.07040        0.09930
C         11.82460        1.79670        0.20750
C         12.66200        0.57360       -0.02970
C         12.49870        0.09420       -1.47350
C         10.47190        1.66730        0.48670
C          7.43270        1.71500        0.16930
S          7.80620        0.55140       -1.08170
C          6.12680        0.13910       -1.16970
C          5.28770       -0.77860       -1.82240
C          5.58050       -1.84600       -2.69830
C          4.52440       -2.74010       -3.07990
N          4.95250       -3.73020       -3.84710
S          6.54530       -3.55000       -4.07570
N          6.75200       -2.20310       -3.20120
C          3.20540       -2.45990       -2.66150
C          1.98660       -3.09650       -2.95290
S          1.38680       -4.47690       -3.81350
C         -0.24260       -4.00410       -3.38440
C         -1.50110       -4.55540       -3.66820
C         -1.67140       -5.77650       -4.46990
C         -1.24400       -6.99760       -3.96400
C         -1.40390       -8.14530       -4.71900
C         -1.98190       -8.07940       -5.97320
C         -2.39670       -6.86240       -6.50120
C         -2.98590       -6.79350       -7.87990
C         -1.88210       -6.79920       -8.93900
C         -2.22660       -5.71410       -5.74340
C         -2.52560       -3.81740       -3.09060
S         -1.91650       -2.41250       -2.21370
C         -0.29490       -2.83580       -2.61880
C          0.98110       -2.32430       -2.36840
N          1.52140       -1.25180       -1.70500
C          2.89870       -1.32050       -1.86370
C          3.96730       -0.54420       -1.34330
N          4.02440        0.45800       -0.39220
C          5.32500        0.87230       -0.29320
C          6.07350        1.77300        0.47700
S          5.76060        2.95810        1.69270
C          3.06790        0.86000        0.61200
C          2.50310        2.25450        0.33730
C          0.66330       -0.10320       -1.50740
C          0.52980        0.70600       -2.79690
C         -3.91980       -4.08110       -3.09390
C         -4.91310       -3.37690       -2.40340
C         -4.63000       -2.24730       -1.49580
C         -4.69910       -0.93250       -1.96150
C         -4.39060        0.10510       -1.09510
C         -4.02020       -0.13390        0.21960
C         -3.61090        0.99970        1.11650
C         -2.11880        1.29690        0.95130
C         -3.98270       -1.44470        0.67110
C         -4.28370       -2.50730       -0.16600
C         -4.25350       -3.91140        0.37050
C         -5.63520       -4.33150        0.87570
C         -5.11770       -0.62580       -3.37200
C         -6.62270       -0.36250       -3.44730
C         -6.19010       -3.87760       -2.62240
C         -6.22920       -4.97650       -3.46590
S         -4.60600       -5.39360       -3.99310
C         -7.26680       -5.78840       -3.95180
C         -8.62770       -5.72660       -3.79510
C         -9.43010       -4.73110       -3.05400
O         -9.05770       -3.73310       -2.46620
C        -10.83200       -5.17310       -3.16600
C        -11.94420       -4.54580       -2.60990
C        -13.13160       -5.19010       -2.85790
C        -13.20550       -6.37240       -3.60590
C        -12.11700       -6.99390       -4.16990
C        -10.89730       -6.35380       -3.92960
C         -9.54490       -6.69970       -4.36360
C         -9.23600       -7.75430       -5.18630
C         -7.96170       -8.09670       -5.68680
N         -6.97980       -8.45660       -6.16490
C        -10.17850       -8.67370       -5.69330
N        -10.87520       -9.46770       -6.14420
C        -14.70030       -6.47920       -3.43770
C        -15.23750       -7.49950       -2.40370
C        -14.15640       -7.67020       -1.36580
C        -14.08980       -6.54830       -0.66190
C        -15.12440       -5.59820       -1.21190
C        -16.21380       -6.59760       -1.63170
C        -14.61880       -5.15910       -2.60840
H         10.00990        7.05500        6.08270
H          4.36250        7.10720        8.75820
H          8.30090        9.73300       10.55950
H          5.42860       10.56090       12.25030
H          6.53240        9.29650       14.08880
H          7.41030        7.06910       13.03630
H          5.32460        5.70590       12.11550
H          3.16070        7.09140       12.60370
H          3.84080        9.26180       14.04440
H          4.48070        7.77800       14.79420
H          3.39630        9.23840       11.36260
H         10.39200        4.95520        4.96880
H          9.78780        3.39790        3.18350
H          6.07630        5.46030        2.65730
H          6.68170        7.02100        4.43100
H          9.60040        4.93010        0.65830
H         12.00300        5.17710        0.17580
H         13.41910        3.18600       -0.11940
H         12.35360       -0.22380        0.64970
H         13.71300        0.79920        0.16120
H         13.10370       -0.79190       -1.65060
H         12.81040        0.87220       -2.16690
H         11.45800       -0.14770       -1.67680
H         10.04210        0.68080        0.58440
H         -0.80220       -7.04410       -2.97950
H         -1.07960       -9.09620       -4.32270
H         -2.11740       -8.98170       -6.55120
H         -3.58170       -5.88460       -7.98240
H         -3.64380       -7.65020       -8.03720
H         -1.28880       -7.70770       -8.86510
H         -1.21950       -5.94760       -8.80000
H         -2.31220       -6.74600       -9.93630
H         -2.53470       -4.75680       -6.14080
H          3.59020        0.88070        1.57490
H          2.28770        0.10100        0.68210
H          3.27670        3.00210        0.49310
H          2.15020        2.34480       -0.68780
H          1.68050        2.46370        1.01740
H         -0.31770       -0.48720       -1.20920
H          1.03520        0.53510       -0.71410
H          1.50320        1.07340       -3.11800
H         -0.13070        1.55360       -2.63460
H          0.11420        0.08940       -3.59100
H         -4.43460        1.12250       -1.45840
H         -3.81290        0.74180        2.15760
H         -4.18440        1.89480        0.86840
H         -1.81830        2.11260        1.60510
H         -1.90170        1.57670       -0.07750
H         -1.52990        0.41590        1.19870
H         -3.70480       -1.64630        1.69660
H         -3.92770       -4.60800       -0.40490
H         -3.53960       -3.96790        1.19530
H         -5.97890       -3.64670        1.64770
H         -5.59510       -5.33550        1.29290
H         -6.35830       -4.32330        0.06370
H         -4.86330       -1.45820       -4.03110
H         -4.58270        0.26010       -3.72240
H         -7.18290       -1.24370       -3.14610
H         -6.89520        0.45840       -2.78790
H         -6.90950       -0.10190       -4.46350
H         -7.07540       -3.45830       -2.18170
H         -6.90030       -6.60810       -4.55770
H        -11.83740       -3.63660       -2.03960
H        -12.19760       -7.89870       -4.74750
H        -15.28630       -6.47130       -4.35450
H        -15.63500       -8.41340       -2.83660
H        -13.53100       -8.54030       -1.29040
H        -13.39750       -6.29340        0.11890
H        -15.41990       -4.78000       -0.56030
H        -16.98720       -6.15800       -2.25990
H        -16.67240       -7.10220       -0.78260
H        -15.14870       -4.28720       -2.98690
