214

C          3.60700       -3.03180        6.41580
C          2.98740       -2.71090        7.60270
C          1.74920       -1.94570        7.76030
O          0.96350       -1.60030        6.89300
C          1.63200       -1.64360        9.19910
C          0.62940       -0.90550        9.82290
C          0.79210       -0.77720       11.18160
C          1.87330       -1.34230       11.86900
C          2.86770       -2.07620       11.26550
C          2.72130       -2.21830        9.88290
C          3.55480       -2.92800        8.91190
C          4.66510       -3.67850        9.21810
C          5.23360       -3.77730       10.50270
N          5.77030       -3.88650       11.51290
C          5.38260       -4.48240        8.31220
N          6.00350       -5.19230        7.65380
C          1.40120       -0.82080       13.20390
C          0.71750       -1.83880       14.14060
C         -0.04610       -0.97460       15.11780
C         -1.07110       -0.43910       14.46730
C         -1.01750       -0.93250       13.03940
C         -0.44120       -2.33600       13.26650
C          0.19440       -0.19080       12.43710
C          3.20890       -2.81080        5.09870
C          4.04070       -3.06140        3.97610
N          5.37100       -3.38480        4.02510
C          6.23490       -2.86140        5.00730
C          7.25260       -3.65200        5.53480
C          8.08730       -3.14230        6.50910
C          7.92700       -1.84760        6.98900
C          8.80760       -1.33170        8.08460
C          6.92400       -1.05860        6.43750
C          6.09220       -1.54880        5.45070
C          5.92050       -4.19050        3.01040
C          7.17370       -3.89790        2.47860
C          7.73090       -4.72660        1.52730
C          7.05850       -5.85690        1.07430
C          7.70920       -6.78220        0.09390
C          5.79550       -6.12200        1.58630
C          5.23020       -5.30660        2.54710
C          3.32980       -2.88290        2.77810
S          3.74940       -2.98940        1.09500
C          2.15190       -2.40740        0.64800
C          1.32500       -2.23400        1.75210
N         -0.01990       -1.89960        1.68360
C         -0.52700       -1.07570        2.70420
C         -1.70330       -1.39160        3.37470
C         -2.13600       -0.59810        4.41860
C         -1.41270        0.51640        4.82270
C         -1.84560        1.33580        5.99830
C         -0.25040        0.83670        4.13170
C          0.18910        0.05710        3.08220
C         -0.87800       -2.59480        0.82640
C         -2.03280       -1.97750        0.34540
C         -2.87220       -2.64910       -0.51870
C         -2.59020       -3.94650       -0.93350
C         -3.50190       -4.65650       -1.88720
C         -1.44160       -4.55650       -0.44810
C         -0.59390       -3.89610        0.41960
C          2.01270       -2.47960        2.96120
S          1.59480       -2.27550        4.62230
C          1.85180       -2.04300       -0.69410
C          2.42970       -2.47300       -1.87080
C          3.43700       -3.54300       -1.98720
C          4.77320       -3.25040       -1.75120
C          5.73810       -4.23000       -1.89270
C          5.36190       -5.50180       -2.28080
C          4.03010       -5.79490       -2.51920
C          3.04650       -4.82720       -2.38020
C          1.59030       -5.09340       -2.66050
C          1.19680       -6.56370       -2.72670
C          1.91610       -1.78090       -2.98160
S          2.26720       -1.88550       -4.68880
C          1.13730       -0.60390       -4.96890
C          0.60420        0.11980       -6.04660
C          0.77640       -0.02580       -7.44060
C          0.01160        0.80620       -8.32440
N          0.23300        0.52860       -9.59940
S          1.31460       -0.67360       -9.68150
N          1.54100       -0.88730       -8.09290
C         -0.79460        1.82570       -7.77230
C         -1.48400        2.88310       -8.38380
S         -1.81660        3.46820       -9.97650
C         -2.56800        4.87720       -9.26580
C         -3.14170        6.01790       -9.83960
C         -3.26630        6.18250      -11.29890
C         -2.25680        6.78320      -12.04970
C         -1.01490        7.32800      -11.40400
C          0.15560        6.35450      -11.54870
C         -2.41720        6.86560      -13.42560
C         -3.54600        6.36500      -14.04740
C         -4.54220        5.76900      -13.29400
C         -4.40000        5.67550      -11.92300
C         -3.61930        6.88550       -8.86800
S         -3.32030        6.28200       -7.23720
C         -2.57150        4.86460       -7.86440
C         -1.95740        3.71220       -7.36020
N         -1.61570        3.18350       -6.14210
C         -0.90730        2.01600       -6.36540
C         -0.29840        1.07260       -5.49660
N         -0.34950        0.88370       -4.12310
C          0.52470       -0.12460       -3.80740
C          0.96330       -0.80960       -2.66650
S          0.66540       -0.76760       -0.96610
C         -1.40220        1.24350       -3.19820
C         -0.91710        2.12090       -2.04600
C         -1.70710        3.99750       -4.95290
C         -3.14070        4.11940       -4.44180
C         -4.24650        8.15700       -9.06790
N         -4.93670        8.78670       -8.09520
N         -5.39540        8.30130       -7.07100
C         -5.99030        8.08620       -6.07730
S         -4.13410        8.99250      -10.50400
C         -6.58200        7.79420       -4.88860
C         -6.74510        6.50070       -4.44930
C         -6.35640        5.35160       -5.28720
O         -5.90960        5.40140       -6.41830
C         -6.62540        4.15330       -4.47700
C         -6.39190        2.82710       -4.83410
C         -6.71850        1.91960       -3.85570
C         -7.25140        2.30030       -2.61700
C         -7.49920        3.60410       -2.25670
C         -7.16260        4.54610       -3.23300
C         -7.26720        6.00660       -3.20120
C         -7.76190        6.75570       -2.16250
C         -7.84680        8.16260       -2.17350
N         -7.93510        9.30700       -2.13290
C         -8.24960        6.22580       -0.95120
N         -8.65470        5.86230        0.06000
C         -7.33820        0.87580       -2.12690
C         -6.25380        0.41910       -1.12790
C         -6.30370       -1.08920       -1.21250
C         -5.79260       -1.44470       -2.38500
C         -5.38870       -0.18260       -3.11180
C         -4.96820        0.68860       -1.92080
C         -6.73890        0.45290       -3.50690
H          4.57440       -3.50790        6.50810
H         -0.18670       -0.48780        9.25400
H          3.69430       -2.50170       11.80940
H          2.08980       -0.15850       13.72530
H          1.38300       -2.58620       14.56370
H          0.25980       -0.80280       16.13310
H         -1.79230        0.26950       14.83070
H         -1.93390       -0.85470       12.46030
H         -0.12470       -2.83840       12.35440
H         -1.12620       -2.97820       13.81760
H          0.07930        0.89170       12.44790
H          7.37250       -4.66770        5.19240
H          8.86240       -3.77040        6.92100
H          8.55390       -1.81920        9.02630
H          9.85280       -1.54780        7.87170
H          8.68800       -0.25850        8.21070
H          6.79420       -0.04200        6.78020
H          5.32030       -0.92170        5.02880
H          7.70720       -3.02410        2.82210
H          8.70880       -4.49540        1.13040
H          8.48080       -7.36790        0.59490
H          8.18680       -6.22370       -0.70840
H          6.98340       -7.46950       -0.33210
H          5.25140       -6.98950        1.24310
H          4.26060       -5.54340        2.96010
H         -2.26190       -2.27080        3.08900
H         -3.04230       -0.86460        4.94300
H         -2.89330        1.16400        6.23240
H         -1.24970        1.05870        6.86790
H         -1.69270        2.39710        5.81200
H          0.32170        1.70480        4.42580
H          1.09630        0.31080        2.55240
H         -2.25820       -0.96770        0.65550
H         -3.76510       -2.16090       -0.88230
H         -3.30250       -5.72500       -1.89290
H         -4.54260       -4.49490       -1.61370
H         -3.35660       -4.27780       -2.89950
H         -1.20980       -5.57030       -0.74130
H          0.28740       -4.39530        0.79550
H          5.05280       -2.24710       -1.46490
H          6.77470       -3.99530       -1.70570
H          6.10700       -6.27180       -2.41100
H          3.76260       -6.79390       -2.82500
H          1.33610       -4.61530       -3.61260
H          0.99160       -4.59900       -1.88980
H          1.48180       -7.08070       -1.81280
H          0.11870       -6.64670       -2.84750
H          1.66520       -7.06010       -3.57290
H         -1.19890        7.52290      -10.34580
H         -0.75450        8.27650      -11.87850
H          1.04980        6.76630      -11.08580
H         -0.07510        5.40390      -11.07370
H          0.36410        6.16620      -12.59920
H         -1.64520        7.33970      -14.01450
H         -3.65190        6.44490      -15.11920
H         -5.42940        5.37990      -13.77090
H         -5.17290        5.21640      -11.32300
H         -2.20020        1.72720       -3.75750
H         -1.80590        0.31520       -2.77550
H         -0.37660        2.99520       -2.39990
H         -0.25270        1.55850       -1.39690
H         -1.77000        2.45170       -1.45970
H         -1.04460        3.58600       -4.19620
H         -1.34580        5.00110       -5.20710
H         -3.57740        3.14730       -4.22310
H         -3.15750        4.72030       -3.53650
H         -3.76060        4.60410       -5.18980
H         -6.92390        8.63640       -4.30050
H         -5.99090        2.57620       -5.80390
H         -7.91850        3.87920       -1.30350
H         -8.33410        0.52640       -1.86290
H         -6.33220        0.85690       -0.13680
H         -6.74180       -1.71790       -0.45980
H         -5.72650       -2.42740       -2.81360
H         -4.68000       -0.29550       -3.92870
H         -4.08380        0.30350       -1.41540
H         -4.81710        1.73830       -2.16840
H         -7.33270       -0.18310       -4.16040
