223

C         -4.39390       -5.29350        7.97020
C         -5.73200       -4.97040        7.97030
C         -6.41370       -4.07150        7.03670
O         -5.91510       -3.32330        6.21230
C         -7.85880       -4.25570        7.26970
C         -8.90430       -3.63280        6.59280
C        -10.15360       -4.01120        7.02290
C        -10.34810       -4.94060        8.05210
C         -9.32480       -5.56060        8.73010
C         -8.04540       -5.19030        8.30700
C         -6.73080       -5.61390        8.78980
C         -6.50950       -6.45870        9.85150
C         -7.52120       -7.14350       10.55190
N         -8.28740       -7.75470       11.15190
C         -5.25350       -6.74480       10.41910
N         -4.27900       -7.00460       10.97170
C        -11.85120       -4.83950        7.96860
C        -12.54700       -3.99900        9.06000
C        -13.90090       -3.68480        8.46580
C        -13.71850       -2.80560        7.48890
C        -12.23820       -2.51030        7.40700
C        -11.86120       -2.63730        8.88860
C        -11.63440       -3.80330        6.81950
C         -3.34640       -4.81280        7.18610
C         -2.04060       -5.36580        7.19710
N         -1.66420       -6.51310        7.84700
C         -0.36180       -6.60930        8.36990
C          0.35240       -7.80060        8.27280
C          1.60660       -7.90240        8.83810
C          2.18620       -6.82670        9.50270
C          3.52300       -6.97450       10.16200
C          1.47900       -5.63320        9.56830
C          0.21820       -5.52130        9.01640
C         -2.52310       -7.62340        7.95600
C         -3.36930       -7.96730        6.90430
C         -4.24090       -9.02940        7.03700
C         -4.27720       -9.78730        8.20170
C         -5.24650      -10.91700        8.36570
C         -3.39600       -9.46410        9.22700
C         -2.53090       -8.39410        9.11600
C         -1.16600       -4.59570        6.41230
S          0.51250       -4.72590        5.99720
C          0.37740       -3.32190        4.94980
C         -0.88980       -2.75160        4.98220
N         -1.27430       -1.57660        4.35770
C         -0.41140       -0.48790        4.20620
C          0.58430       -0.20960        5.14220
C          1.49030        0.80510        4.90900
C          1.43360        1.57660        3.75390
C          2.47000        2.62530        3.48890
C          0.40300        1.33210        2.85550
C         -0.50920        0.31960        3.07290
C         -2.61140       -1.47780        3.92590
C         -3.20360       -2.53750        3.24460
C         -4.53470       -2.47260        2.88830
C         -5.30250       -1.35460        3.19090
C         -6.76070       -1.32910        2.85320
C         -4.69230       -0.28690        3.83580
C         -3.36240       -0.34150        4.20360
C         -1.76830       -3.50400        5.80060
S         -3.45730       -3.39780        6.13700
C          1.48360       -2.82820        4.18720
C          2.75530       -2.49760        4.60400
C          3.33960       -2.84860        5.90180
C          3.49240       -4.18200        6.26520
C          4.07100       -4.50240        7.47860
C          4.49640       -3.50110        8.33250
C          4.36540       -2.16390        7.97780
C          4.79510       -1.07370        8.91710
C          3.64450       -0.68900        9.84960
C          3.78890       -1.84980        6.75680
C          3.42420       -1.71850        3.63730
S          4.95950       -0.88560        3.65080
C          4.58410       -0.21890        2.09510
C          5.14180        0.64280        1.13550
C          6.41610        1.24540        1.05490
C          6.76960        1.96670       -0.13460
N          8.01190        2.42230       -0.09970
S          8.67790        1.98820        1.31100
N          7.40700        1.19970        1.93160
C          5.79220        2.15270       -1.13620
C          5.82080        2.88790       -2.33260
S          6.93790        3.80550       -3.28600
C          5.65340        4.13520       -4.42400
C          5.62850        4.83190       -5.64500
C          6.82630        5.45980       -6.21440
C          7.49770        6.44310       -5.49680
C          8.64330        7.01150       -6.02130
C          9.12800        6.59740       -7.24900
C          8.47780        5.60330       -7.96950
C          9.03230        5.11180       -9.27500
C          9.99950        3.94970       -9.04030
C          7.32930        5.03600       -7.43890
C          4.36600        4.81920       -6.21180
S          3.21000        3.91470       -5.23000
C          4.43150        3.56270       -4.06170
C          4.53090        2.84090       -2.86800
N          3.71480        2.08350       -2.06990
C          4.47500        1.63080       -1.00240
C          4.18670        0.76790        0.08690
N          3.09820       -0.03280        0.39370
C          3.34670       -0.63060        1.59700
C          2.68750       -1.49810        2.47560
S          1.16860       -2.31230        2.53180
C          2.03870       -0.53850       -0.44820
C          2.59000       -1.27390       -1.66700
C          2.27980        2.22020       -2.18620
C          1.68900        2.94820       -0.98140
C          3.87490        5.45190       -7.38290
C          2.56070        5.42440       -7.81150
C          2.33300        6.12680       -9.00120
O          1.15710        6.39300       -9.57550
C         -0.01200        5.75600       -9.09030
C         -0.07110        4.28060       -9.46810
C          3.50790        6.69850       -9.51810
S          4.85840        6.40390       -8.44370
C          3.70880        7.48520      -10.66230
C          2.97870        7.44700      -11.82370
C          2.16270        6.30260      -12.27330
O          1.98830        5.24060      -11.70940
C          1.71280        6.64200      -13.63950
C          0.90820        5.86790      -14.47100
C          0.67080        6.42870      -15.70300
C          1.20330        7.66640      -16.08480
C          2.00160        8.43910      -15.27520
C          2.25070        7.88810      -14.01530
C          3.03580        8.41040      -12.89780
C          3.64700        9.63950      -12.85710
C          4.31740       10.17320      -11.73760
N          4.86170       10.69230      -10.86880
C          3.67080       10.55700      -13.92600
N          3.73730       11.34940      -14.75520
C          0.57560        7.60420      -17.45500
C          1.48600        7.22810      -18.65010
C          2.60920        6.39270      -18.08820
C          2.10160        5.22200      -17.72660
C          0.62540        5.24500      -18.03710
C          0.62720        6.12830      -19.29490
C         -0.02130        6.22610      -17.02830
H         -4.10110       -6.06710        8.66800
H         -8.70920       -2.92020        5.80660
H         -9.49220       -6.27560        9.51810
H        -12.37850       -5.76460        7.74350
H        -12.53800       -4.44360       10.05140
H        -14.81470       -4.16100        8.76960
H        -14.44970       -2.40080        6.81380
H        -11.94930       -1.59740        6.89270
H        -10.78880       -2.65440        9.07340
H        -12.32400       -1.86360        9.49910
H        -12.01620       -4.03940        5.82760
H         -0.08470       -8.64350        7.75850
H          2.14700       -8.83500        8.76360
H          4.20930       -7.53650        9.53110
H          3.95730       -6.00350       10.38450
H          3.41400       -7.52120       11.09940
H          1.91260       -4.78120       10.07070
H         -0.33160       -4.59550        9.10170
H         -3.35110       -7.38900        5.99190
H         -4.90160       -9.27550        6.21790
H         -5.77500      -11.11740        7.43710
H         -5.97930      -10.67090        9.13430
H         -4.73040      -11.82280        8.67930
H         -3.40460      -10.04310       10.13810
H         -1.87520       -8.13790        9.93310
H          0.64910       -0.79760        6.04620
H          2.26310        1.00430        5.63730
H          2.63410        3.23770        4.37360
H          2.17130        3.27160        2.66670
H          3.42080        2.15720        3.22930
H          0.31920        1.93420        1.96150
H         -1.28800        0.12320        2.35100
H         -2.61450       -3.41250        3.00920
H         -4.98990       -3.30710        2.37490
H         -7.17820       -0.33450        2.98890
H         -7.29190       -2.02000        3.50740
H         -6.92810       -1.64640        1.82510
H         -5.27030        0.59400        4.07500
H         -2.90230        0.48610        4.72370
H          3.18510       -4.96250        5.58540
H          4.19180       -5.53870        7.75210
H          4.95110       -3.75600        9.27950
H          5.64460       -1.41190        9.51380
H          5.10620       -0.19660        8.34670
H          3.95030        0.10760       10.52400
H          2.78800       -0.34630        9.27300
H          3.33470       -1.54610       10.44370
H          3.68280       -0.81590        6.46280
H          7.11360        6.76560       -4.54060
H          9.16070        7.78130       -5.46840
H         10.02230        7.04880       -7.65370
H          8.21670        4.77920       -9.92000
H          9.55910        5.92300       -9.78070
H          9.48790        3.12470       -8.54950
H         10.82370        4.26600       -8.40500
H         10.40480        3.59500       -9.98510
H          6.82180        4.24870       -7.97800
H          1.35860        0.26390       -0.73620
H          1.46440       -1.23640        0.16620
H          1.77140       -1.63230       -2.28550
H          3.22650       -0.62580       -2.26460
H          3.18190       -2.12820       -1.34710
H          2.09720        2.80830       -3.08920
H          1.80890        1.24800       -2.33760
H          2.11130        3.94800       -0.90880
H          1.91010        2.41870       -0.05750
H          0.61110        3.03410       -1.09170
H          1.80160        4.90630       -7.25310
H         -0.09830        5.89330       -8.00460
H         -0.82670        6.29900       -9.57680
H          0.66590        3.70280       -8.91680
H         -1.06130        3.88650       -9.25700
H          0.14510        4.17890      -10.52800
H          4.55770        8.15710      -10.61260
H          0.52110        4.91660      -14.14000
H          2.40810        9.38720      -15.58570
H         -0.11800        8.40650      -17.69950
H          1.77870        8.06690      -19.27590
H          3.61460        6.74910      -17.96100
H          2.59820        4.40490      -17.23660
H          0.13390        4.27770      -18.10560
H         -0.36530        6.46860      -19.58760
H          1.11810        5.65300      -20.14300
H         -1.10510        6.13030      -16.99280
