
  xtb     02232222493D
 energy: -400.793144258272 gnorm: 0.000969252353 xtb: 6.4.1 (unknown)
246273  0     0  0            999 V2000
   -3.4018   -2.6426  -10.7383 C   0  0  0  0  0  0  0  0  0  0  0  0
   -4.1151   -1.7512  -11.5081 C   0  0  0  0  0  0  0  0  0  0  0  0
   -4.5231   -0.4002  -11.1203 C   0  0  0  0  0  0  0  0  0  0  0  0
   -4.2130    0.2160  -10.1140 O   0  0  0  0  0  0  0  0  0  0  0  0
   -5.4163    0.0846  -12.1889 C   0  0  0  0  0  0  0  0  0  0  0  0
   -6.0636    1.3154  -12.2474 C   0  0  0  0  0  0  0  0  0  0  0  0
   -6.8397    1.4859  -13.3690 C   0  0  0  0  0  0  0  0  0  0  0  0
   -6.9655    0.5014  -14.3567 C   0  0  0  0  0  0  0  0  0  0  0  0
   -6.3313   -0.7181  -14.3099 C   0  0  0  0  0  0  0  0  0  0  0  0
   -5.5331   -0.9100  -13.1798 C   0  0  0  0  0  0  0  0  0  0  0  0
   -4.6975   -2.0483  -12.7945 C   0  0  0  0  0  0  0  0  0  0  0  0
   -4.4964   -3.1762  -13.5548 C   0  0  0  0  0  0  0  0  0  0  0  0
   -3.5862   -4.2097  -13.2637 C   0  0  0  0  0  0  0  0  0  0  0  0
   -2.8392   -5.0742  -13.1299 N   0  0  0  0  0  0  0  0  0  0  0  0
   -5.1540   -3.4484  -14.7702 C   0  0  0  0  0  0  0  0  0  0  0  0
   -5.6662   -3.7532  -15.7528 N   0  0  0  0  0  0  0  0  0  0  0  0
   -7.8893    1.3481  -15.1963 C   0  0  0  0  0  0  0  0  0  0  0  0
   -7.2958    2.0378  -16.4494 C   0  0  0  0  0  0  0  0  0  0  0  0
   -5.8243    2.2279  -16.1774 C   0  0  0  0  0  0  0  0  0  0  0  0
   -5.7027    3.1614  -15.2431 C   0  0  0  0  0  0  0  0  0  0  0  0
   -7.0900    3.6191  -14.8664 C   0  0  0  0  0  0  0  0  0  0  0  0
   -7.8008    3.4714  -16.2212 C   0  0  0  0  0  0  0  0  0  0  0  0
   -7.7471    2.4469  -14.0963 C   0  0  0  0  0  0  0  0  0  0  0  0
   -2.8114   -2.4890   -9.4857 C   0  0  0  0  0  0  0  0  0  0  0  0
   -2.1484   -3.5454   -8.8073 C   0  0  0  0  0  0  0  0  0  0  0  0
   -2.1812   -4.8657   -9.1637 N   0  0  0  0  0  0  0  0  0  0  0  0
   -3.3221   -5.4747   -9.7203 C   0  0  0  0  0  0  0  0  0  0  0  0
   -3.1751   -6.4894  -10.6625 C   0  0  0  0  0  0  0  0  0  0  0  0
   -4.2914   -7.0863  -11.2130 C   0  0  0  0  0  0  0  0  0  0  0  0
   -5.5728   -6.6867  -10.8522 C   0  0  0  0  0  0  0  0  0  0  0  0
   -6.7709   -7.3127  -11.4964 C   0  0  0  0  0  0  0  0  0  0  0  0
   -5.7080   -5.6882   -9.8943 C   0  0  0  0  0  0  0  0  0  0  0  0
   -4.6013   -5.0927   -9.3234 C   0  0  0  0  0  0  0  0  0  0  0  0
   -1.0833   -5.6818   -8.8260 C   0  0  0  0  0  0  0  0  0  0  0  0
   -1.2814   -6.9315   -8.2490 C   0  0  0  0  0  0  0  0  0  0  0  0
   -0.1961   -7.7179   -7.9162 C   0  0  0  0  0  0  0  0  0  0  0  0
    1.1026   -7.2826   -8.1479 C   0  0  0  0  0  0  0  0  0  0  0  0
    2.2826   -8.1178   -7.7607 C   0  0  0  0  0  0  0  0  0  0  0  0
    1.2891   -6.0370   -8.7361 C   0  0  0  0  0  0  0  0  0  0  0  0
    0.2142   -5.2413   -9.0734 C   0  0  0  0  0  0  0  0  0  0  0  0
   -1.4575   -3.0601   -7.6826 C   0  0  0  0  0  0  0  0  0  0  0  0
   -0.4663   -3.7801   -6.4534 S   0  0  0  0  0  0  0  0  0  0  0  0
   -0.2972   -2.2213   -5.6475 C   0  0  0  0  0  0  0  0  0  0  0  0
   -1.0255   -1.2260   -6.2752 C   0  0  0  0  0  0  0  0  0  0  0  0
   -1.0913    0.1131   -5.8934 N   0  0  0  0  0  0  0  0  0  0  0  0
   -0.9617    1.0650   -6.9187 C   0  0  0  0  0  0  0  0  0  0  0  0
   -1.8002    2.1734   -6.9941 C   0  0  0  0  0  0  0  0  0  0  0  0
   -1.6696    3.0698   -8.0345 C   0  0  0  0  0  0  0  0  0  0  0  0
   -0.7149    2.8883   -9.0282 C   0  0  0  0  0  0  0  0  0  0  0  0
   -0.6164    3.8451  -10.1767 C   0  0  0  0  0  0  0  0  0  0  0  0
    0.1208    1.7829   -8.9433 C   0  0  0  0  0  0  0  0  0  0  0  0
    0.0067    0.8834   -7.9024 C   0  0  0  0  0  0  0  0  0  0  0  0
   -1.6219    0.4680   -4.6514 C   0  0  0  0  0  0  0  0  0  0  0  0
   -2.5702   -0.3344   -4.0197 C   0  0  0  0  0  0  0  0  0  0  0  0
   -3.0620    0.0170   -2.7767 C   0  0  0  0  0  0  0  0  0  0  0  0
   -2.6325    1.1702   -2.1360 C   0  0  0  0  0  0  0  0  0  0  0  0
   -3.1822    1.5712   -0.8001 C   0  0  0  0  0  0  0  0  0  0  0  0
   -1.6931    1.9719   -2.7781 C   0  0  0  0  0  0  0  0  0  0  0  0
   -1.1921    1.6332   -4.0164 C   0  0  0  0  0  0  0  0  0  0  0  0
   -1.6520   -1.7063   -7.4510 C   0  0  0  0  0  0  0  0  0  0  0  0
   -2.6695   -0.9534   -8.6234 S   0  0  0  0  0  0  0  0  0  0  0  0
    0.5588   -2.1579   -4.4988 C   0  0  0  0  0  0  0  0  0  0  0  0
    1.8082   -2.7384   -4.3754 C   0  0  0  0  0  0  0  0  0  0  0  0
    2.5755   -3.3558   -5.4571 C   0  0  0  0  0  0  0  0  0  0  0  0
    2.6038   -2.7959   -6.7322 C   0  0  0  0  0  0  0  0  0  0  0  0
    3.4031   -3.3497   -7.7121 C   0  0  0  0  0  0  0  0  0  0  0  0
    4.1879   -4.4560   -7.4325 C   0  0  0  0  0  0  0  0  0  0  0  0
    4.1705   -5.0299   -6.1685 C   0  0  0  0  0  0  0  0  0  0  0  0
    5.0696   -6.1831   -5.8269 C   0  0  0  0  0  0  0  0  0  0  0  0
    6.3555   -5.6690   -5.1759 C   0  0  0  0  0  0  0  0  0  0  0  0
    3.3574   -4.4745   -5.1926 C   0  0  0  0  0  0  0  0  0  0  0  0
    2.3299   -2.5635   -3.0747 C   0  0  0  0  0  0  0  0  0  0  0  0
    3.8608   -2.9791   -2.3365 S   0  0  0  0  0  0  0  0  0  0  0  0
    3.3472   -2.1980   -0.8775 C   0  0  0  0  0  0  0  0  0  0  0  0
    3.8429   -1.8741    0.3953 C   0  0  0  0  0  0  0  0  0  0  0  0
    5.1274   -2.0517    0.9521 C   0  0  0  0  0  0  0  0  0  0  0  0
    5.4096   -1.4795    2.2360 C   0  0  0  0  0  0  0  0  0  0  0  0
    6.6636   -1.6728    2.6133 N   0  0  0  0  0  0  0  0  0  0  0  0
    7.4235   -2.5081    1.4516 S   0  0  0  0  0  0  0  0  0  0  0  0
    6.1810   -2.6537    0.4228 N   0  0  0  0  0  0  0  0  0  0  0  0
    4.3632   -0.8540    2.9471 C   0  0  0  0  0  0  0  0  0  0  0  0
    4.3318   -0.3272    4.2475 C   0  0  0  0  0  0  0  0  0  0  0  0
    5.4056   -0.0465    5.5762 S   0  0  0  0  0  0  0  0  0  0  0  0
    4.0500    0.5394    6.5120 C   0  0  0  0  0  0  0  0  0  0  0  0
    3.9584    1.0539    7.8199 C   0  0  0  0  0  0  0  0  0  0  0  0
    5.1481    1.2097    8.6653 C   0  0  0  0  0  0  0  0  0  0  0  0
    5.9775    0.1157    8.8856 C   0  0  0  0  0  0  0  0  0  0  0  0
    7.1109    0.2548    9.6645 C   0  0  0  0  0  0  0  0  0  0  0  0
    7.4269    1.4799   10.2226 C   0  0  0  0  0  0  0  0  0  0  0  0
    6.6192    2.5881    9.9991 C   0  0  0  0  0  0  0  0  0  0  0  0
    6.9852    3.9284   10.5683 C   0  0  0  0  0  0  0  0  0  0  0  0
    7.8976    4.6871    9.6032 C   0  0  0  0  0  0  0  0  0  0  0  0
    5.4907    2.4451    9.2060 C   0  0  0  0  0  0  0  0  0  0  0  0
    2.6486    1.3739    8.1399 C   0  0  0  0  0  0  0  0  0  0  0  0
    1.5443    1.0736    6.8039 S   0  0  0  0  0  0  0  0  0  0  0  0
    2.8409    0.5083    5.8142 C   0  0  0  0  0  0  0  0  0  0  0  0
    3.0079    0.0301    4.5084 C   0  0  0  0  0  0  0  0  0  0  0  0
    2.2299   -0.2292    3.4127 N   0  0  0  0  0  0  0  0  0  0  0  0
    3.0418   -0.7552    2.4227 C   0  0  0  0  0  0  0  0  0  0  0  0
    2.8073   -1.1760    1.0833 C   0  0  0  0  0  0  0  0  0  0  0  0
    1.7346   -1.0487    0.2181 N   0  0  0  0  0  0  0  0  0  0  0  0
    2.0614   -1.6653   -0.9570 C   0  0  0  0  0  0  0  0  0  0  0  0
    1.4846   -1.8615   -2.2191 C   0  0  0  0  0  0  0  0  0  0  0  0
    0.0214   -1.4005   -3.0084 S   0  0  0  0  0  0  0  0  0  0  0  0
    0.5196   -0.2717    0.2837 C   0  0  0  0  0  0  0  0  0  0  0  0
   -0.7151   -1.1568    0.4566 C   0  0  0  0  0  0  0  0  0  0  0  0
    0.7947   -0.1306    3.5333 C   0  0  0  0  0  0  0  0  0  0  0  0
    0.3103    1.3186    3.4758 C   0  0  0  0  0  0  0  0  0  0  0  0
    2.0868    1.8323    9.3656 C   0  0  0  0  0  0  0  0  0  0  0  0
    2.7091    2.1282   10.5450 C   0  0  0  0  0  0  0  0  0  0  0  0
    1.8383    2.5781   11.5614 C   0  0  0  0  0  0  0  0  0  0  0  0
    2.1919    3.0634   12.8390 C   0  0  0  0  0  0  0  0  0  0  0  0
    3.5594    3.1066   13.3047 C   0  0  0  0  0  0  0  0  0  0  0  0
    4.1563    4.0747   14.0767 C   0  0  0  0  0  0  0  0  0  0  0  0
    5.4935    3.8023   14.3655 C   0  0  0  0  0  0  0  0  0  0  0  0
    5.9515    2.6048   13.8503 C   0  0  0  0  0  0  0  0  0  0  0  0
    7.2996    2.1609   13.9909 C   0  0  0  0  0  0  0  0  0  0  0  0
    7.9629    1.0300   13.6580 C   0  0  0  0  0  0  0  0  0  0  0  0
    7.5851   -0.2305   13.1059 C   0  0  0  0  0  0  0  0  0  0  0  0
    8.4997   -1.2097   12.7808 C   0  0  0  0  0  0  0  0  0  0  0  0
    7.9207   -2.3970   12.3112 C   0  0  0  0  0  0  0  0  0  0  0  0
    6.5576   -2.3533   12.2829 C   0  0  0  0  0  0  0  0  0  0  0  0
    5.6022   -3.4074   11.8419 C   0  0  0  0  0  0  0  0  0  0  0  0
    5.0120   -3.0850   10.4677 C   0  0  0  0  0  0  0  0  0  0  0  0
    5.9711   -0.8166   12.8209 S   0  0  0  0  0  0  0  0  0  0  0  0
    4.6832    1.8212   12.9639 S   0  0  0  0  0  0  0  0  0  0  0  0
    1.1412    3.5172   13.6321 C   0  0  0  0  0  0  0  0  0  0  0  0
   -0.2187    3.4916   13.2253 C   0  0  0  0  0  0  0  0  0  0  0  0
   -0.5684    3.0264   11.9336 C   0  0  0  0  0  0  0  0  0  0  0  0
   -1.9269    3.0020   11.4471 C   0  0  0  0  0  0  0  0  0  0  0  0
   -2.5010    2.0639   10.6226 C   0  0  0  0  0  0  0  0  0  0  0  0
   -3.8293    2.3440   10.2925 C   0  0  0  0  0  0  0  0  0  0  0  0
   -4.3024    3.5131   10.8449 C   0  0  0  0  0  0  0  0  0  0  0  0
   -5.6029    4.0688   10.6958 C   0  0  0  0  0  0  0  0  0  0  0  0
   -6.0282    5.2114   11.2734 C   0  0  0  0  0  0  0  0  0  0  0  0
   -7.3302    5.7642   11.1213 C   0  0  0  0  0  0  0  0  0  0  0  0
   -7.8214    6.9134   11.6918 C   0  0  0  0  0  0  0  0  0  0  0  0
   -9.1541    7.1858   11.3412 C   0  0  0  0  0  0  0  0  0  0  0  0
   -9.6956    6.2584   10.5005 C   0  0  0  0  0  0  0  0  0  0  0  0
  -11.0793    6.2005    9.9532 C   0  0  0  0  0  0  0  0  0  0  0  0
  -11.9056    5.1155   10.6479 C   0  0  0  0  0  0  0  0  0  0  0  0
   -8.5523    5.0115   10.1280 S   0  0  0  0  0  0  0  0  0  0  0  0
   -3.0656    4.2711   11.8074 S   0  0  0  0  0  0  0  0  0  0  0  0
    0.4856    2.5893   11.1386 C   0  0  0  0  0  0  0  0  0  0  0  0
    0.3504    2.0609    9.4828 S   0  0  0  0  0  0  0  0  0  0  0  0
   -1.0764    3.9183   14.2564 C   0  0  0  0  0  0  0  0  0  0  0  0
   -0.4243    4.2888   15.4096 C   0  0  0  0  0  0  0  0  0  0  0  0
    1.3123    4.1114   15.2589 S   0  0  0  0  0  0  0  0  0  0  0  0
   -1.0634    4.7626   16.5786 C   0  0  0  0  0  0  0  0  0  0  0  0
   -0.4706    5.1838   17.7320 C   0  0  0  0  0  0  0  0  0  0  0  0
    0.9192    5.2326   17.9672 C   0  0  0  0  0  0  0  0  0  0  0  0
    2.0382    5.3055   18.2115 N   0  0  0  0  0  0  0  0  0  0  0  0
   -1.2607    5.6319   18.8135 C   0  0  0  0  0  0  0  0  0  0  0  0
   -1.9079    5.9910   19.6894 N   0  0  0  0  0  0  0  0  0  0  0  0
   -3.2763   -3.6302  -11.1627 H   0  0  0  0  0  0  0  0  0  0  0  0
   -5.9396    2.0442  -11.4616 H   0  0  0  0  0  0  0  0  0  0  0  0
   -6.4407   -1.4646  -15.0787 H   0  0  0  0  0  0  0  0  0  0  0  0
   -8.8798    0.9362  -15.3799 H   0  0  0  0  0  0  0  0  0  0  0  0
   -7.5517    1.5601  -17.3913 H   0  0  0  0  0  0  0  0  0  0  0  0
   -5.0501    1.6406  -16.6354 H   0  0  0  0  0  0  0  0  0  0  0  0
   -4.8062    3.5098  -14.7643 H   0  0  0  0  0  0  0  0  0  0  0  0
   -7.1589    4.5825  -14.3675 H   0  0  0  0  0  0  0  0  0  0  0  0
   -8.8855    3.5434  -16.1522 H   0  0  0  0  0  0  0  0  0  0  0  0
   -7.4324    4.1722  -16.9691 H   0  0  0  0  0  0  0  0  0  0  0  0
   -8.6454    2.7532  -13.5632 H   0  0  0  0  0  0  0  0  0  0  0  0
   -2.1871   -6.7941  -10.9693 H   0  0  0  0  0  0  0  0  0  0  0  0
   -4.1644   -7.8620  -11.9528 H   0  0  0  0  0  0  0  0  0  0  0  0
   -6.6880   -8.3980  -11.4889 H   0  0  0  0  0  0  0  0  0  0  0  0
   -7.6858   -7.0258  -10.9840 H   0  0  0  0  0  0  0  0  0  0  0  0
   -6.8436   -6.9932  -12.5362 H   0  0  0  0  0  0  0  0  0  0  0  0
   -6.6945   -5.3751   -9.5837 H   0  0  0  0  0  0  0  0  0  0  0  0
   -4.7235   -4.3230   -8.5754 H   0  0  0  0  0  0  0  0  0  0  0  0
   -2.2865   -7.2774   -8.0583 H   0  0  0  0  0  0  0  0  0  0  0  0
   -0.3632   -8.6838   -7.4621 H   0  0  0  0  0  0  0  0  0  0  0  0
    3.0274   -8.1221   -8.5539 H   0  0  0  0  0  0  0  0  0  0  0  0
    2.7488   -7.7016   -6.8683 H   0  0  0  0  0  0  0  0  0  0  0  0
    1.9856   -9.1419   -7.5500 H   0  0  0  0  0  0  0  0  0  0  0  0
    2.2910   -5.6869   -8.9311 H   0  0  0  0  0  0  0  0  0  0  0  0
    0.3710   -4.2789   -9.5378 H   0  0  0  0  0  0  0  0  0  0  0  0
   -2.5643    2.3178   -6.2450 H   0  0  0  0  0  0  0  0  0  0  0  0
   -2.3348    3.9196   -8.0860 H   0  0  0  0  0  0  0  0  0  0  0  0
    0.3662    3.7987  -10.6403 H   0  0  0  0  0  0  0  0  0  0  0  0
   -0.8054    4.8654   -9.8496 H   0  0  0  0  0  0  0  0  0  0  0  0
   -1.3609    3.5915  -10.9322 H   0  0  0  0  0  0  0  0  0  0  0  0
    0.8735    1.6220   -9.7021 H   0  0  0  0  0  0  0  0  0  0  0  0
    0.6659    0.0286   -7.8507 H   0  0  0  0  0  0  0  0  0  0  0  0
   -2.9190   -1.2324   -4.5083 H   0  0  0  0  0  0  0  0  0  0  0  0
   -3.7975   -0.6164   -2.3018 H   0  0  0  0  0  0  0  0  0  0  0  0
   -3.6988    0.7403   -0.3257 H   0  0  0  0  0  0  0  0  0  0  0  0
   -3.8943    2.3884   -0.9192 H   0  0  0  0  0  0  0  0  0  0  0  0
   -2.3869    1.9198   -0.1429 H   0  0  0  0  0  0  0  0  0  0  0  0
   -1.3471    2.8744   -2.2940 H   0  0  0  0  0  0  0  0  0  0  0  0
   -0.4580    2.2593   -4.5015 H   0  0  0  0  0  0  0  0  0  0  0  0
    2.0189   -1.9124   -6.9413 H   0  0  0  0  0  0  0  0  0  0  0  0
    3.4260   -2.9081   -8.6980 H   0  0  0  0  0  0  0  0  0  0  0  0
    4.8255   -4.8726   -8.1997 H   0  0  0  0  0  0  0  0  0  0  0  0
    5.3203   -6.7447   -6.7291 H   0  0  0  0  0  0  0  0  0  0  0  0
    4.5636   -6.8556   -5.1305 H   0  0  0  0  0  0  0  0  0  0  0  0
    6.1241   -5.1115   -4.2712 H   0  0  0  0  0  0  0  0  0  0  0  0
    6.8859   -5.0083   -5.8581 H   0  0  0  0  0  0  0  0  0  0  0  0
    7.0090   -6.4989   -4.9171 H   0  0  0  0  0  0  0  0  0  0  0  0
    3.3307   -4.9198   -4.2089 H   0  0  0  0  0  0  0  0  0  0  0  0
    5.7243   -0.8399    8.4530 H   0  0  0  0  0  0  0  0  0  0  0  0
    7.7495   -0.5982    9.8408 H   0  0  0  0  0  0  0  0  0  0  0  0
    8.3087    1.5811   10.8380 H   0  0  0  0  0  0  0  0  0  0  0  0
    6.0814    4.5145   10.7496 H   0  0  0  0  0  0  0  0  0  0  0  0
    7.4994    3.7929   11.5221 H   0  0  0  0  0  0  0  0  0  0  0  0
    8.8100    4.1226    9.4242 H   0  0  0  0  0  0  0  0  0  0  0  0
    7.3972    4.8379    8.6491 H   0  0  0  0  0  0  0  0  0  0  0  0
    8.1636    5.6581   10.0140 H   0  0  0  0  0  0  0  0  0  0  0  0
    4.8682    3.3052    8.9999 H   0  0  0  0  0  0  0  0  0  0  0  0
    0.4227    0.2708   -0.6639 H   0  0  0  0  0  0  0  0  0  0  0  0
    0.6052    0.4633    1.0786 H   0  0  0  0  0  0  0  0  0  0  0  0
   -1.5874   -0.5384    0.6437 H   0  0  0  0  0  0  0  0  0  0  0  0
   -0.8912   -1.7304   -0.4490 H   0  0  0  0  0  0  0  0  0  0  0  0
   -0.5927   -1.8574    1.2803 H   0  0  0  0  0  0  0  0  0  0  0  0
    0.3263   -0.7428    2.7679 H   0  0  0  0  0  0  0  0  0  0  0  0
    0.5184   -0.5476    4.5085 H   0  0  0  0  0  0  0  0  0  0  0  0
    0.6464    1.8610    4.3551 H   0  0  0  0  0  0  0  0  0  0  0  0
    0.6942    1.8350    2.5984 H   0  0  0  0  0  0  0  0  0  0  0  0
   -0.7756    1.3423    3.4529 H   0  0  0  0  0  0  0  0  0  0  0  0
    3.7680    2.0346   10.6760 H   0  0  0  0  0  0  0  0  0  0  0  0
    3.6587    4.9743   14.3911 H   0  0  0  0  0  0  0  0  0  0  0  0
    6.1173    4.4603   14.9441 H   0  0  0  0  0  0  0  0  0  0  0  0
    7.9102    2.9241   14.4631 H   0  0  0  0  0  0  0  0  0  0  0  0
    9.0281    1.0537   13.8669 H   0  0  0  0  0  0  0  0  0  0  0  0
    9.5616   -1.0676   12.8822 H   0  0  0  0  0  0  0  0  0  0  0  0
    8.4897   -3.2603   12.0130 H   0  0  0  0  0  0  0  0  0  0  0  0
    6.1246   -4.3657   11.8024 H   0  0  0  0  0  0  0  0  0  0  0  0
    4.7898   -3.4890   12.5682 H   0  0  0  0  0  0  0  0  0  0  0  0
    5.8010   -3.0418    9.7206 H   0  0  0  0  0  0  0  0  0  0  0  0
    4.5047   -2.1228   10.4942 H   0  0  0  0  0  0  0  0  0  0  0  0
    4.2974   -3.8505   10.1749 H   0  0  0  0  0  0  0  0  0  0  0  0
   -1.9882    1.1761   10.2995 H   0  0  0  0  0  0  0  0  0  0  0  0
   -4.4346    1.7112    9.6682 H   0  0  0  0  0  0  0  0  0  0  0  0
   -6.2805    3.5070   10.0649 H   0  0  0  0  0  0  0  0  0  0  0  0
   -5.3522    5.7732   11.9066 H   0  0  0  0  0  0  0  0  0  0  0  0
   -7.2347    7.5369   12.3429 H   0  0  0  0  0  0  0  0  0  0  0  0
   -9.6986    8.0437   11.6950 H   0  0  0  0  0  0  0  0  0  0  0  0
  -11.5551    7.1731   10.0957 H   0  0  0  0  0  0  0  0  0  0  0  0
  -11.0427    5.9897    8.8814 H   0  0  0  0  0  0  0  0  0  0  0  0
  -11.9680    5.3130   11.7156 H   0  0  0  0  0  0  0  0  0  0  0  0
  -11.4443    4.1412   10.5030 H   0  0  0  0  0  0  0  0  0  0  0  0
  -12.9124    5.0889   10.2390 H   0  0  0  0  0  0  0  0  0  0  0  0
   -2.1475    3.9473   14.1738 H   0  0  0  0  0  0  0  0  0  0  0  0
   -2.1462    4.7938   16.5370 H   0  0  0  0  0  0  0  0  0  0  0  0
  1  2  2  0  0  0  0
  2  3  1  0  0  0  0
  3  4  2  0  0  0  0
  3  5  1  0  0  0  0
  5  6  2  0  0  0  0
  6  7  1  0  0  0  0
  7  8  2  0  0  0  0
  8  9  1  0  0  0  0
  9 10  2  0  0  0  0
 10 11  1  0  0  0  0
 11 12  2  0  0  0  0
 12 13  1  0  0  0  0
 13 14  3  0  0  0  0
 12 15  1  0  0  0  0
 15 16  3  0  0  0  0
  8 17  1  0  0  0  0
 17 18  1  0  0  0  0
 18 19  1  0  0  0  0
 19 20  2  0  0  0  0
 20 21  1  0  0  0  0
 21 22  1  0  0  0  0
 21 23  1  0  0  0  0
  1 24  1  0  0  0  0
 24 25  2  0  0  0  0
 25 26  1  0  0  0  0
 26 27  1  0  0  0  0
 27 28  2  0  0  0  0
 28 29  1  0  0  0  0
 29 30  2  0  0  0  0
 30 31  1  0  0  0  0
 30 32  1  0  0  0  0
 32 33  2  0  0  0  0
 26 34  1  0  0  0  0
 34 35  2  0  0  0  0
 35 36  1  0  0  0  0
 36 37  2  0  0  0  0
 37 38  1  0  0  0  0
 37 39  1  0  0  0  0
 39 40  2  0  0  0  0
 25 41  1  0  0  0  0
 41 42  1  0  0  0  0
 42 43  1  0  0  0  0
 43 44  2  0  0  0  0
 44 45  1  0  0  0  0
 45 46  1  0  0  0  0
 46 47  2  0  0  0  0
 47 48  1  0  0  0  0
 48 49  2  0  0  0  0
 49 50  1  0  0  0  0
 49 51  1  0  0  0  0
 51 52  2  0  0  0  0
 45 53  1  0  0  0  0
 53 54  2  0  0  0  0
 54 55  1  0  0  0  0
 55 56  2  0  0  0  0
 56 57  1  0  0  0  0
 56 58  1  0  0  0  0
 58 59  2  0  0  0  0
 44 60  1  0  0  0  0
 60 61  1  0  0  0  0
 43 62  1  0  0  0  0
 62 63  2  0  0  0  0
 63 64  1  0  0  0  0
 64 65  2  0  0  0  0
 65 66  1  0  0  0  0
 66 67  2  0  0  0  0
 67 68  1  0  0  0  0
 68 69  1  0  0  0  0
 69 70  1  0  0  0  0
 68 71  2  0  0  0  0
 63 72  1  0  0  0  0
 72 73  1  0  0  0  0
 73 74  1  0  0  0  0
 74 75  1  0  0  0  0
 75 76  1  0  0  0  0
 76 77  1  0  0  0  0
 77 78  2  0  0  0  0
 78 79  1  0  0  0  0
 79 80  1  0  0  0  0
 77 81  1  0  0  0  0
 81 82  1  0  0  0  0
 82 83  1  0  0  0  0
 83 84  1  0  0  0  0
 84 85  1  0  0  0  0
 85 86  1  0  0  0  0
 86 87  2  0  0  0  0
 87 88  1  0  0  0  0
 88 89  2  0  0  0  0
 89 90  1  0  0  0  0
 90 91  1  0  0  0  0
 91 92  1  0  0  0  0
 90 93  2  0  0  0  0
 85 94  2  0  0  0  0
 94 95  1  0  0  0  0
 95 96  1  0  0  0  0
 96 97  1  0  0  0  0
 97 98  1  0  0  0  0
 98 99  1  0  0  0  0
 99100  1  0  0  0  0
100101  1  0  0  0  0
101102  1  0  0  0  0
102103  1  0  0  0  0
103104  1  0  0  0  0
101105  1  0  0  0  0
105106  1  0  0  0  0
 98107  1  0  0  0  0
107108  1  0  0  0  0
 94109  1  0  0  0  0
109110  2  0  0  0  0
110111  1  0  0  0  0
111112  2  0  0  0  0
112113  1  0  0  0  0
113114  2  0  0  0  0
114115  1  0  0  0  0
115116  2  0  0  0  0
116117  1  0  0  0  0
117118  2  0  0  0  0
118119  1  0  0  0  0
119120  2  0  0  0  0
120121  1  0  0  0  0
121122  2  0  0  0  0
122123  1  0  0  0  0
123124  1  0  0  0  0
122125  1  0  0  0  0
116126  1  0  0  0  0
112127  1  0  0  0  0
127128  2  0  0  0  0
128129  1  0  0  0  0
129130  1  0  0  0  0
130131  2  0  0  0  0
131132  1  0  0  0  0
132133  2  0  0  0  0
133134  1  0  0  0  0
134135  2  0  0  0  0
135136  1  0  0  0  0
136137  2  0  0  0  0
137138  1  0  0  0  0
138139  2  0  0  0  0
139140  1  0  0  0  0
140141  1  0  0  0  0
139142  1  0  0  0  0
133143  1  0  0  0  0
129144  2  0  0  0  0
144145  1  0  0  0  0
128146  1  0  0  0  0
146147  2  0  0  0  0
147148  1  0  0  0  0
147149  1  0  0  0  0
149150  2  0  0  0  0
150151  1  0  0  0  0
151152  3  0  0  0  0
150153  1  0  0  0  0
153154  3  0  0  0  0
 11  2  1  0  0  0  0
 23 17  1  0  0  0  0
 61 24  1  0  0  0  0
104 62  1  0  0  0  0
145109  1  0  0  0  0
 10  5  1  0  0  0  0
 22 18  1  0  0  0  0
 33 27  1  0  0  0  0
 40 34  1  0  0  0  0
 60 41  2  0  0  0  0
 71 64  1  0  0  0  0
103 72  2  0  0  0  0
144111  1  0  0  0  0
 23  7  1  0  0  0  0
 52 46  1  0  0  0  0
 59 53  1  0  0  0  0
102 74  2  0  0  0  0
126113  1  0  0  0  0
148127  1  0  0  0  0
100 75  2  0  0  0  0
125119  1  0  0  0  0
143130  1  0  0  0  0
 80 76  2  0  0  0  0
 99 81  2  0  0  0  0
142136  1  0  0  0  0
 97 82  2  0  0  0  0
 96 84  2  0  0  0  0
 93 86  1  0  0  0  0
  1155  1  0  0  0  0
  6156  1  0  0  0  0
  9157  1  0  0  0  0
 17158  1  0  0  0  0
 18159  1  0  0  0  0
 19160  1  0  0  0  0
 20161  1  0  0  0  0
 21162  1  0  0  0  0
 22163  1  0  0  0  0
 22164  1  0  0  0  0
 23165  1  0  0  0  0
 28166  1  0  0  0  0
 29167  1  0  0  0  0
 31168  1  0  0  0  0
 31169  1  0  0  0  0
 31170  1  0  0  0  0
 32171  1  0  0  0  0
 33172  1  0  0  0  0
 35173  1  0  0  0  0
 36174  1  0  0  0  0
 38175  1  0  0  0  0
 38176  1  0  0  0  0
 38177  1  0  0  0  0
 39178  1  0  0  0  0
 40179  1  0  0  0  0
 47180  1  0  0  0  0
 48181  1  0  0  0  0
 50182  1  0  0  0  0
 50183  1  0  0  0  0
 50184  1  0  0  0  0
 51185  1  0  0  0  0
 52186  1  0  0  0  0
 54187  1  0  0  0  0
 55188  1  0  0  0  0
 57189  1  0  0  0  0
 57190  1  0  0  0  0
 57191  1  0  0  0  0
 58192  1  0  0  0  0
 59193  1  0  0  0  0
 65194  1  0  0  0  0
 66195  1  0  0  0  0
 67196  1  0  0  0  0
 69197  1  0  0  0  0
 69198  1  0  0  0  0
 70199  1  0  0  0  0
 70200  1  0  0  0  0
 70201  1  0  0  0  0
 71202  1  0  0  0  0
 87203  1  0  0  0  0
 88204  1  0  0  0  0
 89205  1  0  0  0  0
 91206  1  0  0  0  0
 91207  1  0  0  0  0
 92208  1  0  0  0  0
 92209  1  0  0  0  0
 92210  1  0  0  0  0
 93211  1  0  0  0  0
105212  1  0  0  0  0
105213  1  0  0  0  0
106214  1  0  0  0  0
106215  1  0  0  0  0
106216  1  0  0  0  0
107217  1  0  0  0  0
107218  1  0  0  0  0
108219  1  0  0  0  0
108220  1  0  0  0  0
108221  1  0  0  0  0
110222  1  0  0  0  0
114223  1  0  0  0  0
115224  1  0  0  0  0
117225  1  0  0  0  0
118226  1  0  0  0  0
120227  1  0  0  0  0
121228  1  0  0  0  0
123229  1  0  0  0  0
123230  1  0  0  0  0
124231  1  0  0  0  0
124232  1  0  0  0  0
124233  1  0  0  0  0
131234  1  0  0  0  0
132235  1  0  0  0  0
134236  1  0  0  0  0
135237  1  0  0  0  0
137238  1  0  0  0  0
138239  1  0  0  0  0
140240  1  0  0  0  0
140241  1  0  0  0  0
141242  1  0  0  0  0
141243  1  0  0  0  0
141244  1  0  0  0  0
146245  1  0  0  0  0
149246  1  0  0  0  0
M  END
