
  xtb     02272209453D
 energy: -406.140526149176 gnorm: 0.000857447641 xtb: 6.4.1 (unknown)
246273  0     0  0            999 V2000
    5.3114    8.5738   -3.9800 C   0  0  0  0  0  0  0  0  0  0  0  0
    6.0535    9.5844   -3.4272 C   0  0  0  0  0  0  0  0  0  0  0  0
    5.4753   10.9455   -3.3310 C   0  0  0  0  0  0  0  0  0  0  0  0
    4.4552   11.3461   -3.8483 O   0  0  0  0  0  0  0  0  0  0  0  0
    6.3721   11.6858   -2.4188 C   0  0  0  0  0  0  0  0  0  0  0  0
    6.1893   12.9722   -1.9176 C   0  0  0  0  0  0  0  0  0  0  0  0
    7.1927   13.3941   -1.0790 C   0  0  0  0  0  0  0  0  0  0  0  0
    8.3058   12.6020   -0.7690 C   0  0  0  0  0  0  0  0  0  0  0  0
    8.5023   11.3338   -1.2613 C   0  0  0  0  0  0  0  0  0  0  0  0
    7.4826   10.8801   -2.1008 C   0  0  0  0  0  0  0  0  0  0  0  0
    7.3410    9.6025   -2.7948 C   0  0  0  0  0  0  0  0  0  0  0  0
    8.3384    8.6785   -3.0157 C   0  0  0  0  0  0  0  0  0  0  0  0
    9.5822    8.6718   -2.3635 C   0  0  0  0  0  0  0  0  0  0  0  0
   10.5956    8.5879   -1.8274 N   0  0  0  0  0  0  0  0  0  0  0  0
    8.2156    7.6790   -3.9932 C   0  0  0  0  0  0  0  0  0  0  0  0
    8.1616    6.8784   -4.8162 N   0  0  0  0  0  0  0  0  0  0  0  0
    8.9110   13.6599    0.1214 C   0  0  0  0  0  0  0  0  0  0  0  0
   10.0837   14.4709   -0.4686 C   0  0  0  0  0  0  0  0  0  0  0  0
   10.1427   15.7069    0.3999 C   0  0  0  0  0  0  0  0  0  0  0  0
    9.0890   16.4575    0.1054 C   0  0  0  0  0  0  0  0  0  0  0  0
    8.2999   15.7412   -0.9669 C   0  0  0  0  0  0  0  0  0  0  0  0
    9.4457   15.0653   -1.7308 C   0  0  0  0  0  0  0  0  0  0  0  0
    7.6697   14.5437   -0.2251 C   0  0  0  0  0  0  0  0  0  0  0  0
    5.3521    7.1830   -3.7914 C   0  0  0  0  0  0  0  0  0  0  0  0
    5.8785    6.3644   -2.7753 C   0  0  0  0  0  0  0  0  0  0  0  0
    6.5035    6.7659   -1.6161 N   0  0  0  0  0  0  0  0  0  0  0  0
    6.1377    7.9107   -0.8960 C   0  0  0  0  0  0  0  0  0  0  0  0
    4.8627    8.4646   -0.9874 C   0  0  0  0  0  0  0  0  0  0  0  0
    4.5478    9.6104   -0.2836 C   0  0  0  0  0  0  0  0  0  0  0  0
    5.4766   10.2256    0.5461 C   0  0  0  0  0  0  0  0  0  0  0  0
    5.1311   11.4713    1.2997 C   0  0  0  0  0  0  0  0  0  0  0  0
    6.7313    9.6398    0.6725 C   0  0  0  0  0  0  0  0  0  0  0  0
    7.0660    8.5087   -0.0413 C   0  0  0  0  0  0  0  0  0  0  0  0
    7.3644    5.8344   -0.9809 C   0  0  0  0  0  0  0  0  0  0  0  0
    8.3876    5.2242   -1.7008 C   0  0  0  0  0  0  0  0  0  0  0  0
    9.2264    4.3227   -1.0783 C   0  0  0  0  0  0  0  0  0  0  0  0
    9.0714    4.0067    0.2671 C   0  0  0  0  0  0  0  0  0  0  0  0
    9.9954    3.0286    0.9232 C   0  0  0  0  0  0  0  0  0  0  0  0
    8.0448    4.6183    0.9746 C   0  0  0  0  0  0  0  0  0  0  0  0
    7.1960    5.5206    0.3632 C   0  0  0  0  0  0  0  0  0  0  0  0
    5.6052    5.0022   -3.0449 C   0  0  0  0  0  0  0  0  0  0  0  0
    5.8634    3.5323   -2.1608 S   0  0  0  0  0  0  0  0  0  0  0  0
    5.0050    2.6218   -3.3890 C   0  0  0  0  0  0  0  0  0  0  0  0
    4.5011    3.4231   -4.4014 C   0  0  0  0  0  0  0  0  0  0  0  0
    3.6927    2.9921   -5.4399 N   0  0  0  0  0  0  0  0  0  0  0  0
    2.7208    2.0066   -5.2225 C   0  0  0  0  0  0  0  0  0  0  0  0
    2.0072    1.9650   -4.0277 C   0  0  0  0  0  0  0  0  0  0  0  0
    1.1056    0.9454   -3.7871 C   0  0  0  0  0  0  0  0  0  0  0  0
    0.8826   -0.0526   -4.7244 C   0  0  0  0  0  0  0  0  0  0  0  0
   -0.0652   -1.1810   -4.4510 C   0  0  0  0  0  0  0  0  0  0  0  0
    1.5562    0.0270   -5.9391 C   0  0  0  0  0  0  0  0  0  0  0  0
    2.4562    1.0408   -6.1925 C   0  0  0  0  0  0  0  0  0  0  0  0
    3.8634    3.5608   -6.7117 C   0  0  0  0  0  0  0  0  0  0  0  0
    2.7679    3.7924   -7.5381 C   0  0  0  0  0  0  0  0  0  0  0  0
    2.9494    4.3554   -8.7858 C   0  0  0  0  0  0  0  0  0  0  0  0
    4.2141    4.7110   -9.2379 C   0  0  0  0  0  0  0  0  0  0  0  0
    4.4056    5.3465  -10.5809 C   0  0  0  0  0  0  0  0  0  0  0  0
    5.3006    4.4814   -8.4023 C   0  0  0  0  0  0  0  0  0  0  0  0
    5.1346    3.9110   -7.1573 C   0  0  0  0  0  0  0  0  0  0  0  0
    4.8684    4.7748   -4.1976 C   0  0  0  0  0  0  0  0  0  0  0  0
    4.4815    6.2397   -5.0090 S   0  0  0  0  0  0  0  0  0  0  0  0
    4.8031    1.2028   -3.3064 C   0  0  0  0  0  0  0  0  0  0  0  0
    5.0317    0.3060   -4.3295 C   0  0  0  0  0  0  0  0  0  0  0  0
    5.8934    0.6141   -5.4689 C   0  0  0  0  0  0  0  0  0  0  0  0
    5.6132    0.1367   -6.7459 C   0  0  0  0  0  0  0  0  0  0  0  0
    6.4396    0.4722   -7.8012 C   0  0  0  0  0  0  0  0  0  0  0  0
    7.5625    1.2551   -7.5946 C   0  0  0  0  0  0  0  0  0  0  0  0
    7.8870    1.6988   -6.3189 C   0  0  0  0  0  0  0  0  0  0  0  0
    9.1181    2.5193   -6.0568 C   0  0  0  0  0  0  0  0  0  0  0  0
    8.7672    3.9623   -5.6944 C   0  0  0  0  0  0  0  0  0  0  0  0
    7.0407    1.3767   -5.2687 C   0  0  0  0  0  0  0  0  0  0  0  0
    4.3792   -0.9213   -4.0828 C   0  0  0  0  0  0  0  0  0  0  0  0
    4.1734   -2.3743   -5.0258 S   0  0  0  0  0  0  0  0  0  0  0  0
    3.1340   -3.0087   -3.7949 C   0  0  0  0  0  0  0  0  0  0  0  0
    2.3312   -4.1402   -3.5490 C   0  0  0  0  0  0  0  0  0  0  0  0
    2.1704   -5.3843   -4.2005 C   0  0  0  0  0  0  0  0  0  0  0  0
    1.3369   -6.3955   -3.5974 C   0  0  0  0  0  0  0  0  0  0  0  0
    1.3447   -7.5271   -4.2834 N   0  0  0  0  0  0  0  0  0  0  0  0
    2.3021   -7.3425   -5.5757 S   0  0  0  0  0  0  0  0  0  0  0  0
    2.7483   -5.8093   -5.3127 N   0  0  0  0  0  0  0  0  0  0  0  0
    0.5753   -6.0701   -2.4518 C   0  0  0  0  0  0  0  0  0  0  0  0
   -0.4376   -6.7410   -1.7387 C   0  0  0  0  0  0  0  0  0  0  0  0
   -1.2183   -8.2871   -1.7009 S   0  0  0  0  0  0  0  0  0  0  0  0
   -2.2765   -7.7003   -0.4399 C   0  0  0  0  0  0  0  0  0  0  0  0
   -3.3214   -8.3003    0.2897 C   0  0  0  0  0  0  0  0  0  0  0  0
   -3.7243   -9.6999    0.1292 C   0  0  0  0  0  0  0  0  0  0  0  0
   -4.0222  -10.2060   -1.1318 C   0  0  0  0  0  0  0  0  0  0  0  0
   -4.3994  -11.5281   -1.2677 C   0  0  0  0  0  0  0  0  0  0  0  0
   -4.4742  -12.3524   -0.1577 C   0  0  0  0  0  0  0  0  0  0  0  0
   -4.1638  -11.8677    1.1061 C   0  0  0  0  0  0  0  0  0  0  0  0
   -4.2020  -12.7563    2.3165 C   0  0  0  0  0  0  0  0  0  0  0  0
   -2.7917  -13.0912    2.8022 C   0  0  0  0  0  0  0  0  0  0  0  0
   -3.7830  -10.5402    1.2354 C   0  0  0  0  0  0  0  0  0  0  0  0
   -3.8789   -7.4121    1.1912 C   0  0  0  0  0  0  0  0  0  0  0  0
   -3.0841   -5.8393    1.1663 S   0  0  0  0  0  0  0  0  0  0  0  0
   -2.0183   -6.3762   -0.0802 C   0  0  0  0  0  0  0  0  0  0  0  0
   -0.9625   -5.8306   -0.8156 C   0  0  0  0  0  0  0  0  0  0  0  0
   -0.2984   -4.6309   -0.8985 N   0  0  0  0  0  0  0  0  0  0  0  0
    0.6652   -4.7761   -1.8803 C   0  0  0  0  0  0  0  0  0  0  0  0
    1.6637   -3.8858   -2.3247 C   0  0  0  0  0  0  0  0  0  0  0  0
    2.0973   -2.6821   -1.7998 N   0  0  0  0  0  0  0  0  0  0  0  0
    2.9805   -2.1483   -2.7044 C   0  0  0  0  0  0  0  0  0  0  0  0
    3.6999   -0.9588   -2.8661 C   0  0  0  0  0  0  0  0  0  0  0  0
    3.8868    0.5093   -1.9779 S   0  0  0  0  0  0  0  0  0  0  0  0
    2.1764   -2.3394   -0.3947 C   0  0  0  0  0  0  0  0  0  0  0  0
    3.5873   -2.5576    0.1508 C   0  0  0  0  0  0  0  0  0  0  0  0
   -0.9703   -3.3988   -0.5387 C   0  0  0  0  0  0  0  0  0  0  0  0
   -2.2512   -3.2076   -1.3513 C   0  0  0  0  0  0  0  0  0  0  0  0
   -5.0235   -7.5447    2.0241 C   0  0  0  0  0  0  0  0  0  0  0  0
   -5.4332   -6.6417    2.9653 C   0  0  0  0  0  0  0  0  0  0  0  0
   -6.6539   -6.9721    3.5950 C   0  0  0  0  0  0  0  0  0  0  0  0
   -7.3542   -6.2344    4.5718 C   0  0  0  0  0  0  0  0  0  0  0  0
   -6.9484   -4.9026    4.9630 C   0  0  0  0  0  0  0  0  0  0  0  0
   -7.0438   -4.3123    6.1926 C   0  0  0  0  0  0  0  0  0  0  0  0
   -6.6341   -2.9670    6.2697 C   0  0  0  0  0  0  0  0  0  0  0  0
   -6.2220   -2.4149    5.0905 C   0  0  0  0  0  0  0  0  0  0  0  0
   -5.7318   -0.7445    4.9155 S   0  0  0  0  0  0  0  0  0  0  0  0
   -4.9203   -0.7615    3.2781 C   0  0  0  0  0  0  0  0  0  0  0  0
   -3.5614   -1.4319    3.3096 C   0  0  0  0  0  0  0  0  0  0  0  0
   -6.3318   -3.6568    3.6824 Se  0  0  0  0  0  2  0  0  0  0  0  0
   -8.4905   -6.8433    5.1024 C   0  0  0  0  0  0  0  0  0  0  0  0
   -8.9789   -8.1003    4.6546 C   0  0  0  0  0  0  0  0  0  0  0  0
   -8.3285   -8.7917    3.5991 C   0  0  0  0  0  0  0  0  0  0  0  0
   -8.8596  -10.0087    3.0374 C   0  0  0  0  0  0  0  0  0  0  0  0
  -10.1765  -10.3318    2.8452 C   0  0  0  0  0  0  0  0  0  0  0  0
  -10.4326  -11.5996    2.2956 C   0  0  0  0  0  0  0  0  0  0  0  0
   -9.3213  -12.3490    2.0261 C   0  0  0  0  0  0  0  0  0  0  0  0
   -9.3967  -13.9218    1.2707 S   0  0  0  0  0  0  0  0  0  0  0  0
   -7.6841  -14.5190    1.4782 C   0  0  0  0  0  0  0  0  0  0  0  0
   -7.4007  -14.9556    2.9014 C   0  0  0  0  0  0  0  0  0  0  0  0
   -7.7409  -11.4110    2.4469 Se  0  0  0  0  0  2  0  0  0  0  0  0
   -7.1611   -8.2082    3.1272 C   0  0  0  0  0  0  0  0  0  0  0  0
   -6.1527   -8.8750    1.8685 S   0  0  0  0  0  0  0  0  0  0  0  0
  -10.1151   -8.4932    5.3787 C   0  0  0  0  0  0  0  0  0  0  0  0
  -10.5332   -7.5746    6.3218 C   0  0  0  0  0  0  0  0  0  0  0  0
   -9.4854   -6.1745    6.3624 S   0  0  0  0  0  0  0  0  0  0  0  0
  -11.6883   -7.7650    7.1092 C   0  0  0  0  0  0  0  0  0  0  0  0
  -12.2453   -6.9681    8.0621 C   0  0  0  0  0  0  0  0  0  0  0  0
  -13.7610   -7.4122    8.8321 S   0  0  0  0  0  0  0  0  0  0  0  0
  -13.7402   -5.9641    9.8145 C   0  0  0  0  0  0  0  0  0  0  0  0
  -14.7324   -5.7645   10.7422 C   0  0  0  0  0  0  0  0  0  0  0  0
  -15.7796   -6.7056   10.8390 C   0  0  0  0  0  0  0  0  0  0  0  0
  -16.6387   -7.4611   10.9222 N   0  0  0  0  0  0  0  0  0  0  0  0
  -14.8231   -4.7273   11.6823 C   0  0  0  0  0  0  0  0  0  0  0  0
  -14.9540   -3.9224   12.4923 N   0  0  0  0  0  0  0  0  0  0  0  0
  -12.6536   -5.1983    9.5387 N   0  0  0  0  0  0  0  0  0  0  0  0
  -12.3970   -3.8650   10.0723 C   0  0  0  0  0  0  0  0  0  0  0  0
  -13.0233   -2.8061    9.1946 C   0  0  0  0  0  0  0  0  0  0  0  0
  -14.1721   -2.1339    9.5891 C   0  0  0  0  0  0  0  0  0  0  0  0
  -14.7419   -1.1821    8.7603 C   0  0  0  0  0  0  0  0  0  0  0  0
  -14.1720   -0.8972    7.5317 C   0  0  0  0  0  0  0  0  0  0  0  0
  -13.0227   -1.5608    7.1359 C   0  0  0  0  0  0  0  0  0  0  0  0
  -12.4486   -2.5092    7.9630 C   0  0  0  0  0  0  0  0  0  0  0  0
  -11.7665   -5.7093    8.5990 C   0  0  0  0  0  0  0  0  0  0  0  0
  -10.7278   -5.1442    8.3196 O   0  0  0  0  0  0  0  0  0  0  0  0
    4.5008    8.9172   -4.6175 H   0  0  0  0  0  0  0  0  0  0  0  0
    5.3220   13.5545   -2.1867 H   0  0  0  0  0  0  0  0  0  0  0  0
    9.3574   10.7265   -1.0130 H   0  0  0  0  0  0  0  0  0  0  0  0
    9.0735   13.3734    1.1593 H   0  0  0  0  0  0  0  0  0  0  0  0
   11.0078   13.9122   -0.5893 H   0  0  0  0  0  0  0  0  0  0  0  0
   10.8898   15.8762    1.1531 H   0  0  0  0  0  0  0  0  0  0  0  0
    8.7799   17.3789    0.5635 H   0  0  0  0  0  0  0  0  0  0  0  0
    7.5993   16.3409   -1.5417 H   0  0  0  0  0  0  0  0  0  0  0  0
    9.1183   14.3213   -2.4545 H   0  0  0  0  0  0  0  0  0  0  0  0
   10.0969   15.7878   -2.2199 H   0  0  0  0  0  0  0  0  0  0  0  0
    7.0038   14.8468    0.5814 H   0  0  0  0  0  0  0  0  0  0  0  0
    4.1128    7.9947   -1.6050 H   0  0  0  0  0  0  0  0  0  0  0  0
    3.5592   10.0333   -0.3846 H   0  0  0  0  0  0  0  0  0  0  0  0
    4.4103   12.0679    0.7458 H   0  0  0  0  0  0  0  0  0  0  0  0
    6.0212   12.0695    1.4804 H   0  0  0  0  0  0  0  0  0  0  0  0
    4.6904   11.2172    2.2644 H   0  0  0  0  0  0  0  0  0  0  0  0
    7.4661   10.0886    1.3244 H   0  0  0  0  0  0  0  0  0  0  0  0
    8.0572    8.0887    0.0477 H   0  0  0  0  0  0  0  0  0  0  0  0
    8.5230    5.4582   -2.7452 H   0  0  0  0  0  0  0  0  0  0  0  0
   10.0199    3.8603   -1.6464 H   0  0  0  0  0  0  0  0  0  0  0  0
    9.7379    2.8891    1.9698 H   0  0  0  0  0  0  0  0  0  0  0  0
   11.0240    3.3812    0.8609 H   0  0  0  0  0  0  0  0  0  0  0  0
    9.9443    2.0641    0.4196 H   0  0  0  0  0  0  0  0  0  0  0  0
    7.8999    4.3830    2.0189 H   0  0  0  0  0  0  0  0  0  0  0  0
    6.3966    5.9827    0.9238 H   0  0  0  0  0  0  0  0  0  0  0  0
    2.1693    2.7299   -3.2819 H   0  0  0  0  0  0  0  0  0  0  0  0
    0.5746    0.9250   -2.8456 H   0  0  0  0  0  0  0  0  0  0  0  0
   -0.3611   -1.1926   -3.4044 H   0  0  0  0  0  0  0  0  0  0  0  0
   -0.9627   -1.0790   -5.0614 H   0  0  0  0  0  0  0  0  0  0  0  0
    0.3969   -2.1365   -4.6959 H   0  0  0  0  0  0  0  0  0  0  0  0
    1.3841   -0.7303   -6.6903 H   0  0  0  0  0  0  0  0  0  0  0  0
    2.9764    1.0870   -7.1368 H   0  0  0  0  0  0  0  0  0  0  0  0
    1.7766    3.5320   -7.1972 H   0  0  0  0  0  0  0  0  0  0  0  0
    2.0892    4.5292   -9.4163 H   0  0  0  0  0  0  0  0  0  0  0  0
    4.5134    6.4259  -10.4701 H   0  0  0  0  0  0  0  0  0  0  0  0
    5.3061    4.9696  -11.0615 H   0  0  0  0  0  0  0  0  0  0  0  0
    3.5532    5.1552  -11.2281 H   0  0  0  0  0  0  0  0  0  0  0  0
    6.2936    4.7471   -8.7343 H   0  0  0  0  0  0  0  0  0  0  0  0
    5.9892    3.7214   -6.5274 H   0  0  0  0  0  0  0  0  0  0  0  0
    4.7486   -0.4876   -6.9076 H   0  0  0  0  0  0  0  0  0  0  0  0
    6.2093    0.1152   -8.7941 H   0  0  0  0  0  0  0  0  0  0  0  0
    8.2021    1.5084   -8.4276 H   0  0  0  0  0  0  0  0  0  0  0  0
    9.6744    2.0710   -5.2290 H   0  0  0  0  0  0  0  0  0  0  0  0
    9.7613    2.5125   -6.9385 H   0  0  0  0  0  0  0  0  0  0  0  0
    8.1059    3.9929   -4.8313 H   0  0  0  0  0  0  0  0  0  0  0  0
    9.6652    4.5256   -5.4543 H   0  0  0  0  0  0  0  0  0  0  0  0
    8.2697    4.4607   -6.5221 H   0  0  0  0  0  0  0  0  0  0  0  0
    7.2919    1.7019   -4.2690 H   0  0  0  0  0  0  0  0  0  0  0  0
   -3.9712   -9.5594   -1.9949 H   0  0  0  0  0  0  0  0  0  0  0  0
   -4.6380  -11.9194   -2.2455 H   0  0  0  0  0  0  0  0  0  0  0  0
   -4.7687  -13.3858   -0.2768 H   0  0  0  0  0  0  0  0  0  0  0  0
   -4.7532  -12.2531    3.1177 H   0  0  0  0  0  0  0  0  0  0  0  0
   -4.7256  -13.6827    2.0754 H   0  0  0  0  0  0  0  0  0  0  0  0
   -2.2506  -12.1856    3.0650 H   0  0  0  0  0  0  0  0  0  0  0  0
   -2.8344  -13.7351    3.6776 H   0  0  0  0  0  0  0  0  0  0  0  0
   -2.2369  -13.6045    2.0198 H   0  0  0  0  0  0  0  0  0  0  0  0
   -3.5232  -10.1517    2.2101 H   0  0  0  0  0  0  0  0  0  0  0  0
    1.4903   -2.9752    0.1634 H   0  0  0  0  0  0  0  0  0  0  0  0
    1.8927   -1.2888   -0.2703 H   0  0  0  0  0  0  0  0  0  0  0  0
    3.8960   -3.5883   -0.0096 H   0  0  0  0  0  0  0  0  0  0  0  0
    4.2994   -1.8987   -0.3376 H   0  0  0  0  0  0  0  0  0  0  0  0
    3.6006   -2.3499    1.2172 H   0  0  0  0  0  0  0  0  0  0  0  0
   -1.2087   -3.4323    0.5294 H   0  0  0  0  0  0  0  0  0  0  0  0
   -0.3073   -2.5595   -0.7380 H   0  0  0  0  0  0  0  0  0  0  0  0
   -2.6980   -2.2472   -1.1087 H   0  0  0  0  0  0  0  0  0  0  0  0
   -2.9732   -3.9884   -1.1305 H   0  0  0  0  0  0  0  0  0  0  0  0
   -2.0258   -3.2303   -2.4156 H   0  0  0  0  0  0  0  0  0  0  0  0
   -4.8340   -5.7835    3.2207 H   0  0  0  0  0  0  0  0  0  0  0  0
   -7.3625   -4.8519    7.0676 H   0  0  0  0  0  0  0  0  0  0  0  0
   -6.6381   -2.4102    7.1906 H   0  0  0  0  0  0  0  0  0  0  0  0
   -4.8367    0.2892    3.0026 H   0  0  0  0  0  0  0  0  0  0  0  0
   -5.6017   -1.2618    2.5830 H   0  0  0  0  0  0  0  0  0  0  0  0
   -3.6559   -2.4784    3.5997 H   0  0  0  0  0  0  0  0  0  0  0  0
   -2.9082   -0.9319    4.0207 H   0  0  0  0  0  0  0  0  0  0  0  0
   -3.1071   -1.3896    2.3218 H   0  0  0  0  0  0  0  0  0  0  0  0
  -10.9711   -9.6347    3.0518 H   0  0  0  0  0  0  0  0  0  0  0  0
  -11.4269  -11.9589    2.0938 H   0  0  0  0  0  0  0  0  0  0  0  0
   -7.5962  -15.3531    0.7825 H   0  0  0  0  0  0  0  0  0  0  0  0
   -7.0240  -13.7061    1.1594 H   0  0  0  0  0  0  0  0  0  0  0  0
   -8.1115  -15.7174    3.2123 H   0  0  0  0  0  0  0  0  0  0  0  0
   -7.4768  -14.1080    3.5830 H   0  0  0  0  0  0  0  0  0  0  0  0
   -6.3959  -15.3662    2.9733 H   0  0  0  0  0  0  0  0  0  0  0  0
  -10.6123   -9.4369    5.2445 H   0  0  0  0  0  0  0  0  0  0  0  0
  -12.2207   -8.6854    6.8946 H   0  0  0  0  0  0  0  0  0  0  0  0
  -12.7697   -3.8048   11.0941 H   0  0  0  0  0  0  0  0  0  0  0  0
  -11.3086   -3.7497   10.0694 H   0  0  0  0  0  0  0  0  0  0  0  0
  -14.6182   -2.3422   10.5498 H   0  0  0  0  0  0  0  0  0  0  0  0
  -15.6335   -0.6631    9.0786 H   0  0  0  0  0  0  0  0  0  0  0  0
  -14.6181   -0.1548    6.8866 H   0  0  0  0  0  0  0  0  0  0  0  0
  -12.5664   -1.3358    6.1832 H   0  0  0  0  0  0  0  0  0  0  0  0
  -11.5468   -3.0175    7.6560 H   0  0  0  0  0  0  0  0  0  0  0  0
  1  2  2  0  0  0  0
  2  3  1  0  0  0  0
  3  4  2  0  0  0  0
  3  5  1  0  0  0  0
  5  6  2  0  0  0  0
  6  7  1  0  0  0  0
  7  8  2  0  0  0  0
  8  9  1  0  0  0  0
  9 10  2  0  0  0  0
 10 11  1  0  0  0  0
 11 12  2  0  0  0  0
 12 13  1  0  0  0  0
 13 14  3  0  0  0  0
 12 15  1  0  0  0  0
 15 16  3  0  0  0  0
  8 17  1  0  0  0  0
 17 18  1  0  0  0  0
 18 19  1  0  0  0  0
 19 20  2  0  0  0  0
 20 21  1  0  0  0  0
 21 22  1  0  0  0  0
 21 23  1  0  0  0  0
  1 24  1  0  0  0  0
 24 25  2  0  0  0  0
 25 26  1  0  0  0  0
 26 27  1  0  0  0  0
 27 28  2  0  0  0  0
 28 29  1  0  0  0  0
 29 30  2  0  0  0  0
 30 31  1  0  0  0  0
 30 32  1  0  0  0  0
 32 33  2  0  0  0  0
 26 34  1  0  0  0  0
 34 35  2  0  0  0  0
 35 36  1  0  0  0  0
 36 37  2  0  0  0  0
 37 38  1  0  0  0  0
 37 39  1  0  0  0  0
 39 40  2  0  0  0  0
 25 41  1  0  0  0  0
 41 42  1  0  0  0  0
 42 43  1  0  0  0  0
 43 44  2  0  0  0  0
 44 45  1  0  0  0  0
 45 46  1  0  0  0  0
 46 47  2  0  0  0  0
 47 48  1  0  0  0  0
 48 49  2  0  0  0  0
 49 50  1  0  0  0  0
 49 51  1  0  0  0  0
 51 52  2  0  0  0  0
 45 53  1  0  0  0  0
 53 54  2  0  0  0  0
 54 55  1  0  0  0  0
 55 56  2  0  0  0  0
 56 57  1  0  0  0  0
 56 58  1  0  0  0  0
 58 59  2  0  0  0  0
 44 60  1  0  0  0  0
 60 61  1  0  0  0  0
 43 62  1  0  0  0  0
 62 63  2  0  0  0  0
 63 64  1  0  0  0  0
 64 65  2  0  0  0  0
 65 66  1  0  0  0  0
 66 67  2  0  0  0  0
 67 68  1  0  0  0  0
 68 69  1  0  0  0  0
 69 70  1  0  0  0  0
 68 71  2  0  0  0  0
 63 72  1  0  0  0  0
 72 73  1  0  0  0  0
 73 74  1  0  0  0  0
 74 75  1  0  0  0  0
 75 76  1  0  0  0  0
 76 77  1  0  0  0  0
 77 78  2  0  0  0  0
 78 79  1  0  0  0  0
 79 80  1  0  0  0  0
 77 81  1  0  0  0  0
 81 82  1  0  0  0  0
 82 83  1  0  0  0  0
 83 84  1  0  0  0  0
 84 85  1  0  0  0  0
 85 86  1  0  0  0  0
 86 87  2  0  0  0  0
 87 88  1  0  0  0  0
 88 89  2  0  0  0  0
 89 90  1  0  0  0  0
 90 91  1  0  0  0  0
 91 92  1  0  0  0  0
 90 93  2  0  0  0  0
 85 94  2  0  0  0  0
 94 95  1  0  0  0  0
 95 96  1  0  0  0  0
 96 97  1  0  0  0  0
 97 98  1  0  0  0  0
 98 99  1  0  0  0  0
 99100  1  0  0  0  0
100101  1  0  0  0  0
101102  1  0  0  0  0
102103  1  0  0  0  0
103104  1  0  0  0  0
101105  1  0  0  0  0
105106  1  0  0  0  0
 98107  1  0  0  0  0
107108  1  0  0  0  0
 94109  1  0  0  0  0
109110  2  0  0  0  0
110111  1  0  0  0  0
111112  2  0  0  0  0
112113  1  0  0  0  0
113114  2  0  0  0  0
114115  1  0  0  0  0
115116  2  0  0  0  0
116117  1  0  0  0  0
117118  1  0  0  0  0
118119  1  0  0  0  0
116120  1  0  0  0  0
112121  1  0  0  0  0
121122  2  0  0  0  0
122123  1  0  0  0  0
123124  1  0  0  0  0
124125  2  0  0  0  0
125126  1  0  0  0  0
126127  2  0  0  0  0
127128  1  0  0  0  0
128129  1  0  0  0  0
129130  1  0  0  0  0
127131  1  0  0  0  0
123132  2  0  0  0  0
132133  1  0  0  0  0
122134  1  0  0  0  0
134135  2  0  0  0  0
135136  1  0  0  0  0
135137  1  0  0  0  0
137138  2  0  0  0  0
138139  1  0  0  0  0
139140  1  0  0  0  0
140141  2  0  0  0  0
141142  1  0  0  0  0
142143  3  0  0  0  0
141144  1  0  0  0  0
144145  3  0  0  0  0
140146  1  0  0  0  0
146147  1  0  0  0  0
147148  1  0  0  0  0
148149  2  0  0  0  0
149150  1  0  0  0  0
150151  2  0  0  0  0
151152  1  0  0  0  0
152153  2  0  0  0  0
146154  1  0  0  0  0
154155  2  0  0  0  0
 11  2  1  0  0  0  0
 23 17  1  0  0  0  0
 61 24  1  0  0  0  0
104 62  1  0  0  0  0
133109  1  0  0  0  0
154138  1  0  0  0  0
 10  5  1  0  0  0  0
 22 18  1  0  0  0  0
 33 27  1  0  0  0  0
 40 34  1  0  0  0  0
 60 41  2  0  0  0  0
 71 64  1  0  0  0  0
103 72  2  0  0  0  0
132111  1  0  0  0  0
153148  1  0  0  0  0
 23  7  1  0  0  0  0
 52 46  1  0  0  0  0
 59 53  1  0  0  0  0
102 74  2  0  0  0  0
120113  1  0  0  0  0
136121  1  0  0  0  0
100 75  2  0  0  0  0
131124  1  0  0  0  0
 80 76  2  0  0  0  0
 99 81  2  0  0  0  0
 97 82  2  0  0  0  0
 96 84  2  0  0  0  0
 93 86  1  0  0  0  0
  1156  1  0  0  0  0
  6157  1  0  0  0  0
  9158  1  0  0  0  0
 17159  1  0  0  0  0
 18160  1  0  0  0  0
 19161  1  0  0  0  0
 20162  1  0  0  0  0
 21163  1  0  0  0  0
 22164  1  0  0  0  0
 22165  1  0  0  0  0
 23166  1  0  0  0  0
 28167  1  0  0  0  0
 29168  1  0  0  0  0
 31169  1  0  0  0  0
 31170  1  0  0  0  0
 31171  1  0  0  0  0
 32172  1  0  0  0  0
 33173  1  0  0  0  0
 35174  1  0  0  0  0
 36175  1  0  0  0  0
 38176  1  0  0  0  0
 38177  1  0  0  0  0
 38178  1  0  0  0  0
 39179  1  0  0  0  0
 40180  1  0  0  0  0
 47181  1  0  0  0  0
 48182  1  0  0  0  0
 50183  1  0  0  0  0
 50184  1  0  0  0  0
 50185  1  0  0  0  0
 51186  1  0  0  0  0
 52187  1  0  0  0  0
 54188  1  0  0  0  0
 55189  1  0  0  0  0
 57190  1  0  0  0  0
 57191  1  0  0  0  0
 57192  1  0  0  0  0
 58193  1  0  0  0  0
 59194  1  0  0  0  0
 65195  1  0  0  0  0
 66196  1  0  0  0  0
 67197  1  0  0  0  0
 69198  1  0  0  0  0
 69199  1  0  0  0  0
 70200  1  0  0  0  0
 70201  1  0  0  0  0
 70202  1  0  0  0  0
 71203  1  0  0  0  0
 87204  1  0  0  0  0
 88205  1  0  0  0  0
 89206  1  0  0  0  0
 91207  1  0  0  0  0
 91208  1  0  0  0  0
 92209  1  0  0  0  0
 92210  1  0  0  0  0
 92211  1  0  0  0  0
 93212  1  0  0  0  0
105213  1  0  0  0  0
105214  1  0  0  0  0
106215  1  0  0  0  0
106216  1  0  0  0  0
106217  1  0  0  0  0
107218  1  0  0  0  0
107219  1  0  0  0  0
108220  1  0  0  0  0
108221  1  0  0  0  0
108222  1  0  0  0  0
110223  1  0  0  0  0
114224  1  0  0  0  0
115225  1  0  0  0  0
118226  1  0  0  0  0
118227  1  0  0  0  0
119228  1  0  0  0  0
119229  1  0  0  0  0
119230  1  0  0  0  0
125231  1  0  0  0  0
126232  1  0  0  0  0
129233  1  0  0  0  0
129234  1  0  0  0  0
130235  1  0  0  0  0
130236  1  0  0  0  0
130237  1  0  0  0  0
134238  1  0  0  0  0
137239  1  0  0  0  0
147240  1  0  0  0  0
147241  1  0  0  0  0
149242  1  0  0  0  0
150243  1  0  0  0  0
151244  1  0  0  0  0
152245  1  0  0  0  0
153246  1  0  0  0  0
M  END
