
  xtb     02252200203D
 energy: -334.979458051114 gnorm: 0.000458118919 xtb: 6.4.1 (unknown)
201224  0     0  0            999 V2000
    5.2251   -4.0272   -5.2293 C   0  0  0  0  0  0  0  0  0  0  0  0
    6.5059   -3.6159   -5.5312 C   0  0  0  0  0  0  0  0  0  0  0  0
    7.0525   -2.3036   -5.1556 C   0  0  0  0  0  0  0  0  0  0  0  0
    6.4728   -1.3894   -4.5973 O   0  0  0  0  0  0  0  0  0  0  0  0
    8.4965   -2.3668   -5.4646 C   0  0  0  0  0  0  0  0  0  0  0  0
    9.4426   -1.3680   -5.2568 C   0  0  0  0  0  0  0  0  0  0  0  0
   10.7180   -1.7183   -5.6329 C   0  0  0  0  0  0  0  0  0  0  0  0
   11.0316   -2.9739   -6.1660 C   0  0  0  0  0  0  0  0  0  0  0  0
   10.1053   -3.9688   -6.3772 C   0  0  0  0  0  0  0  0  0  0  0  0
    8.8020   -3.6288   -6.0083 C   0  0  0  0  0  0  0  0  0  0  0  0
    7.5659   -4.4054   -6.0901 C   0  0  0  0  0  0  0  0  0  0  0  0
    7.4107   -5.6104   -6.7325 C   0  0  0  0  0  0  0  0  0  0  0  0
    6.1702   -6.2554   -6.9028 C   0  0  0  0  0  0  0  0  0  0  0  0
    5.1915   -6.8221   -7.1053 N   0  0  0  0  0  0  0  0  0  0  0  0
    8.4494   -6.3104   -7.3713 C   0  0  0  0  0  0  0  0  0  0  0  0
    9.2521   -6.9200   -7.9240 N   0  0  0  0  0  0  0  0  0  0  0  0
   12.4993   -2.6442   -6.2905 C   0  0  0  0  0  0  0  0  0  0  0  0
   13.4343   -3.2392   -5.2165 C   0  0  0  0  0  0  0  0  0  0  0  0
   14.6769   -2.3827   -5.3039 C   0  0  0  0  0  0  0  0  0  0  0  0
   14.3801   -1.1891   -4.8060 C   0  0  0  0  0  0  0  0  0  0  0  0
   12.9321   -1.2192   -4.3732 C   0  0  0  0  0  0  0  0  0  0  0  0
   12.8207   -2.6823   -3.9253 C   0  0  0  0  0  0  0  0  0  0  0  0
   12.1479   -1.2401   -5.7021 C   0  0  0  0  0  0  0  0  0  0  0  0
    4.1335   -3.1856   -5.0032 C   0  0  0  0  0  0  0  0  0  0  0  0
    3.8657   -1.8731   -5.4473 C   0  0  0  0  0  0  0  0  0  0  0  0
    4.5386   -1.1935   -6.4182 N   0  0  0  0  0  0  0  0  0  0  0  0
    4.4475    0.2141   -6.4833 C   0  0  0  0  0  0  0  0  0  0  0  0
    4.1831    0.8311   -7.7008 C   0  0  0  0  0  0  0  0  0  0  0  0
    4.0912    2.2082   -7.7696 C   0  0  0  0  0  0  0  0  0  0  0  0
    4.2582    2.9948   -6.6363 C   0  0  0  0  0  0  0  0  0  0  0  0
    4.1265    4.4850   -6.7030 C   0  0  0  0  0  0  0  0  0  0  0  0
    4.5407    2.3658   -5.4284 C   0  0  0  0  0  0  0  0  0  0  0  0
    4.6394    0.9914   -5.3452 C   0  0  0  0  0  0  0  0  0  0  0  0
    5.3253   -1.8361   -7.3873 C   0  0  0  0  0  0  0  0  0  0  0  0
    6.5570   -1.2947   -7.7468 C   0  0  0  0  0  0  0  0  0  0  0  0
    7.3604   -1.9440   -8.6660 C   0  0  0  0  0  0  0  0  0  0  0  0
    6.9579   -3.1346   -9.2559 C   0  0  0  0  0  0  0  0  0  0  0  0
    7.8470   -3.8681  -10.2100 C   0  0  0  0  0  0  0  0  0  0  0  0
    5.7033   -3.6425   -8.9262 C   0  0  0  0  0  0  0  0  0  0  0  0
    4.8952   -3.0082   -8.0067 C   0  0  0  0  0  0  0  0  0  0  0  0
    2.6946   -1.3771   -4.8279 C   0  0  0  0  0  0  0  0  0  0  0  0
    1.8414    0.1266   -4.9067 S   0  0  0  0  0  0  0  0  0  0  0  0
    0.6401   -0.4624   -3.7773 C   0  0  0  0  0  0  0  0  0  0  0  0
    0.8547   -1.7870   -3.4213 C   0  0  0  0  0  0  0  0  0  0  0  0
    0.0014   -2.5349   -2.6274 N   0  0  0  0  0  0  0  0  0  0  0  0
    0.5383   -3.4841   -1.7465 C   0  0  0  0  0  0  0  0  0  0  0  0
   -0.1147   -4.6950   -1.5310 C   0  0  0  0  0  0  0  0  0  0  0  0
    0.4261   -5.6293   -0.6719 C   0  0  0  0  0  0  0  0  0  0  0  0
    1.6283   -5.3924   -0.0144 C   0  0  0  0  0  0  0  0  0  0  0  0
    2.2238   -6.4296    0.8874 C   0  0  0  0  0  0  0  0  0  0  0  0
    2.2709   -4.1809   -0.2332 C   0  0  0  0  0  0  0  0  0  0  0  0
    1.7349   -3.2318   -1.0810 C   0  0  0  0  0  0  0  0  0  0  0  0
   -1.3865   -2.3394   -2.7051 C   0  0  0  0  0  0  0  0  0  0  0  0
   -2.1671   -2.3599   -1.5507 C   0  0  0  0  0  0  0  0  0  0  0  0
   -3.5178   -2.0852   -1.6220 C   0  0  0  0  0  0  0  0  0  0  0  0
   -4.1323   -1.7954   -2.8342 C   0  0  0  0  0  0  0  0  0  0  0  0
   -5.5824   -1.4267   -2.8957 C   0  0  0  0  0  0  0  0  0  0  0  0
   -3.3558   -1.8272   -3.9858 C   0  0  0  0  0  0  0  0  0  0  0  0
   -2.0013   -2.0874   -3.9283 C   0  0  0  0  0  0  0  0  0  0  0  0
    2.0347   -2.2901   -4.0171 C   0  0  0  0  0  0  0  0  0  0  0  0
    2.8295   -3.8190   -3.9843 S   0  0  0  0  0  0  0  0  0  0  0  0
   -0.3794    0.3656   -3.1954 C   0  0  0  0  0  0  0  0  0  0  0  0
   -1.4113    1.0858   -3.7549 C   0  0  0  0  0  0  0  0  0  0  0  0
   -1.5946    1.3417   -5.1840 C   0  0  0  0  0  0  0  0  0  0  0  0
   -2.8320    1.1214   -5.7826 C   0  0  0  0  0  0  0  0  0  0  0  0
   -2.9935    1.3560   -7.1344 C   0  0  0  0  0  0  0  0  0  0  0  0
   -1.9333    1.8149   -7.8975 C   0  0  0  0  0  0  0  0  0  0  0  0
   -0.7010    2.0693   -7.3101 C   0  0  0  0  0  0  0  0  0  0  0  0
    0.4408    2.6281   -8.1089 C   0  0  0  0  0  0  0  0  0  0  0  0
    0.4156    4.1570   -8.0783 C   0  0  0  0  0  0  0  0  0  0  0  0
   -0.5494    1.8429   -5.9507 C   0  0  0  0  0  0  0  0  0  0  0  0
   -2.3151    1.5346   -2.7646 C   0  0  0  0  0  0  0  0  0  0  0  0
   -3.8274    2.4051   -2.8513 S   0  0  0  0  0  0  0  0  0  0  0  0
   -3.9425    2.3361   -1.1238 C   0  0  0  0  0  0  0  0  0  0  0  0
   -4.8106    2.7290   -0.0916 C   0  0  0  0  0  0  0  0  0  0  0  0
   -6.0852    3.3337   -0.1334 C   0  0  0  0  0  0  0  0  0  0  0  0
   -6.7902    3.5519    1.0967 C   0  0  0  0  0  0  0  0  0  0  0  0
   -7.9877    4.0832    0.9069 N   0  0  0  0  0  0  0  0  0  0  0  0
   -8.2084    4.2934   -0.6836 S   0  0  0  0  0  0  0  0  0  0  0  0
   -6.7840    3.7140   -1.1917 N   0  0  0  0  0  0  0  0  0  0  0  0
   -6.1462    3.2454    2.3150 C   0  0  0  0  0  0  0  0  0  0  0  0
   -6.5365    3.4738    3.6437 C   0  0  0  0  0  0  0  0  0  0  0  0
   -7.8856    4.1027    4.5268 S   0  0  0  0  0  0  0  0  0  0  0  0
   -6.9869    3.8781    6.0101 C   0  0  0  0  0  0  0  0  0  0  0  0
   -7.3001    4.1196    7.3608 C   0  0  0  0  0  0  0  0  0  0  0  0
   -8.6167    4.5562    7.8269 C   0  0  0  0  0  0  0  0  0  0  0  0
   -9.2851    5.5981    7.1912 C   0  0  0  0  0  0  0  0  0  0  0  0
  -10.5340    5.9870    7.6401 C   0  0  0  0  0  0  0  0  0  0  0  0
  -11.1239    5.3417    8.7125 C   0  0  0  0  0  0  0  0  0  0  0  0
  -10.4762    4.2877    9.3479 C   0  0  0  0  0  0  0  0  0  0  0  0
  -11.1289    3.5467   10.4782 C   0  0  0  0  0  0  0  0  0  0  0  0
  -12.0437    2.4478    9.9345 C   0  0  0  0  0  0  0  0  0  0  0  0
   -9.2273    3.8981    8.8922 C   0  0  0  0  0  0  0  0  0  0  0  0
   -6.2344    3.7869    8.1789 C   0  0  0  0  0  0  0  0  0  0  0  0
   -4.8739    3.1159    7.3048 S   0  0  0  0  0  0  0  0  0  0  0  0
   -5.7123    3.3365    5.8105 C   0  0  0  0  0  0  0  0  0  0  0  0
   -5.4613    3.1005    4.4528 C   0  0  0  0  0  0  0  0  0  0  0  0
   -4.4379    2.6185    3.6817 N   0  0  0  0  0  0  0  0  0  0  0  0
   -4.8342    2.6921    2.3566 C   0  0  0  0  0  0  0  0  0  0  0  0
   -4.2042    2.3334    1.1346 C   0  0  0  0  0  0  0  0  0  0  0  0
   -3.0191    1.6761    0.8387 N   0  0  0  0  0  0  0  0  0  0  0  0
   -2.8694    1.6803   -0.5208 C   0  0  0  0  0  0  0  0  0  0  0  0
   -1.9444    1.2110   -1.4625 C   0  0  0  0  0  0  0  0  0  0  0  0
   -0.4651    0.3280   -1.4340 S   0  0  0  0  0  0  0  0  0  0  0  0
   -2.2380    0.7535    1.6321 C   0  0  0  0  0  0  0  0  0  0  0  0
   -3.0948   -0.3893    2.1696 C   0  0  0  0  0  0  0  0  0  0  0  0
   -3.1201    2.4828    4.2593 C   0  0  0  0  0  0  0  0  0  0  0  0
   -2.1789    3.5810    3.7705 C   0  0  0  0  0  0  0  0  0  0  0  0
   -6.0709    3.9166    9.5946 C   0  0  0  0  0  0  0  0  0  0  0  0
   -6.7749    4.8363   10.3997 C   0  0  0  0  0  0  0  0  0  0  0  0
   -6.5692    4.7730   11.7525 C   0  0  0  0  0  0  0  0  0  0  0  0
   -5.6723    3.8011   12.2361 C   0  0  0  0  0  0  0  0  0  0  0  0
   -4.9339    3.0735   11.3919 N   0  0  0  0  0  0  0  0  0  0  0  0
   -5.1257    3.1350   10.1281 N   0  0  0  0  0  0  0  0  0  0  0  0
   -5.4514    3.5879   13.6449 C   0  0  0  0  0  0  0  0  0  0  0  0
   -5.1601    2.3980   14.2129 C   0  0  0  0  0  0  0  0  0  0  0  0
   -4.5719    2.3368   15.5893 C   0  0  0  0  0  0  0  0  0  0  0  0
   -4.5662    3.2224   16.4099 O   0  0  0  0  0  0  0  0  0  0  0  0
   -3.9769    0.9960   15.6664 C   0  0  0  0  0  0  0  0  0  0  0  0
   -3.2094    0.2929   16.5380 C   0  0  0  0  0  0  0  0  0  0  0  0
   -2.8759   -1.2834   15.9251 S   0  0  0  0  0  0  0  0  0  0  0  0
   -3.7852   -1.0026   14.4874 C   0  0  0  0  0  0  0  0  0  0  0  0
   -4.3106    0.2526   14.4845 C   0  0  0  0  0  0  0  0  0  0  0  0
   -5.1657    1.0588   13.6377 C   0  0  0  0  0  0  0  0  0  0  0  0
   -5.9731    0.5693   12.6492 C   0  0  0  0  0  0  0  0  0  0  0  0
   -6.9860    1.3025   12.0019 C   0  0  0  0  0  0  0  0  0  0  0  0
   -7.8659    1.8340   11.4896 N   0  0  0  0  0  0  0  0  0  0  0  0
   -5.9032   -0.7807   12.2478 C   0  0  0  0  0  0  0  0  0  0  0  0
   -5.8496   -1.8766   11.9118 N   0  0  0  0  0  0  0  0  0  0  0  0
    5.0390   -5.0861   -5.0946 H   0  0  0  0  0  0  0  0  0  0  0  0
    9.1607   -0.4137   -4.8394 H   0  0  0  0  0  0  0  0  0  0  0  0
   10.3603   -4.9337   -6.7834 H   0  0  0  0  0  0  0  0  0  0  0  0
   12.9167   -2.6992   -7.2943 H   0  0  0  0  0  0  0  0  0  0  0  0
   13.5756   -4.3146   -5.2809 H   0  0  0  0  0  0  0  0  0  0  0  0
   15.5971   -2.7046   -5.7552 H   0  0  0  0  0  0  0  0  0  0  0  0
   15.0028   -0.3148   -4.7586 H   0  0  0  0  0  0  0  0  0  0  0  0
   12.6160   -0.4541   -3.6689 H   0  0  0  0  0  0  0  0  0  0  0  0
   11.8004   -3.0127   -3.7405 H   0  0  0  0  0  0  0  0  0  0  0  0
   13.4363   -2.8938   -3.0524 H   0  0  0  0  0  0  0  0  0  0  0  0
   12.3276   -0.3595   -6.3166 H   0  0  0  0  0  0  0  0  0  0  0  0
    4.0470    0.2281   -8.5868 H   0  0  0  0  0  0  0  0  0  0  0  0
    3.8836    2.6778   -8.7204 H   0  0  0  0  0  0  0  0  0  0  0  0
    3.1579    4.7906   -6.3072 H   0  0  0  0  0  0  0  0  0  0  0  0
    4.2020    4.8386   -7.7281 H   0  0  0  0  0  0  0  0  0  0  0  0
    4.8972    4.9675   -6.1054 H   0  0  0  0  0  0  0  0  0  0  0  0
    4.6932    2.9636   -4.5416 H   0  0  0  0  0  0  0  0  0  0  0  0
    4.8939    0.5066   -4.4160 H   0  0  0  0  0  0  0  0  0  0  0  0
    6.8839   -0.3713   -7.2926 H   0  0  0  0  0  0  0  0  0  0  0  0
    8.3230   -1.5221   -8.9163 H   0  0  0  0  0  0  0  0  0  0  0  0
    8.3337   -4.7026   -9.7031 H   0  0  0  0  0  0  0  0  0  0  0  0
    7.2711   -4.2768  -11.0376 H   0  0  0  0  0  0  0  0  0  0  0  0
    8.6211   -3.2142  -10.6033 H   0  0  0  0  0  0  0  0  0  0  0  0
    5.3586   -4.5539   -9.3923 H   0  0  0  0  0  0  0  0  0  0  0  0
    3.9288   -3.4232   -7.7625 H   0  0  0  0  0  0  0  0  0  0  0  0
   -1.0428   -4.8977   -2.0448 H   0  0  0  0  0  0  0  0  0  0  0  0
   -0.0894   -6.5661   -0.5165 H   0  0  0  0  0  0  0  0  0  0  0  0
    1.4461   -6.9883    1.4034 H   0  0  0  0  0  0  0  0  0  0  0  0
    2.8807   -5.9737    1.6245 H   0  0  0  0  0  0  0  0  0  0  0  0
    2.8123   -7.1369    0.3020 H   0  0  0  0  0  0  0  0  0  0  0  0
    3.2030   -3.9720    0.2719 H   0  0  0  0  0  0  0  0  0  0  0  0
    2.2381   -2.2868   -1.2258 H   0  0  0  0  0  0  0  0  0  0  0  0
   -1.7003   -2.5706   -0.5995 H   0  0  0  0  0  0  0  0  0  0  0  0
   -4.1091   -2.0873   -0.7169 H   0  0  0  0  0  0  0  0  0  0  0  0
   -6.1322   -1.8618   -2.0643 H   0  0  0  0  0  0  0  0  0  0  0  0
   -5.6915   -0.3421   -2.8406 H   0  0  0  0  0  0  0  0  0  0  0  0
   -6.0292   -1.7613   -3.8293 H   0  0  0  0  0  0  0  0  0  0  0  0
   -3.8155   -1.6453   -4.9460 H   0  0  0  0  0  0  0  0  0  0  0  0
   -1.4130   -2.0901   -4.8343 H   0  0  0  0  0  0  0  0  0  0  0  0
   -3.6556    0.7591   -5.1876 H   0  0  0  0  0  0  0  0  0  0  0  0
   -3.9527    1.1778   -7.5980 H   0  0  0  0  0  0  0  0  0  0  0  0
   -2.0658    1.9860   -8.9563 H   0  0  0  0  0  0  0  0  0  0  0  0
    1.3865    2.2738   -7.6928 H   0  0  0  0  0  0  0  0  0  0  0  0
    0.3705    2.2875   -9.1439 H   0  0  0  0  0  0  0  0  0  0  0  0
    0.4823    4.5138   -7.0529 H   0  0  0  0  0  0  0  0  0  0  0  0
    1.2501    4.5638   -8.6445 H   0  0  0  0  0  0  0  0  0  0  0  0
   -0.5114    4.5300   -8.5083 H   0  0  0  0  0  0  0  0  0  0  0  0
    0.3903    2.0836   -5.4756 H   0  0  0  0  0  0  0  0  0  0  0  0
   -8.8192    6.1094    6.3623 H   0  0  0  0  0  0  0  0  0  0  0  0
  -11.0483    6.8007    7.1504 H   0  0  0  0  0  0  0  0  0  0  0  0
  -12.0977    5.6558    9.0603 H   0  0  0  0  0  0  0  0  0  0  0  0
  -10.3624    3.0948   11.1096 H   0  0  0  0  0  0  0  0  0  0  0  0
  -11.7174    4.2388   11.0847 H   0  0  0  0  0  0  0  0  0  0  0  0
  -11.4674    1.7372    9.3468 H   0  0  0  0  0  0  0  0  0  0  0  0
  -12.5226    1.9138   10.7518 H   0  0  0  0  0  0  0  0  0  0  0  0
  -12.8155    2.8744    9.2971 H   0  0  0  0  0  0  0  0  0  0  0  0
   -8.7235    3.0705    9.3702 H   0  0  0  0  0  0  0  0  0  0  0  0
   -1.7155    1.2773    2.4333 H   0  0  0  0  0  0  0  0  0  0  0  0
   -1.4740    0.3450    0.9658 H   0  0  0  0  0  0  0  0  0  0  0  0
   -3.5164   -0.9523    1.3406 H   0  0  0  0  0  0  0  0  0  0  0  0
   -3.9147   -0.0171    2.7793 H   0  0  0  0  0  0  0  0  0  0  0  0
   -2.4852   -1.0601    2.7692 H   0  0  0  0  0  0  0  0  0  0  0  0
   -2.7150    1.4896    4.0657 H   0  0  0  0  0  0  0  0  0  0  0  0
   -3.2459    2.5724    5.3410 H   0  0  0  0  0  0  0  0  0  0  0  0
   -2.0838    3.5661    2.6872 H   0  0  0  0  0  0  0  0  0  0  0  0
   -1.1952    3.4504    4.2133 H   0  0  0  0  0  0  0  0  0  0  0  0
   -2.5637    4.5550    4.0635 H   0  0  0  0  0  0  0  0  0  0  0  0
   -7.4397    5.5598    9.9567 H   0  0  0  0  0  0  0  0  0  0  0  0
   -7.0883    5.4247   12.4382 H   0  0  0  0  0  0  0  0  0  0  0  0
   -5.4532    4.4589   14.2898 H   0  0  0  0  0  0  0  0  0  0  0  0
   -2.8224    0.5933   17.4911 H   0  0  0  0  0  0  0  0  0  0  0  0
   -3.8572   -1.7732   13.7462 H   0  0  0  0  0  0  0  0  0  0  0  0
  1  2  2  0  0  0  0
  2  3  1  0  0  0  0
  3  4  2  0  0  0  0
  3  5  1  0  0  0  0
  5  6  2  0  0  0  0
  6  7  1  0  0  0  0
  7  8  2  0  0  0  0
  8  9  1  0  0  0  0
  9 10  2  0  0  0  0
 10 11  1  0  0  0  0
 11 12  2  0  0  0  0
 12 13  1  0  0  0  0
 13 14  3  0  0  0  0
 12 15  1  0  0  0  0
 15 16  3  0  0  0  0
  8 17  1  0  0  0  0
 17 18  1  0  0  0  0
 18 19  1  0  0  0  0
 19 20  2  0  0  0  0
 20 21  1  0  0  0  0
 21 22  1  0  0  0  0
 21 23  1  0  0  0  0
  1 24  1  0  0  0  0
 24 25  2  0  0  0  0
 25 26  1  0  0  0  0
 26 27  1  0  0  0  0
 27 28  2  0  0  0  0
 28 29  1  0  0  0  0
 29 30  2  0  0  0  0
 30 31  1  0  0  0  0
 30 32  1  0  0  0  0
 32 33  2  0  0  0  0
 26 34  1  0  0  0  0
 34 35  2  0  0  0  0
 35 36  1  0  0  0  0
 36 37  2  0  0  0  0
 37 38  1  0  0  0  0
 37 39  1  0  0  0  0
 39 40  2  0  0  0  0
 25 41  1  0  0  0  0
 41 42  1  0  0  0  0
 42 43  1  0  0  0  0
 43 44  2  0  0  0  0
 44 45  1  0  0  0  0
 45 46  1  0  0  0  0
 46 47  2  0  0  0  0
 47 48  1  0  0  0  0
 48 49  2  0  0  0  0
 49 50  1  0  0  0  0
 49 51  1  0  0  0  0
 51 52  2  0  0  0  0
 45 53  1  0  0  0  0
 53 54  2  0  0  0  0
 54 55  1  0  0  0  0
 55 56  2  0  0  0  0
 56 57  1  0  0  0  0
 56 58  1  0  0  0  0
 58 59  2  0  0  0  0
 44 60  1  0  0  0  0
 60 61  1  0  0  0  0
 43 62  1  0  0  0  0
 62 63  2  0  0  0  0
 63 64  1  0  0  0  0
 64 65  2  0  0  0  0
 65 66  1  0  0  0  0
 66 67  2  0  0  0  0
 67 68  1  0  0  0  0
 68 69  1  0  0  0  0
 69 70  1  0  0  0  0
 68 71  2  0  0  0  0
 63 72  1  0  0  0  0
 72 73  1  0  0  0  0
 73 74  1  0  0  0  0
 74 75  1  0  0  0  0
 75 76  1  0  0  0  0
 76 77  1  0  0  0  0
 77 78  2  0  0  0  0
 78 79  1  0  0  0  0
 79 80  1  0  0  0  0
 77 81  1  0  0  0  0
 81 82  1  0  0  0  0
 82 83  1  0  0  0  0
 83 84  1  0  0  0  0
 84 85  1  0  0  0  0
 85 86  1  0  0  0  0
 86 87  2  0  0  0  0
 87 88  1  0  0  0  0
 88 89  2  0  0  0  0
 89 90  1  0  0  0  0
 90 91  1  0  0  0  0
 91 92  1  0  0  0  0
 90 93  2  0  0  0  0
 85 94  2  0  0  0  0
 94 95  1  0  0  0  0
 95 96  1  0  0  0  0
 96 97  1  0  0  0  0
 97 98  1  0  0  0  0
 98 99  1  0  0  0  0
 99100  1  0  0  0  0
100101  1  0  0  0  0
101102  1  0  0  0  0
102103  1  0  0  0  0
103104  1  0  0  0  0
101105  1  0  0  0  0
105106  1  0  0  0  0
 98107  1  0  0  0  0
107108  1  0  0  0  0
 94109  1  0  0  0  0
109110  2  0  0  0  0
110111  1  0  0  0  0
111112  2  0  0  0  0
112113  1  0  0  0  0
113114  2  0  0  0  0
112115  1  0  0  0  0
115116  2  0  0  0  0
116117  1  0  0  0  0
117118  2  0  0  0  0
117119  1  0  0  0  0
119120  2  0  0  0  0
120121  1  0  0  0  0
121122  1  0  0  0  0
122123  2  0  0  0  0
123124  1  0  0  0  0
124125  2  0  0  0  0
125126  1  0  0  0  0
126127  3  0  0  0  0
125128  1  0  0  0  0
128129  3  0  0  0  0
 11  2  1  0  0  0  0
 23 17  1  0  0  0  0
 61 24  1  0  0  0  0
104 62  1  0  0  0  0
114109  1  0  0  0  0
124116  1  0  0  0  0
 10  5  1  0  0  0  0
 22 18  1  0  0  0  0
 33 27  1  0  0  0  0
 40 34  1  0  0  0  0
 60 41  2  0  0  0  0
 71 64  1  0  0  0  0
103 72  2  0  0  0  0
123119  1  0  0  0  0
 23  7  1  0  0  0  0
 52 46  1  0  0  0  0
 59 53  1  0  0  0  0
102 74  2  0  0  0  0
100 75  2  0  0  0  0
 80 76  2  0  0  0  0
 99 81  2  0  0  0  0
 97 82  2  0  0  0  0
 96 84  2  0  0  0  0
 93 86  1  0  0  0  0
  1130  1  0  0  0  0
  6131  1  0  0  0  0
  9132  1  0  0  0  0
 17133  1  0  0  0  0
 18134  1  0  0  0  0
 19135  1  0  0  0  0
 20136  1  0  0  0  0
 21137  1  0  0  0  0
 22138  1  0  0  0  0
 22139  1  0  0  0  0
 23140  1  0  0  0  0
 28141  1  0  0  0  0
 29142  1  0  0  0  0
 31143  1  0  0  0  0
 31144  1  0  0  0  0
 31145  1  0  0  0  0
 32146  1  0  0  0  0
 33147  1  0  0  0  0
 35148  1  0  0  0  0
 36149  1  0  0  0  0
 38150  1  0  0  0  0
 38151  1  0  0  0  0
 38152  1  0  0  0  0
 39153  1  0  0  0  0
 40154  1  0  0  0  0
 47155  1  0  0  0  0
 48156  1  0  0  0  0
 50157  1  0  0  0  0
 50158  1  0  0  0  0
 50159  1  0  0  0  0
 51160  1  0  0  0  0
 52161  1  0  0  0  0
 54162  1  0  0  0  0
 55163  1  0  0  0  0
 57164  1  0  0  0  0
 57165  1  0  0  0  0
 57166  1  0  0  0  0
 58167  1  0  0  0  0
 59168  1  0  0  0  0
 65169  1  0  0  0  0
 66170  1  0  0  0  0
 67171  1  0  0  0  0
 69172  1  0  0  0  0
 69173  1  0  0  0  0
 70174  1  0  0  0  0
 70175  1  0  0  0  0
 70176  1  0  0  0  0
 71177  1  0  0  0  0
 87178  1  0  0  0  0
 88179  1  0  0  0  0
 89180  1  0  0  0  0
 91181  1  0  0  0  0
 91182  1  0  0  0  0
 92183  1  0  0  0  0
 92184  1  0  0  0  0
 92185  1  0  0  0  0
 93186  1  0  0  0  0
105187  1  0  0  0  0
105188  1  0  0  0  0
106189  1  0  0  0  0
106190  1  0  0  0  0
106191  1  0  0  0  0
107192  1  0  0  0  0
107193  1  0  0  0  0
108194  1  0  0  0  0
108195  1  0  0  0  0
108196  1  0  0  0  0
110197  1  0  0  0  0
111198  1  0  0  0  0
115199  1  0  0  0  0
120200  1  0  0  0  0
122201  1  0  0  0  0
M  END
