
  xtb     02082222273D
 energy: -437.321268107494 gnorm: 0.000834601743 xtb: 6.4.1 (unknown)
262290  0     0  0            999 V2000
   -7.9266    3.9461    8.4389 C   0  0  0  0  0  0  0  0  0  0  0  0
   -7.2496    4.6598    9.3933 C   0  0  0  0  0  0  0  0  0  0  0  0
   -7.7085    6.0165    9.7612 C   0  0  0  0  0  0  0  0  0  0  0  0
   -8.7832    6.5213    9.5102 O   0  0  0  0  0  0  0  0  0  0  0  0
   -6.5514    6.6475   10.4351 C   0  0  0  0  0  0  0  0  0  0  0  0
   -6.4375    7.9672   10.8636 C   0  0  0  0  0  0  0  0  0  0  0  0
   -5.2210    8.2717   11.4273 C   0  0  0  0  0  0  0  0  0  0  0  0
   -4.1867    7.3359   11.5545 C   0  0  0  0  0  0  0  0  0  0  0  0
   -4.2896    6.0252   11.1509 C   0  0  0  0  0  0  0  0  0  0  0  0
   -5.5195    5.6966   10.5783 C   0  0  0  0  0  0  0  0  0  0  0  0
   -6.0047    4.4136   10.0740 C   0  0  0  0  0  0  0  0  0  0  0  0
   -5.5115    3.1793   10.4263 C   0  0  0  0  0  0  0  0  0  0  0  0
   -4.3040    2.9734   11.1138 C   0  0  0  0  0  0  0  0  0  0  0  0
   -3.3110    2.7454   11.6460 N   0  0  0  0  0  0  0  0  0  0  0  0
   -6.2225    1.9873   10.1814 C   0  0  0  0  0  0  0  0  0  0  0  0
   -6.8108    1.0094   10.0455 N   0  0  0  0  0  0  0  0  0  0  0  0
   -3.2545    8.3338   12.1956 C   0  0  0  0  0  0  0  0  0  0  0  0
   -2.1346    8.9534   11.3231 C   0  0  0  0  0  0  0  0  0  0  0  0
   -2.6269    8.9202    9.8981 C   0  0  0  0  0  0  0  0  0  0  0  0
   -3.6093    9.8042    9.7876 C   0  0  0  0  0  0  0  0  0  0  0  0
   -3.7977   10.4531   11.1362 C   0  0  0  0  0  0  0  0  0  0  0  0
   -2.3477   10.4409   11.6469 C   0  0  0  0  0  0  0  0  0  0  0  0
   -4.4104    9.3747   12.0627 C   0  0  0  0  0  0  0  0  0  0  0  0
   -7.4222    2.9276    7.6179 C   0  0  0  0  0  0  0  0  0  0  0  0
   -8.1274    2.0123    6.8165 C   0  0  0  0  0  0  0  0  0  0  0  0
   -9.4898    1.9040    6.7154 N   0  0  0  0  0  0  0  0  0  0  0  0
  -10.3087    3.0427    6.6708 C   0  0  0  0  0  0  0  0  0  0  0  0
   -9.9129    4.1556    5.9305 C   0  0  0  0  0  0  0  0  0  0  0  0
  -10.7059    5.2840    5.8991 C   0  0  0  0  0  0  0  0  0  0  0  0
  -11.9123    5.3320    6.5894 C   0  0  0  0  0  0  0  0  0  0  0  0
  -12.7434    6.5763    6.5811 C   0  0  0  0  0  0  0  0  0  0  0  0
  -12.3080    4.2097    7.3072 C   0  0  0  0  0  0  0  0  0  0  0  0
  -11.5207    3.0758    7.3537 C   0  0  0  0  0  0  0  0  0  0  0  0
  -10.0691    0.6219    6.6973 C   0  0  0  0  0  0  0  0  0  0  0  0
  -11.1642    0.3534    5.8830 C   0  0  0  0  0  0  0  0  0  0  0  0
  -11.7629   -0.8906    5.9202 C   0  0  0  0  0  0  0  0  0  0  0  0
  -11.2859   -1.8918    6.7569 C   0  0  0  0  0  0  0  0  0  0  0  0
  -11.9849   -3.2126    6.8571 C   0  0  0  0  0  0  0  0  0  0  0  0
  -10.1701   -1.6221    7.5414 C   0  0  0  0  0  0  0  0  0  0  0  0
   -9.5656   -0.3821    7.5213 C   0  0  0  0  0  0  0  0  0  0  0  0
   -7.2419    1.1426    6.1435 C   0  0  0  0  0  0  0  0  0  0  0  0
   -7.4578   -0.1439    5.0070 S   0  0  0  0  0  0  0  0  0  0  0  0
   -5.7110   -0.3169    4.8427 C   0  0  0  0  0  0  0  0  0  0  0  0
   -5.0127    0.5193    5.7122 C   0  0  0  0  0  0  0  0  0  0  0  0
   -3.6504    0.4934    5.9522 N   0  0  0  0  0  0  0  0  0  0  0  0
   -3.0830    1.6646    6.5044 C   0  0  0  0  0  0  0  0  0  0  0  0
   -2.4793    1.6380    7.7574 C   0  0  0  0  0  0  0  0  0  0  0  0
   -2.0206    2.8087    8.3277 C   0  0  0  0  0  0  0  0  0  0  0  0
   -2.1469    4.0237    7.6652 C   0  0  0  0  0  0  0  0  0  0  0  0
   -1.7196    5.3041    8.3140 C   0  0  0  0  0  0  0  0  0  0  0  0
   -2.7123    4.0337    6.3953 C   0  0  0  0  0  0  0  0  0  0  0  0
   -3.1784    2.8698    5.8156 C   0  0  0  0  0  0  0  0  0  0  0  0
   -2.9372   -0.7075    6.0590 C   0  0  0  0  0  0  0  0  0  0  0  0
   -3.5580   -1.9166    6.3664 C   0  0  0  0  0  0  0  0  0  0  0  0
   -2.8217   -3.0822    6.4133 C   0  0  0  0  0  0  0  0  0  0  0  0
   -1.4510   -3.0806    6.1774 C   0  0  0  0  0  0  0  0  0  0  0  0
   -0.6745   -4.3612    6.2113 C   0  0  0  0  0  0  0  0  0  0  0  0
   -0.8339   -1.8664    5.9066 C   0  0  0  0  0  0  0  0  0  0  0  0
   -1.5612   -0.6948    5.8402 C   0  0  0  0  0  0  0  0  0  0  0  0
   -5.8997    1.3816    6.3927 C   0  0  0  0  0  0  0  0  0  0  0  0
   -5.6774    2.7225    7.4503 S   0  0  0  0  0  0  0  0  0  0  0  0
   -5.1778   -1.1566    3.8274 C   0  0  0  0  0  0  0  0  0  0  0  0
   -5.8240   -2.1624    3.1302 C   0  0  0  0  0  0  0  0  0  0  0  0
   -7.1637   -2.6646    3.4720 C   0  0  0  0  0  0  0  0  0  0  0  0
   -7.3313   -3.3180    4.6896 C   0  0  0  0  0  0  0  0  0  0  0  0
   -8.5608   -3.8304    5.0517 C   0  0  0  0  0  0  0  0  0  0  0  0
   -9.6372   -3.6902    4.1937 C   0  0  0  0  0  0  0  0  0  0  0  0
   -9.4760   -3.0345    2.9880 C   0  0  0  0  0  0  0  0  0  0  0  0
   -8.2470   -2.5171    2.6022 C   0  0  0  0  0  0  0  0  0  0  0  0
   -8.1271   -1.7706    1.3036 C   0  0  0  0  0  0  0  0  0  0  0  0
   -8.1294   -0.2586    1.5324 C   0  0  0  0  0  0  0  0  0  0  0  0
   -5.0114   -2.6866    2.1098 C   0  0  0  0  0  0  0  0  0  0  0  0
   -5.2424   -3.9675    0.9404 S   0  0  0  0  0  0  0  0  0  0  0  0
   -3.6596   -3.6504    0.3088 C   0  0  0  0  0  0  0  0  0  0  0  0
   -2.7984   -4.1134   -0.7054 C   0  0  0  0  0  0  0  0  0  0  0  0
   -2.8588   -5.1864   -1.6234 C   0  0  0  0  0  0  0  0  0  0  0  0
   -1.7278   -5.4487   -2.4796 C   0  0  0  0  0  0  0  0  0  0  0  0
   -1.9081   -6.5208   -3.2348 N   0  0  0  0  0  0  0  0  0  0  0  0
   -3.3663   -7.1435   -2.9095 S   0  0  0  0  0  0  0  0  0  0  0  0
   -3.8293   -6.0709   -1.7893 N   0  0  0  0  0  0  0  0  0  0  0  0
   -0.6386   -4.5483   -2.4823 C   0  0  0  0  0  0  0  0  0  0  0  0
    0.5129   -4.4210   -3.2849 C   0  0  0  0  0  0  0  0  0  0  0  0
    1.3266   -5.2565   -4.5628 S   0  0  0  0  0  0  0  0  0  0  0  0
    2.5086   -3.9707   -4.6430 C   0  0  0  0  0  0  0  0  0  0  0  0
    3.6718   -3.7594   -5.4179 C   0  0  0  0  0  0  0  0  0  0  0  0
    4.2894   -4.6754   -6.3920 C   0  0  0  0  0  0  0  0  0  0  0  0
    3.6471   -5.1794   -7.5250 C   0  0  0  0  0  0  0  0  0  0  0  0
    2.2101   -4.8985   -7.8607 C   0  0  0  0  0  0  0  0  0  0  0  0
    1.3660   -6.1737   -7.8070 C   0  0  0  0  0  0  0  0  0  0  0  0
    4.3741   -5.9864   -8.3951 C   0  0  0  0  0  0  0  0  0  0  0  0
    5.6900   -6.3239   -8.1516 C   0  0  0  0  0  0  0  0  0  0  0  0
    6.3152   -5.8490   -7.0104 C   0  0  0  0  0  0  0  0  0  0  0  0
    5.6192   -5.0269   -6.1485 C   0  0  0  0  0  0  0  0  0  0  0  0
    4.3101   -2.5982   -5.0368 C   0  0  0  0  0  0  0  0  0  0  0  0
    3.5016   -1.7591   -3.7260 S   0  0  0  0  0  0  0  0  0  0  0  0
    2.2773   -2.9713   -3.6966 C   0  0  0  0  0  0  0  0  0  0  0  0
    1.1350   -3.2233   -2.9273 C   0  0  0  0  0  0  0  0  0  0  0  0
    0.4369   -2.6062   -1.9175 N   0  0  0  0  0  0  0  0  0  0  0  0
   -0.6410   -3.4223   -1.6216 C   0  0  0  0  0  0  0  0  0  0  0  0
   -1.6388   -3.3013   -0.6338 C   0  0  0  0  0  0  0  0  0  0  0  0
   -1.7500   -2.4198    0.4275 N   0  0  0  0  0  0  0  0  0  0  0  0
   -2.9888   -2.6263    0.9845 C   0  0  0  0  0  0  0  0  0  0  0  0
   -3.7591   -2.0776    2.0143 C   0  0  0  0  0  0  0  0  0  0  0  0
   -3.5688   -0.8277    3.1877 S   0  0  0  0  0  0  0  0  0  0  0  0
   -0.6538   -1.9408    1.2464 C   0  0  0  0  0  0  0  0  0  0  0  0
   -0.4594   -2.8202    2.4812 C   0  0  0  0  0  0  0  0  0  0  0  0
    0.4726   -1.1626   -1.7963 C   0  0  0  0  0  0  0  0  0  0  0  0
   -0.0037   -0.4918   -3.0842 C   0  0  0  0  0  0  0  0  0  0  0  0
    5.5123   -2.0454   -5.6000 C   0  0  0  0  0  0  0  0  0  0  0  0
    5.7201   -1.6642   -6.9124 C   0  0  0  0  0  0  0  0  0  0  0  0
    4.7482   -1.6351   -7.8962 N   0  0  0  0  0  0  0  0  0  0  0  0
    3.4613   -1.1678   -7.6170 C   0  0  0  0  0  0  0  0  0  0  0  0
    3.2319   -0.2440   -6.6000 C   0  0  0  0  0  0  0  0  0  0  0  0
    1.9490    0.1855   -6.3194 C   0  0  0  0  0  0  0  0  0  0  0  0
    0.8598   -0.2808   -7.0419 C   0  0  0  0  0  0  0  0  0  0  0  0
   -0.5368    0.1652   -6.7313 C   0  0  0  0  0  0  0  0  0  0  0  0
    1.0990   -1.1757   -8.0796 C   0  0  0  0  0  0  0  0  0  0  0  0
    2.3749   -1.6106   -8.3695 C   0  0  0  0  0  0  0  0  0  0  0  0
    5.1524   -1.9240   -9.2131 C   0  0  0  0  0  0  0  0  0  0  0  0
    6.0125   -2.9936   -9.4448 C   0  0  0  0  0  0  0  0  0  0  0  0
    6.4542   -3.2632  -10.7237 C   0  0  0  0  0  0  0  0  0  0  0  0
    6.0518   -2.4829  -11.8004 C   0  0  0  0  0  0  0  0  0  0  0  0
    6.5688   -2.7621  -13.1771 C   0  0  0  0  0  0  0  0  0  0  0  0
    5.1855   -1.4239  -11.5601 C   0  0  0  0  0  0  0  0  0  0  0  0
    4.7396   -1.1393  -10.2846 C   0  0  0  0  0  0  0  0  0  0  0  0
    7.0533   -1.2309   -7.1157 C   0  0  0  0  0  0  0  0  0  0  0  0
    7.9239   -0.7295   -8.5160 S   0  0  0  0  0  0  0  0  0  0  0  0
    9.3530   -0.4300   -7.5210 C   0  0  0  0  0  0  0  0  0  0  0  0
    9.1573   -0.8289   -6.1659 C   0  0  0  0  0  0  0  0  0  0  0  0
   10.1214   -0.8526   -5.2013 N   0  0  0  0  0  0  0  0  0  0  0  0
    9.7391   -0.7189   -3.8501 C   0  0  0  0  0  0  0  0  0  0  0  0
   10.2611   -1.5724   -2.8839 C   0  0  0  0  0  0  0  0  0  0  0  0
    9.8892   -1.4269   -1.5624 C   0  0  0  0  0  0  0  0  0  0  0  0
    8.9943   -0.4370   -1.1734 C   0  0  0  0  0  0  0  0  0  0  0  0
    8.5730   -0.2986    0.2564 C   0  0  0  0  0  0  0  0  0  0  0  0
    8.4839    0.4146   -2.1466 C   0  0  0  0  0  0  0  0  0  0  0  0
    8.8506    0.2832   -3.4707 C   0  0  0  0  0  0  0  0  0  0  0  0
   11.4828   -1.0905   -5.4810 C   0  0  0  0  0  0  0  0  0  0  0  0
   12.4662   -0.4281   -4.7521 C   0  0  0  0  0  0  0  0  0  0  0  0
   13.8007   -0.6302   -5.0493 C   0  0  0  0  0  0  0  0  0  0  0  0
   14.1882   -1.4752   -6.0812 C   0  0  0  0  0  0  0  0  0  0  0  0
   15.6282   -1.6173   -6.4580 C   0  0  0  0  0  0  0  0  0  0  0  0
   13.1968   -2.1653   -6.7744 C   0  0  0  0  0  0  0  0  0  0  0  0
   11.8619   -1.9921   -6.4744 C   0  0  0  0  0  0  0  0  0  0  0  0
    7.8301   -1.2433   -5.9627 C   0  0  0  0  0  0  0  0  0  0  0  0
    6.9272   -1.7962   -4.5877 S   0  0  0  0  0  0  0  0  0  0  0  0
   10.4998    0.2134   -7.9598 C   0  0  0  0  0  0  0  0  0  0  0  0
   10.9205    0.5477   -9.2350 C   0  0  0  0  0  0  0  0  0  0  0  0
   10.2618    0.1588  -10.4751 C   0  0  0  0  0  0  0  0  0  0  0  0
    9.1756   -0.3712  -10.6180 O   0  0  0  0  0  0  0  0  0  0  0  0
   11.2003    0.5289  -11.5618 C   0  0  0  0  0  0  0  0  0  0  0  0
   11.0179    0.4253  -12.9271 C   0  0  0  0  0  0  0  0  0  0  0  0
    9.6229   -0.3012  -13.5846 Cl  0  0  0  0  0  0  0  0  0  0  0  0
   12.0064    0.9482  -13.7725 C   0  0  0  0  0  0  0  0  0  0  0  0
   11.8407    0.8120  -15.4699 Cl  0  0  0  0  0  0  0  0  0  0  0  0
   13.1029    1.6123  -13.2292 C   0  0  0  0  0  0  0  0  0  0  0  0
   14.2577    2.3139  -14.2801 Cl  0  0  0  0  0  0  0  0  0  0  0  0
   13.2726    1.7317  -11.8398 C   0  0  0  0  0  0  0  0  0  0  0  0
   14.5683    2.7012  -11.2696 Cl  0  0  0  0  0  0  0  0  0  0  0  0
   12.3464    1.1269  -10.9982 C   0  0  0  0  0  0  0  0  0  0  0  0
   12.2191    1.0873   -9.5430 C   0  0  0  0  0  0  0  0  0  0  0  0
   13.1970    1.4042   -8.6196 C   0  0  0  0  0  0  0  0  0  0  0  0
   12.9431    1.7090   -7.2703 C   0  0  0  0  0  0  0  0  0  0  0  0
   12.8183    2.0561   -6.1801 N   0  0  0  0  0  0  0  0  0  0  0  0
   14.5846    1.3287   -8.8338 C   0  0  0  0  0  0  0  0  0  0  0  0
   15.7170    1.1303   -8.8472 N   0  0  0  0  0  0  0  0  0  0  0  0
   -8.9380    4.2864    8.2469 H   0  0  0  0  0  0  0  0  0  0  0  0
   -7.2565    8.6602   10.7501 H   0  0  0  0  0  0  0  0  0  0  0  0
   -3.4933    5.3063   11.2557 H   0  0  0  0  0  0  0  0  0  0  0  0
   -2.9066    8.0841   13.1962 H   0  0  0  0  0  0  0  0  0  0  0  0
   -1.1450    8.5393   11.4982 H   0  0  0  0  0  0  0  0  0  0  0  0
   -2.2567    8.2409    9.1530 H   0  0  0  0  0  0  0  0  0  0  0  0
   -4.2285   10.0068    8.9333 H   0  0  0  0  0  0  0  0  0  0  0  0
   -4.3219   11.4052   11.1415 H   0  0  0  0  0  0  0  0  0  0  0  0
   -2.2597   10.6711   12.7078 H   0  0  0  0  0  0  0  0  0  0  0  0
   -1.6930   11.0953   11.0730 H   0  0  0  0  0  0  0  0  0  0  0  0
   -4.8190    9.7982   12.9784 H   0  0  0  0  0  0  0  0  0  0  0  0
   -8.9778    4.1282    5.3899 H   0  0  0  0  0  0  0  0  0  0  0  0
  -10.3841    6.1433    5.3294 H   0  0  0  0  0  0  0  0  0  0  0  0
  -12.6971    7.0679    5.6116 H   0  0  0  0  0  0  0  0  0  0  0  0
  -13.7811    6.3553    6.8186 H   0  0  0  0  0  0  0  0  0  0  0  0
  -12.3634    7.2726    7.3290 H   0  0  0  0  0  0  0  0  0  0  0  0
  -13.2411    4.2271    7.8511 H   0  0  0  0  0  0  0  0  0  0  0  0
  -11.8314    2.2160    7.9283 H   0  0  0  0  0  0  0  0  0  0  0  0
  -11.5471    1.1260    5.2325 H   0  0  0  0  0  0  0  0  0  0  0  0
  -12.6196   -1.0837    5.2907 H   0  0  0  0  0  0  0  0  0  0  0  0
  -11.2700   -4.0236    6.9742 H   0  0  0  0  0  0  0  0  0  0  0  0
  -12.6384   -3.2175    7.7306 H   0  0  0  0  0  0  0  0  0  0  0  0
  -12.5980   -3.3987    5.9787 H   0  0  0  0  0  0  0  0  0  0  0  0
   -9.7821   -2.3875    8.1971 H   0  0  0  0  0  0  0  0  0  0  0  0
   -8.7222   -0.1754    8.1638 H   0  0  0  0  0  0  0  0  0  0  0  0
   -2.3987    0.7025    8.2909 H   0  0  0  0  0  0  0  0  0  0  0  0
   -1.5854    2.7786    9.3155 H   0  0  0  0  0  0  0  0  0  0  0  0
   -1.0936    5.1113    9.1814 H   0  0  0  0  0  0  0  0  0  0  0  0
   -1.1713    5.9305    7.6123 H   0  0  0  0  0  0  0  0  0  0  0  0
   -2.6004    5.8573    8.6441 H   0  0  0  0  0  0  0  0  0  0  0  0
   -2.8027    4.9680    5.8602 H   0  0  0  0  0  0  0  0  0  0  0  0
   -3.6356    2.8858    4.8368 H   0  0  0  0  0  0  0  0  0  0  0  0
   -4.6167   -1.9387    6.5775 H   0  0  0  0  0  0  0  0  0  0  0  0
   -3.3182   -4.0133    6.6466 H   0  0  0  0  0  0  0  0  0  0  0  0
   -0.8631   -4.8985    7.1392 H   0  0  0  0  0  0  0  0  0  0  0  0
    0.3926   -4.1717    6.1281 H   0  0  0  0  0  0  0  0  0  0  0  0
   -0.9754   -5.0073    5.3866 H   0  0  0  0  0  0  0  0  0  0  0  0
    0.2326   -1.8357    5.7360 H   0  0  0  0  0  0  0  0  0  0  0  0
   -1.0713    0.2402    5.6131 H   0  0  0  0  0  0  0  0  0  0  0  0
   -6.4797   -3.4273    5.3462 H   0  0  0  0  0  0  0  0  0  0  0  0
   -8.6747   -4.3413    5.9958 H   0  0  0  0  0  0  0  0  0  0  0  0
  -10.6011   -4.0949    4.4593 H   0  0  0  0  0  0  0  0  0  0  0  0
  -10.3217   -2.9237    2.3243 H   0  0  0  0  0  0  0  0  0  0  0  0
   -8.9695   -2.0358    0.6620 H   0  0  0  0  0  0  0  0  0  0  0  0
   -7.2105   -2.0527    0.7847 H   0  0  0  0  0  0  0  0  0  0  0  0
   -8.1182    0.2668    0.5801 H   0  0  0  0  0  0  0  0  0  0  0  0
   -7.2546    0.0427    2.1032 H   0  0  0  0  0  0  0  0  0  0  0  0
   -9.0169    0.0389    2.0868 H   0  0  0  0  0  0  0  0  0  0  0  0
    1.7980   -4.1502   -7.1842 H   0  0  0  0  0  0  0  0  0  0  0  0
    2.1583   -4.4972   -8.8758 H   0  0  0  0  0  0  0  0  0  0  0  0
    0.3184   -5.9354   -7.9732 H   0  0  0  0  0  0  0  0  0  0  0  0
    1.6846   -6.8790   -8.5704 H   0  0  0  0  0  0  0  0  0  0  0  0
    1.4592   -6.6570   -6.8384 H   0  0  0  0  0  0  0  0  0  0  0  0
    3.8911   -6.3508   -9.2900 H   0  0  0  0  0  0  0  0  0  0  0  0
    6.2268   -6.9522   -8.8466 H   0  0  0  0  0  0  0  0  0  0  0  0
    7.3409   -6.1111   -6.7967 H   0  0  0  0  0  0  0  0  0  0  0  0
    6.1031   -4.6589   -5.2552 H   0  0  0  0  0  0  0  0  0  0  0  0
    0.2631   -1.9651    0.6594 H   0  0  0  0  0  0  0  0  0  0  0  0
   -0.8688   -0.9128    1.5559 H   0  0  0  0  0  0  0  0  0  0  0  0
    0.4131   -2.4823    3.0328 H   0  0  0  0  0  0  0  0  0  0  0  0
   -0.3066   -3.8553    2.1830 H   0  0  0  0  0  0  0  0  0  0  0  0
   -1.3209   -2.7671    3.1409 H   0  0  0  0  0  0  0  0  0  0  0  0
   -0.1802   -0.8514   -0.9836 H   0  0  0  0  0  0  0  0  0  0  0  0
    1.5017   -0.8607   -1.5771 H   0  0  0  0  0  0  0  0  0  0  0  0
    0.0088    0.5874   -2.9576 H   0  0  0  0  0  0  0  0  0  0  0  0
    0.6396   -0.7528   -3.9200 H   0  0  0  0  0  0  0  0  0  0  0  0
   -1.0199   -0.8052   -3.3144 H   0  0  0  0  0  0  0  0  0  0  0  0
    4.0627    0.1529   -6.0353 H   0  0  0  0  0  0  0  0  0  0  0  0
    1.7994    0.9065   -5.5281 H   0  0  0  0  0  0  0  0  0  0  0  0
   -1.0207    0.5529   -7.6264 H   0  0  0  0  0  0  0  0  0  0  0  0
   -1.1313   -0.6745   -6.3711 H   0  0  0  0  0  0  0  0  0  0  0  0
   -0.5385    0.9411   -5.9699 H   0  0  0  0  0  0  0  0  0  0  0  0
    0.2688   -1.5398   -8.6676 H   0  0  0  0  0  0  0  0  0  0  0  0
    2.5450   -2.2945   -9.1859 H   0  0  0  0  0  0  0  0  0  0  0  0
    6.3295   -3.6086   -8.6157 H   0  0  0  0  0  0  0  0  0  0  0  0
    7.1254   -4.0936  -10.8878 H   0  0  0  0  0  0  0  0  0  0  0  0
    5.9237   -2.3244  -13.9350 H   0  0  0  0  0  0  0  0  0  0  0  0
    6.6484   -3.8329  -13.3532 H   0  0  0  0  0  0  0  0  0  0  0  0
    7.5634   -2.3300  -13.2861 H   0  0  0  0  0  0  0  0  0  0  0  0
    4.8655   -0.8003  -12.3824 H   0  0  0  0  0  0  0  0  0  0  0  0
    4.0805   -0.3012  -10.1111 H   0  0  0  0  0  0  0  0  0  0  0  0
   10.9542   -2.3472   -3.1761 H   0  0  0  0  0  0  0  0  0  0  0  0
   10.2985   -2.0973   -0.8210 H   0  0  0  0  0  0  0  0  0  0  0  0
    8.4454    0.7483    0.5226 H   0  0  0  0  0  0  0  0  0  0  0  0
    9.3050   -0.7469    0.9234 H   0  0  0  0  0  0  0  0  0  0  0  0
    7.6185   -0.8024    0.4113 H   0  0  0  0  0  0  0  0  0  0  0  0
    7.7956    1.1967   -1.8620 H   0  0  0  0  0  0  0  0  0  0  0  0
    8.4630    0.9619   -4.2163 H   0  0  0  0  0  0  0  0  0  0  0  0
   12.1820    0.2596   -3.9711 H   0  0  0  0  0  0  0  0  0  0  0  0
   14.5512   -0.0952   -4.4879 H   0  0  0  0  0  0  0  0  0  0  0  0
   15.8235   -2.5915   -6.8996 H   0  0  0  0  0  0  0  0  0  0  0  0
   16.2720   -1.4811   -5.5926 H   0  0  0  0  0  0  0  0  0  0  0  0
   15.8911   -0.8543   -7.1935 H   0  0  0  0  0  0  0  0  0  0  0  0
   13.4772   -2.8525   -7.5595 H   0  0  0  0  0  0  0  0  0  0  0  0
   11.1062   -2.5386   -7.0195 H   0  0  0  0  0  0  0  0  0  0  0  0
   11.1877    0.4740   -7.1667 H   0  0  0  0  0  0  0  0  0  0  0  0
  1  2  2  0  0  0  0
  2  3  1  0  0  0  0
  3  4  2  0  0  0  0
  3  5  1  0  0  0  0
  5  6  2  0  0  0  0
  6  7  1  0  0  0  0
  7  8  2  0  0  0  0
  8  9  1  0  0  0  0
  9 10  2  0  0  0  0
 10 11  1  0  0  0  0
 11 12  2  0  0  0  0
 12 13  1  0  0  0  0
 13 14  3  0  0  0  0
 12 15  1  0  0  0  0
 15 16  3  0  0  0  0
  8 17  1  0  0  0  0
 17 18  1  0  0  0  0
 18 19  1  0  0  0  0
 19 20  2  0  0  0  0
 20 21  1  0  0  0  0
 21 22  1  0  0  0  0
 21 23  1  0  0  0  0
  1 24  1  0  0  0  0
 24 25  2  0  0  0  0
 25 26  1  0  0  0  0
 26 27  1  0  0  0  0
 27 28  2  0  0  0  0
 28 29  1  0  0  0  0
 29 30  2  0  0  0  0
 30 31  1  0  0  0  0
 30 32  1  0  0  0  0
 32 33  2  0  0  0  0
 26 34  1  0  0  0  0
 34 35  2  0  0  0  0
 35 36  1  0  0  0  0
 36 37  2  0  0  0  0
 37 38  1  0  0  0  0
 37 39  1  0  0  0  0
 39 40  2  0  0  0  0
 25 41  1  0  0  0  0
 41 42  1  0  0  0  0
 42 43  1  0  0  0  0
 43 44  2  0  0  0  0
 44 45  1  0  0  0  0
 45 46  1  0  0  0  0
 46 47  2  0  0  0  0
 47 48  1  0  0  0  0
 48 49  2  0  0  0  0
 49 50  1  0  0  0  0
 49 51  1  0  0  0  0
 51 52  2  0  0  0  0
 45 53  1  0  0  0  0
 53 54  2  0  0  0  0
 54 55  1  0  0  0  0
 55 56  2  0  0  0  0
 56 57  1  0  0  0  0
 56 58  1  0  0  0  0
 58 59  2  0  0  0  0
 44 60  1  0  0  0  0
 60 61  1  0  0  0  0
 43 62  1  0  0  0  0
 62 63  2  0  0  0  0
 63 64  1  0  0  0  0
 64 65  2  0  0  0  0
 65 66  1  0  0  0  0
 66 67  2  0  0  0  0
 67 68  1  0  0  0  0
 68 69  2  0  0  0  0
 69 70  1  0  0  0  0
 70 71  1  0  0  0  0
 63 72  1  0  0  0  0
 72 73  1  0  0  0  0
 73 74  1  0  0  0  0
 74 75  1  0  0  0  0
 75 76  1  0  0  0  0
 76 77  1  0  0  0  0
 77 78  2  0  0  0  0
 78 79  1  0  0  0  0
 79 80  1  0  0  0  0
 77 81  1  0  0  0  0
 81 82  1  0  0  0  0
 82 83  1  0  0  0  0
 83 84  1  0  0  0  0
 84 85  1  0  0  0  0
 85 86  1  0  0  0  0
 86 87  2  0  0  0  0
 87 88  1  0  0  0  0
 88 89  1  0  0  0  0
 87 90  1  0  0  0  0
 90 91  2  0  0  0  0
 91 92  1  0  0  0  0
 92 93  2  0  0  0  0
 85 94  2  0  0  0  0
 94 95  1  0  0  0  0
 95 96  1  0  0  0  0
 96 97  1  0  0  0  0
 97 98  1  0  0  0  0
 98 99  1  0  0  0  0
 99100  1  0  0  0  0
100101  1  0  0  0  0
101102  1  0  0  0  0
102103  1  0  0  0  0
103104  1  0  0  0  0
101105  1  0  0  0  0
105106  1  0  0  0  0
 98107  1  0  0  0  0
107108  1  0  0  0  0
 94109  1  0  0  0  0
109110  2  0  0  0  0
110111  1  0  0  0  0
111112  1  0  0  0  0
112113  2  0  0  0  0
113114  1  0  0  0  0
114115  2  0  0  0  0
115116  1  0  0  0  0
115117  1  0  0  0  0
117118  2  0  0  0  0
111119  1  0  0  0  0
119120  2  0  0  0  0
120121  1  0  0  0  0
121122  2  0  0  0  0
122123  1  0  0  0  0
122124  1  0  0  0  0
124125  2  0  0  0  0
110126  1  0  0  0  0
126127  1  0  0  0  0
127128  1  0  0  0  0
128129  2  0  0  0  0
129130  1  0  0  0  0
130131  1  0  0  0  0
131132  2  0  0  0  0
132133  1  0  0  0  0
133134  2  0  0  0  0
134135  1  0  0  0  0
134136  1  0  0  0  0
136137  2  0  0  0  0
130138  1  0  0  0  0
138139  2  0  0  0  0
139140  1  0  0  0  0
140141  2  0  0  0  0
141142  1  0  0  0  0
141143  1  0  0  0  0
143144  2  0  0  0  0
129145  1  0  0  0  0
145146  1  0  0  0  0
128147  1  0  0  0  0
147148  2  0  0  0  0
148149  1  0  0  0  0
149150  2  0  0  0  0
149151  1  0  0  0  0
151152  2  0  0  0  0
152153  1  0  0  0  0
152154  1  0  0  0  0
154155  1  0  0  0  0
154156  2  0  0  0  0
156157  1  0  0  0  0
156158  1  0  0  0  0
158159  1  0  0  0  0
158160  2  0  0  0  0
160161  1  0  0  0  0
161162  2  0  0  0  0
162163  1  0  0  0  0
163164  3  0  0  0  0
162165  1  0  0  0  0
165166  3  0  0  0  0
 11  2  1  0  0  0  0
 23 17  1  0  0  0  0
 61 24  1  0  0  0  0
104 62  1  0  0  0  0
146109  1  0  0  0  0
161148  1  0  0  0  0
 10  5  1  0  0  0  0
 22 18  1  0  0  0  0
 33 27  1  0  0  0  0
 40 34  1  0  0  0  0
 60 41  2  0  0  0  0
 69 64  1  0  0  0  0
103 72  2  0  0  0  0
118112  1  0  0  0  0
125119  1  0  0  0  0
145126  2  0  0  0  0
160151  1  0  0  0  0
 23  7  1  0  0  0  0
 52 46  1  0  0  0  0
 59 53  1  0  0  0  0
102 74  2  0  0  0  0
137131  1  0  0  0  0
144138  1  0  0  0  0
100 75  2  0  0  0  0
 80 76  2  0  0  0  0
 99 81  2  0  0  0  0
 97 82  2  0  0  0  0
 96 84  2  0  0  0  0
 93 86  1  0  0  0  0
  1167  1  0  0  0  0
  6168  1  0  0  0  0
  9169  1  0  0  0  0
 17170  1  0  0  0  0
 18171  1  0  0  0  0
 19172  1  0  0  0  0
 20173  1  0  0  0  0
 21174  1  0  0  0  0
 22175  1  0  0  0  0
 22176  1  0  0  0  0
 23177  1  0  0  0  0
 28178  1  0  0  0  0
 29179  1  0  0  0  0
 31180  1  0  0  0  0
 31181  1  0  0  0  0
 31182  1  0  0  0  0
 32183  1  0  0  0  0
 33184  1  0  0  0  0
 35185  1  0  0  0  0
 36186  1  0  0  0  0
 38187  1  0  0  0  0
 38188  1  0  0  0  0
 38189  1  0  0  0  0
 39190  1  0  0  0  0
 40191  1  0  0  0  0
 47192  1  0  0  0  0
 48193  1  0  0  0  0
 50194  1  0  0  0  0
 50195  1  0  0  0  0
 50196  1  0  0  0  0
 51197  1  0  0  0  0
 52198  1  0  0  0  0
 54199  1  0  0  0  0
 55200  1  0  0  0  0
 57201  1  0  0  0  0
 57202  1  0  0  0  0
 57203  1  0  0  0  0
 58204  1  0  0  0  0
 59205  1  0  0  0  0
 65206  1  0  0  0  0
 66207  1  0  0  0  0
 67208  1  0  0  0  0
 68209  1  0  0  0  0
 70210  1  0  0  0  0
 70211  1  0  0  0  0
 71212  1  0  0  0  0
 71213  1  0  0  0  0
 71214  1  0  0  0  0
 88215  1  0  0  0  0
 88216  1  0  0  0  0
 89217  1  0  0  0  0
 89218  1  0  0  0  0
 89219  1  0  0  0  0
 90220  1  0  0  0  0
 91221  1  0  0  0  0
 92222  1  0  0  0  0
 93223  1  0  0  0  0
105224  1  0  0  0  0
105225  1  0  0  0  0
106226  1  0  0  0  0
106227  1  0  0  0  0
106228  1  0  0  0  0
107229  1  0  0  0  0
107230  1  0  0  0  0
108231  1  0  0  0  0
108232  1  0  0  0  0
108233  1  0  0  0  0
113234  1  0  0  0  0
114235  1  0  0  0  0
116236  1  0  0  0  0
116237  1  0  0  0  0
116238  1  0  0  0  0
117239  1  0  0  0  0
118240  1  0  0  0  0
120241  1  0  0  0  0
121242  1  0  0  0  0
123243  1  0  0  0  0
123244  1  0  0  0  0
123245  1  0  0  0  0
124246  1  0  0  0  0
125247  1  0  0  0  0
132248  1  0  0  0  0
133249  1  0  0  0  0
135250  1  0  0  0  0
135251  1  0  0  0  0
135252  1  0  0  0  0
136253  1  0  0  0  0
137254  1  0  0  0  0
139255  1  0  0  0  0
140256  1  0  0  0  0
142257  1  0  0  0  0
142258  1  0  0  0  0
142259  1  0  0  0  0
143260  1  0  0  0  0
144261  1  0  0  0  0
147262  1  0  0  0  0
M  END
