259

C          2.63090      -10.56710        2.86400
C          3.91100      -10.23690        3.25570
C          4.67860       -9.11680        2.68910
O          4.31410       -8.32890        1.83520
C          6.03660       -9.23010        3.26260
C          7.12180       -8.39250        3.02470
C          8.25810       -8.73800        3.71760
C          8.31910       -9.85040        4.56470
C          7.25760      -10.69260        4.79890
C          6.08710      -10.34420        4.12160
C          4.76470      -10.96610        4.14920
C          4.35630      -11.95170        5.01630
C          3.03080      -12.41940        5.10390
N          1.96580      -12.82540        5.25080
C          5.18080      -12.54740        5.98690
N          5.79880      -13.05360        6.81340
C          9.76150       -9.59600        4.92940
C         10.01850       -8.96910        6.31580
C         11.41240       -8.39560        6.20330
C         11.34940       -7.33530        5.40810
C          9.91180       -7.17500        4.96900
C          9.19360       -7.67900        6.22740
C          9.69060       -8.34870        3.99100
C          1.68080       -9.68170        2.34880
C          1.53090       -8.28800        2.49370
N          2.26200       -7.43930        3.27870
C          2.93130       -7.83370        4.44000
C          2.40730       -8.80850        5.28900
C          3.11090       -9.20780        6.40590
C          4.34990       -8.65310        6.71620
C          5.13070       -9.14810        7.89270
C          4.84070       -7.64730        5.89420
C          4.14780       -7.23870        4.77130
C          2.31900       -6.07770        2.89960
C          2.02870       -5.07990        3.82230
C          2.02850       -3.75600        3.42520
C          2.31550       -3.40140        2.11300
C          2.25430       -1.97320        1.66570
C          2.64120       -4.40660        1.20890
C          2.64780       -5.73200        1.59190
C          0.41450       -7.83890        1.75230
S         -0.27570       -6.28060        1.48160
C         -1.51100       -6.97210        0.43350
C         -1.38830       -8.35120        0.30980
N         -2.14830       -9.17250       -0.50240
C         -2.35870      -10.49860       -0.08950
C         -2.29610      -11.55210       -0.99680
C         -2.48370      -12.85120       -0.56690
C         -2.72110      -13.14030        0.77080
C         -2.90520      -14.54810        1.24720
C         -2.77810      -12.08360        1.67180
C         -2.60850      -10.77990        1.25190
C         -2.58060       -8.74440       -1.76460
C         -3.77510       -9.22430       -2.29530
C         -4.22240       -8.77480       -3.52080
C         -3.50960       -7.82680       -4.24480
C         -4.03720       -7.28440       -5.53730
C         -2.30420       -7.37470       -3.72330
C         -1.83440       -7.83400       -2.50900
C         -0.30280       -8.82600        1.09300
S          0.37040      -10.38820        1.38620
C         -2.30060       -6.00270       -0.26090
C         -3.60540       -5.97150       -0.71850
C         -4.65510       -6.93560       -0.40020
C         -5.72700       -7.11040       -1.27290
C         -6.76920       -7.94840       -0.93220
C         -6.76560       -8.61200        0.28100
C         -5.70410       -8.46040        1.16580
C         -5.71900       -9.15210        2.50190
C         -5.98190      -10.65330        2.39520
C         -4.65520       -7.62560        0.81070
C         -3.85690       -4.77400       -1.43520
S         -5.28240       -4.12290       -2.21470
C         -4.42080       -2.65990       -2.55820
C         -4.65830       -1.37200       -3.07270
C         -5.84360       -0.71230       -3.46920
C         -5.81720        0.71240       -3.67800
N         -7.01640        1.20400       -3.94640
S         -8.08380       -0.01440       -3.95240
N         -7.05900       -1.21820       -3.60270
C         -4.58190        1.39430       -3.61880
C         -4.22130        2.74500       -3.78790
S         -4.96880        4.30140       -3.94650
C         -3.39260        5.04980       -3.84580
C         -2.97920        6.39160       -3.70560
C         -3.90060        7.52840       -3.76520
C         -3.67160        8.57960       -4.64770
C         -4.56020        9.63700       -4.70350
C         -5.68470        9.64630       -3.89750
C         -5.93950        8.59360       -3.02690
C         -7.19310        8.55730       -2.20140
C         -8.27180        7.74250       -2.91800
C         -5.04030        7.54000       -2.97010
C         -1.62660        6.46940       -3.44160
S         -0.82990        4.90260       -3.55340
C         -2.35580        4.12480       -3.74950
C         -2.82860        2.80980       -3.70770
N         -2.30860        1.56190       -3.49020
C         -3.37320        0.68630       -3.38410
C         -3.43200       -0.66390       -2.96600
N         -2.48960       -1.48340       -2.37140
C         -3.09540       -2.68780       -2.12130
C         -2.77910       -3.89140       -1.48010
S         -1.40660       -4.54100       -0.66900
C         -1.28190       -1.11020       -1.66630
C         -0.03230       -1.77040       -2.24710
C         -0.94690        1.25790       -3.86930
C         -0.67100        1.65190       -5.32000
C         -0.87720        7.55300       -2.87950
C         -0.07210        7.46580       -1.74830
N          0.10380        6.35180       -0.94210
C         -0.93670        5.45690       -0.67280
C         -0.66590        4.09750       -0.51170
C         -1.69620        3.19490       -0.34430
C         -3.02200        3.60910       -0.33180
C         -4.14450        2.62760       -0.18810
C         -3.28120        4.96980       -0.44520
C         -2.26150        5.88630       -0.60860
C          1.37910        6.14100       -0.38600
C          2.52250        6.34290       -1.15420
C          3.77190        6.13710       -0.60360
C          3.91640        5.73150        0.71800
C          5.27440        5.48680        1.29880
C          2.76800        5.53610        1.47700
C          1.51280        5.73740        0.93910
C          0.53540        8.71150       -1.46830
S          1.60760        9.26710       -0.23670
C          1.55980       10.90920       -0.89720
C          0.68790       11.00350       -1.99360
N          0.41540       12.12640       -2.72260
C          0.32070       13.39620       -2.13440
C         -0.28460       13.55670       -0.88900
C         -0.36100       14.80840       -0.31280
C          0.15040       15.92830       -0.95970
C          0.09970       17.27190       -0.30340
C          0.73030       15.76110       -2.21170
C          0.81840       14.51370       -2.79790
C          0.17500       11.99090       -4.10580
C          1.00790       11.18840       -4.88130
C          0.75530       11.04310       -6.23040
C         -0.31560       11.69200       -6.83570
C         -0.59380       11.50230       -8.29500
C         -1.12830       12.50270       -6.05270
C         -0.89190       12.65470       -4.70040
C          0.16730        9.73140       -2.32810
S         -0.94330        9.17840       -3.53090
C          2.34250       11.91790       -0.31390
C          3.50980       11.76720        0.38410
C          3.94860       12.83730        1.32000
O          3.47040       13.94470        1.43960
C          5.04570       12.21650        2.06330
S          6.06250       12.64520        3.36960
C          6.86350       11.12180        3.25260
C          6.38630       10.32230        2.25620
C          5.33080       10.95080        1.56990
C          4.46470       10.68660        0.43300
C          4.72680        9.75050       -0.53890
C          4.07560        9.70080       -1.78490
N          3.61920        9.67410       -2.83960
C          5.78700        8.83690       -0.41110
N          6.64920        8.08280       -0.32100
H          2.32040      -11.60340        2.92520
H          7.03760       -7.55070        2.35490
H          7.32150      -11.55460        5.44220
H         10.46270      -10.39140        4.68430
H          9.82660       -9.62990        7.15680
H         12.28170       -8.83860        6.65280
H         12.15560       -6.71610        5.06030
H          9.62410       -6.20010        4.58390
H          9.35430       -7.02580        7.08390
H          8.12760       -7.84950        6.08930
H         10.34890       -8.31010        3.12480
H          1.44930       -9.25570        5.06950
H          2.69480       -9.97230        7.04600
H          5.56770      -10.12190        7.66760
H          5.93650       -8.46270        8.14360
H          4.48550       -9.27060        8.76030
H          5.78820       -7.18230        6.12530
H          4.55220       -6.46880        4.13170
H          1.79130       -5.34740        4.84170
H          1.78730       -2.98790        4.14570
H          1.32310       -1.79850        1.12550
H          3.07910       -1.74230        0.99450
H          2.28890       -1.29470        2.51430
H          2.88910       -4.14610        0.19020
H          2.91730       -6.51220        0.89750
H         -2.09190      -11.34840       -2.03750
H         -2.42990      -13.65620       -1.28560
H         -2.10980      -14.81630        1.94160
H         -2.88920      -15.24710        0.41510
H         -3.85350      -14.65200        1.77300
H         -2.96090      -12.28580        2.71700
H         -2.67040       -9.96990        1.96290
H         -4.35990       -9.93550       -1.73170
H         -5.15590       -9.15310       -3.91130
H         -4.72480       -7.98670       -6.00220
H         -4.57620       -6.35330       -5.35570
H         -3.22610       -7.07130       -6.23030
H         -1.72020       -6.65360       -4.27740
H         -0.88070       -7.48860       -2.13780
H         -5.73440       -6.60650       -2.22580
H         -7.59710       -8.07610       -1.61370
H         -7.60100       -9.24200        0.54630
H         -6.49770       -8.69800        3.12300
H         -4.76360       -8.98720        3.00390
H         -5.88420      -11.11900        3.37330
H         -6.98480      -10.85080        2.02640
H         -5.26790      -11.11610        1.71790
H         -3.84000       -7.47180        1.50340
H         -2.81530        8.55250       -5.30510
H         -4.37430       10.45470       -5.38410
H         -6.37670       10.47470       -3.94830
H         -7.55750        9.57240       -2.03190
H         -6.98490        8.10190       -1.23090
H         -7.92790        6.72450       -3.08630
H         -9.18200        7.71000       -2.32380
H         -8.50220        8.18830       -3.88310
H         -5.22070        6.71760       -2.29370
H         -1.19640       -0.02330       -1.66960
H         -1.39070       -1.43510       -0.62420
H          0.05300       -1.60070       -3.31790
H          0.85170       -1.36940       -1.75920
H         -0.06210       -2.84310       -2.07900
H         -0.79220        0.18790       -3.77130
H         -0.26270        1.79670       -3.20470
H         -1.37860        1.16030       -5.98440
H          0.33570        1.34700       -5.59250
H         -0.75230        2.72630       -5.45580
H          0.35750        3.75450       -0.55110
H         -1.46610        2.14370       -0.23720
H         -4.56060        2.67250        0.81870
H         -4.94560        2.85400       -0.88950
H         -3.80140        1.61150       -0.37070
H         -4.30370        5.31670       -0.40850
H         -2.48930        6.93850       -0.69890
H          2.42730        6.65650       -2.18390
H          4.65110        6.28870       -1.21220
H          5.58180        4.45790        1.10790
H          5.26990        5.64320        2.37530
H          6.00950        6.14660        0.84350
H          2.85800        5.22740        2.50890
H          0.62810        5.58710        1.54060
H         -0.68970       12.69440       -0.37930
H         -0.82370       14.91880        0.65680
H          0.22040       18.06880       -1.03280
H          0.90570       17.35180        0.42650
H         -0.84210       17.41120        0.22320
H          1.13110       16.61860       -2.73200
H          1.28240       14.39390       -3.76560
H          1.84870       10.68930       -4.42240
H          1.40530       10.41910       -6.82600
H          0.33350       11.43600       -8.86000
H         -1.14640       10.57500       -8.45020
H         -1.19010       12.32170       -8.68870
H         -1.96300       13.01830       -6.50530
H         -1.53360       13.28080       -4.09790
H          1.96540       12.93430       -0.35430
H          7.65860       10.90240        3.93800
H          6.76720        9.34150        2.04010
