237

C          5.15290        9.65140        3.12260
C          5.43860        9.87320        4.45280
C          4.60870        9.49370        5.59600
O          3.57830        8.83970        5.59290
C          5.25420       10.07730        6.78720
C          4.81540        9.99270        8.10600
C          5.62460       10.64260        9.00720
C          6.78300       11.32880        8.62320
C          7.22550       11.42150        7.32420
C          6.41820       10.76450        6.39170
C          6.57010       10.62140        4.94250
C          7.63170       11.09730        4.20860
C          7.86720       10.84220        2.84460
N          8.16550       10.65360        1.74960
C          8.67260       11.88930        4.73060
N          9.54460       12.55390        5.07490
C          7.10760       11.73750       10.03910
C          8.22580       10.94440       10.74770
C          7.99300       11.22330       12.21490
C          6.89510       10.57360       12.57990
C          6.36770        9.84440       11.36530
C          7.69020        9.50920       10.66370
C          5.81490       10.97170       10.46770
C          4.11470        8.94290        2.52550
C          3.96790        8.81630        1.11850
N          4.63740        9.54320        0.17340
C          4.77170        9.00260       -1.12250
C          4.43180        9.75520       -2.24210
C          4.50610        9.19390       -3.50080
C          4.93070        7.88280       -3.67790
C          4.95800        7.25840       -5.03780
C          5.31130        7.15390       -2.55740
C          5.23590        7.70120       -1.29230
C          5.01160       10.88760        0.36720
C          6.19310       11.35820       -0.19900
C          6.56760       12.67450       -0.01850
C          5.78670       13.54730        0.73000
C          6.23380       14.95840        0.95640
C          4.59680       13.07280        1.27010
C          4.20200       11.76260        1.08670
C          3.00720        7.83980        0.80660
S          2.38160        7.21180       -0.68140
C          1.22970        6.21920        0.20490
C          1.31770        6.40030        1.58090
N          0.49170        5.82610        2.53070
C         -0.85960        5.57910        2.27150
C         -1.48530        4.46290        2.82310
C         -2.79310        4.16450        2.49380
C         -3.51080        4.95800        1.60880
C         -4.91020        4.60890        1.20220
C         -2.89450        6.09480        1.09580
C         -1.59450        6.41110        1.42840
C          1.01710        5.59090        3.81470
C          0.28970        5.93400        4.94940
C          0.83870        5.75210        6.20250
C          2.11750        5.23170        6.35780
C          2.73530        5.10050        7.71540
C          2.82560        4.86710        5.21980
C          2.28550        5.03690        3.96100
C          2.35380        7.30970        1.91130
S          2.93110        7.96450        3.40270
C          0.39440        5.33290       -0.53860
C         -0.08650        5.51030       -1.82350
C          0.12410        6.73070       -2.60740
C          0.68560        6.65860       -3.87780
C          0.96440        7.82140       -4.57050
C          0.69310        9.05570       -4.00610
C          0.10230        9.14450       -2.75280
C         -0.16380       10.47120       -2.10030
C          0.84950       10.72880       -0.98320
C         -0.18990        7.97380       -2.07130
C         -0.79890        4.38220       -2.26930
S         -1.67000        4.03560       -3.74430
C         -2.10700        2.48930       -3.09410
C         -2.83880        1.34570       -3.45390
C         -3.62190        1.06480       -4.59440
C         -4.31970       -0.18690       -4.66710
N         -5.04580       -0.29880       -5.76840
S         -4.86410        1.05350       -6.64100
N         -3.85160        1.83400       -5.64710
C         -4.11710       -1.14020       -3.64590
C         -4.52200       -2.48070       -3.54550
S         -5.44610       -3.64510       -4.43160
C         -4.97830       -4.86900       -3.27450
C         -5.25370       -6.24730       -3.17500
C         -6.16450       -6.96410       -4.06230
C         -7.05880       -7.90600       -3.55710
C         -7.92380       -8.56210       -4.41000
C         -7.91340       -8.28380       -5.76670
C         -7.03290       -7.34350       -6.28610
C         -7.04110       -6.99480       -7.74670
C         -7.85790       -5.72260       -7.98180
C         -6.16570       -6.68830       -5.42470
C         -4.61500       -6.80340       -2.08020
S         -3.73760       -5.61280       -1.13060
C         -4.16970       -4.37150       -2.24940
C         -3.91030       -3.00460       -2.40470
N         -3.17980       -2.03370       -1.77430
C         -3.28520       -0.87220       -2.52140
C         -2.72760        0.42510       -2.37350
N         -1.98350        1.02400       -1.36610
C         -1.60970        2.26360       -1.80980
C         -0.86280        3.34840       -1.33480
S          0.00390        3.74310        0.10400
C         -1.95120        0.74910        0.05400
C         -3.35740        0.69130        0.64450
C         -2.21750       -2.40890       -0.76420
C         -0.78660       -2.30750       -1.28650
C         -4.52970       -8.16460       -1.67380
C         -4.40470       -9.29830       -2.46410
C         -4.16890       -9.34130       -3.91360
O         -3.86950       -8.40620       -4.61560
O         -4.26230      -10.60750       -4.34080
C         -3.98720      -10.86270       -5.71550
C         -5.22720      -10.66280       -6.57400
C         -4.35370      -10.46910       -1.67750
C         -4.40920      -10.22740       -0.30550
S         -4.55880       -8.54500        0.04220
C         -4.28090      -11.37870        0.47420
C         -4.26680      -11.33530        1.94470
O         -3.89090      -12.21770        2.67820
O         -4.72230      -10.14820        2.36700
C         -4.73430       -9.91810        3.77500
C         -3.39020       -9.39180        4.25670
C         -4.12090      -12.52260       -0.32580
S         -4.12400      -12.13040       -2.03960
C         -4.02980      -13.81900        0.21510
C         -3.71800      -14.99890       -0.39740
C         -3.23670      -15.17330       -1.77730
O         -3.28450      -14.36760       -2.68890
C         -2.65840      -16.52670       -1.83590
C         -1.99090      -17.10710       -2.91220
C         -1.52740      -18.37630       -2.66380
C         -1.71400      -19.02460       -1.43520
C         -2.38290      -18.46990       -0.36990
C         -2.86240      -17.17800       -0.60120
C         -3.61250      -16.28240        0.27460
C         -4.20050      -16.61960        1.46320
C         -5.07780      -15.78550        2.19260
N         -5.84650      -15.19930        2.81140
C         -4.08050      -17.88450        2.07550
N         -4.01590      -18.88990        2.62570
C         -0.96230      -20.25390       -1.87950
C          0.48930      -20.43310       -1.36900
C          1.02190      -19.04930       -1.09090
C          1.19450      -18.43980       -2.25620
C          0.78110      -19.40070       -3.34350
C          1.19730      -20.73290       -2.69990
C         -0.75920      -19.53440       -3.25010
H          5.84800       10.08750        2.41680
H          3.91260        9.45700        8.35590
H          8.11690       11.95830        7.04610
H          7.16360       12.80870       10.22350
H          9.22650       11.12910       10.36660
H          8.59860       11.88780       12.80300
H          6.40040       10.58720       13.53350
H          5.67590        9.02630       11.54830
H          7.57150        9.13930        9.64700
H          8.29540        8.80960       11.23810
H          5.00950       11.53360       10.93750
H          4.10320       10.77680       -2.11870
H          4.22010        9.78260       -4.35990
H          5.00280        8.01680       -5.81530
H          4.05220        6.67000       -5.18710
H          5.81140        6.59210       -5.14280
H          5.66800        6.14130       -2.67660
H          5.53340        7.12630       -0.42770
H          6.81780       10.68550       -0.76520
H          7.49330       13.02420       -0.44950
H          7.06880       14.97480        1.65720
H          5.42940       15.56330        1.36740
H          6.57430       15.40820        0.02580
H          3.96400       13.73980        1.83790
H          3.27050       11.41040        1.50490
H         -0.93010        3.82130        3.49110
H         -3.25710        3.28720        2.92160
H         -4.93980        4.33870        0.14590
H         -5.57370        5.46080        1.34180
H         -5.29000        3.77320        1.78510
H         -3.44410        6.74030        0.42570
H         -1.13470        7.30520        1.03470
H         -0.69790        6.35810        4.84070
H          0.26990        6.03780        7.07540
H          1.97310        5.01540        8.48630
H          3.33540        5.98630        7.92640
H          3.38940        4.23250        7.76510
H          3.81690        4.44900        5.32000
H          2.84510        4.74970        3.08250
H          0.91760        5.69450       -4.30520
H          1.40680        7.76640       -5.55430
H          0.93570        9.95920       -4.54680
H         -1.17240       10.48090       -1.67980
H         -0.09670       11.26990       -2.84110
H          1.86110       10.69650       -1.38040
H          0.68170       11.70400       -0.53130
H          0.76750        9.96910       -0.20880
H         -0.66090        8.02430       -1.10020
H         -7.08600       -8.10830       -2.49640
H         -8.61500       -9.29220       -4.01490
H         -8.59260       -8.80340       -6.42760
H         -6.01780       -6.83260       -8.09120
H         -7.47220       -7.81540       -8.32380
H         -8.88520       -5.86760       -7.65440
H         -7.86320       -5.46390       -9.03800
H         -7.43420       -4.89230       -7.42170
H         -5.45830       -5.97730       -5.82240
H         -1.40410        1.57470        0.51620
H         -1.38990       -0.16250        0.26170
H         -3.85410        1.64850        0.50460
H         -3.95660       -0.07830        0.16320
H         -3.30240        0.48040        1.70920
H         -2.36050       -1.81550        0.13940
H         -2.43170       -3.44820       -0.50280
H         -0.08520       -2.58440       -0.50400
H         -0.65200       -2.98380       -2.12740
H         -0.56020       -1.29860       -1.62270
H         -3.64750      -11.90020       -5.74370
H         -3.18580      -10.19330       -6.04610
H         -5.54680       -9.62420       -6.52900
H         -5.00250      -10.92140       -7.60480
H         -6.03570      -11.29480       -6.21500
H         -4.98220      -10.85530        4.28390
H         -5.52600       -9.18330        3.93460
H         -2.61990      -10.14330        4.10120
H         -3.12290       -8.49110        3.70890
H         -3.44780       -9.16190        5.31660
H         -4.18040      -13.84400        1.28880
H         -1.86590      -16.57230       -3.84070
H         -2.51830      -18.97860        0.57020
H         -1.52290      -21.18650       -1.86970
H          0.59910      -21.15920       -0.56810
H          1.15990      -18.64780       -0.10400
H          1.50530      -17.42750       -2.43730
H          1.15650      -19.18760       -4.34100
H          2.27660      -20.82840       -2.59060
H          0.80090      -21.60670       -3.21530
H         -1.19110      -19.99540       -4.13620
