
  xtb     02152222053D
 energy: -460.087043934054 gnorm: 0.000437523428 xtb: 6.4.1 (unknown)
296328  0     0  0            999 V2000
    3.5602    7.3923   -6.3612 C   0  0  0  0  0  0  0  0  0  0  0  0
    3.4627    6.6387   -7.5078 C   0  0  0  0  0  0  0  0  0  0  0  0
    2.4146    5.6648   -7.8229 C   0  0  0  0  0  0  0  0  0  0  0  0
    1.3258    5.5360   -7.2893 O   0  0  0  0  0  0  0  0  0  0  0  0
    2.9424    4.8424   -8.9291 C   0  0  0  0  0  0  0  0  0  0  0  0
    2.3317    3.7413   -9.5237 C   0  0  0  0  0  0  0  0  0  0  0  0
    3.0823    3.1512  -10.5127 C   0  0  0  0  0  0  0  0  0  0  0  0
    4.3453    3.6256  -10.8878 C   0  0  0  0  0  0  0  0  0  0  0  0
    4.9561    4.7165  -10.3146 C   0  0  0  0  0  0  0  0  0  0  0  0
    4.2122    5.3268   -9.3012 C   0  0  0  0  0  0  0  0  0  0  0  0
    4.5268    6.4885   -8.4700 C   0  0  0  0  0  0  0  0  0  0  0  0
    5.6460    7.2778   -8.5893 C   0  0  0  0  0  0  0  0  0  0  0  0
    5.8562    8.4905   -7.9058 C   0  0  0  0  0  0  0  0  0  0  0  0
    6.0889    9.5082   -7.4237 N   0  0  0  0  0  0  0  0  0  0  0  0
    6.7385    6.9950   -9.4296 C   0  0  0  0  0  0  0  0  0  0  0  0
    7.6859    6.8091  -10.0535 N   0  0  0  0  0  0  0  0  0  0  0  0
    4.5254    2.5546  -11.9355 C   0  0  0  0  0  0  0  0  0  0  0  0
    4.3104    2.9781  -13.4035 C   0  0  0  0  0  0  0  0  0  0  0  0
    4.0773    1.6710  -14.1262 C   0  0  0  0  0  0  0  0  0  0  0  0
    2.8803    1.2217  -13.7716 C   0  0  0  0  0  0  0  0  0  0  0  0
    2.2842    2.2176  -12.8030 C   0  0  0  0  0  0  0  0  0  0  0  0
    2.8749    3.5177  -13.3637 C   0  0  0  0  0  0  0  0  0  0  0  0
    3.1159    2.0257  -11.5174 C   0  0  0  0  0  0  0  0  0  0  0  0
    2.7248    7.4472   -5.2459 C   0  0  0  0  0  0  0  0  0  0  0  0
    3.1259    7.9774   -3.9938 C   0  0  0  0  0  0  0  0  0  0  0  0
    4.3808    8.4344   -3.6771 N   0  0  0  0  0  0  0  0  0  0  0  0
    5.5547    7.8833   -4.2253 C   0  0  0  0  0  0  0  0  0  0  0  0
    6.6217    8.7126   -4.5598 C   0  0  0  0  0  0  0  0  0  0  0  0
    7.7541    8.1802   -5.1436 C   0  0  0  0  0  0  0  0  0  0  0  0
    7.8501    6.8214   -5.4195 C   0  0  0  0  0  0  0  0  0  0  0  0
    9.0492    6.2712   -6.1272 C   0  0  0  0  0  0  0  0  0  0  0  0
    6.7951    5.9963   -5.0442 C   0  0  0  0  0  0  0  0  0  0  0  0
    5.6652    6.5111   -4.4413 C   0  0  0  0  0  0  0  0  0  0  0  0
    4.4995    9.4496   -2.7095 C   0  0  0  0  0  0  0  0  0  0  0  0
    5.4910    9.3873   -1.7361 C   0  0  0  0  0  0  0  0  0  0  0  0
    5.5975   10.3906   -0.7927 C   0  0  0  0  0  0  0  0  0  0  0  0
    4.7248   11.4713   -0.7916 C   0  0  0  0  0  0  0  0  0  0  0  0
    4.8223   12.5489    0.2437 C   0  0  0  0  0  0  0  0  0  0  0  0
    3.7416   11.5281   -1.7736 C   0  0  0  0  0  0  0  0  0  0  0  0
    3.6279   10.5362   -2.7253 C   0  0  0  0  0  0  0  0  0  0  0  0
    2.0681    7.9300   -3.0734 C   0  0  0  0  0  0  0  0  0  0  0  0
    1.9220    8.2742   -1.3766 S   0  0  0  0  0  0  0  0  0  0  0  0
    0.2722    7.6613   -1.3731 C   0  0  0  0  0  0  0  0  0  0  0  0
   -0.1581    7.3054   -2.6474 C   0  0  0  0  0  0  0  0  0  0  0  0
   -1.4202    6.8142   -2.9711 N   0  0  0  0  0  0  0  0  0  0  0  0
   -2.5631    7.5987   -2.8062 C   0  0  0  0  0  0  0  0  0  0  0  0
   -3.8246    7.0013   -2.7806 C   0  0  0  0  0  0  0  0  0  0  0  0
   -4.9533    7.7690   -2.5944 C   0  0  0  0  0  0  0  0  0  0  0  0
   -4.8690    9.1468   -2.4169 C   0  0  0  0  0  0  0  0  0  0  0  0
   -6.1088    9.9594   -2.1982 C   0  0  0  0  0  0  0  0  0  0  0  0
   -3.6121    9.7329   -2.4349 C   0  0  0  0  0  0  0  0  0  0  0  0
   -2.4718    8.9769   -2.6303 C   0  0  0  0  0  0  0  0  0  0  0  0
   -1.4249    5.6653   -3.7850 C   0  0  0  0  0  0  0  0  0  0  0  0
   -0.6081    4.5939   -3.4319 C   0  0  0  0  0  0  0  0  0  0  0  0
   -0.5409    3.4763   -4.2385 C   0  0  0  0  0  0  0  0  0  0  0  0
   -1.2847    3.3944   -5.4089 C   0  0  0  0  0  0  0  0  0  0  0  0
   -1.1657    2.2016   -6.3065 C   0  0  0  0  0  0  0  0  0  0  0  0
   -2.1087    4.4613   -5.7445 C   0  0  0  0  0  0  0  0  0  0  0  0
   -2.1811    5.5875   -4.9495 C   0  0  0  0  0  0  0  0  0  0  0  0
    0.8867    7.4132   -3.5927 C   0  0  0  0  0  0  0  0  0  0  0  0
    1.0547    6.8744   -5.2227 S   0  0  0  0  0  0  0  0  0  0  0  0
   -0.3534    7.3855   -0.1326 C   0  0  0  0  0  0  0  0  0  0  0  0
   -2.0463    6.9453   -0.0331 S   0  0  0  0  0  0  0  0  0  0  0  0
   -1.8233    6.4574    1.5949 C   0  0  0  0  0  0  0  0  0  0  0  0
   -2.5555    5.7069    2.5470 C   0  0  0  0  0  0  0  0  0  0  0  0
   -1.7239    5.3905    3.6045 C   0  0  0  0  0  0  0  0  0  0  0  0
   -0.3354    5.9701    3.3926 C   0  0  0  0  0  0  0  0  0  0  0  0
   -0.5142    6.6275    2.0394 C   0  0  0  0  0  0  0  0  0  0  0  0
    0.3086    7.1877    1.0726 C   0  0  0  0  0  0  0  0  0  0  0  0
    0.5863    4.7586    3.3032 C   0  0  0  0  0  0  0  0  0  0  0  0
    0.4292    3.8703    2.2454 C   0  0  0  0  0  0  0  0  0  0  0  0
    1.1215    2.6773    2.2154 C   0  0  0  0  0  0  0  0  0  0  0  0
    1.9886    2.3278    3.2438 C   0  0  0  0  0  0  0  0  0  0  0  0
    2.6650    0.9864    3.2448 C   0  0  0  0  0  0  0  0  0  0  0  0
    1.7022   -0.0966    3.7353 C   0  0  0  0  0  0  0  0  0  0  0  0
    2.1658    3.2289    4.2832 C   0  0  0  0  0  0  0  0  0  0  0  0
    1.4772    4.4300    4.3146 C   0  0  0  0  0  0  0  0  0  0  0  0
    0.0977    6.9821    4.4260 C   0  0  0  0  0  0  0  0  0  0  0  0
   -0.7240    7.3383    5.4850 C   0  0  0  0  0  0  0  0  0  0  0  0
   -0.3082    8.2817    6.4079 C   0  0  0  0  0  0  0  0  0  0  0  0
    0.9335    8.8909    6.2973 C   0  0  0  0  0  0  0  0  0  0  0  0
    1.3659    9.9463    7.2739 C   0  0  0  0  0  0  0  0  0  0  0  0
    0.9792   11.3359    6.7636 C   0  0  0  0  0  0  0  0  0  0  0  0
    1.7514    8.5337    5.2319 C   0  0  0  0  0  0  0  0  0  0  0  0
    1.3413    7.5930    4.3082 C   0  0  0  0  0  0  0  0  0  0  0  0
   -2.1750    4.3260    4.4205 C   0  0  0  0  0  0  0  0  0  0  0  0
   -1.4516    3.6391    5.3994 C   0  0  0  0  0  0  0  0  0  0  0  0
   -1.8345    2.3554    5.7053 C   0  0  0  0  0  0  0  0  0  0  0  0
   -0.7489    1.0870    6.6135 Se  0  0  0  0  0  2  0  0  0  0  0  0
   -1.9006   -0.1938    5.8742 C   0  0  0  0  0  0  0  0  0  0  0  0
   -1.8436   -1.5789    5.5718 C   0  0  0  0  0  0  0  0  0  0  0  0
   -2.8889   -1.9127    4.7171 C   0  0  0  0  0  0  0  0  0  0  0  0
   -3.7426   -0.6962    4.4343 C   0  0  0  0  0  0  0  0  0  0  0  0
   -3.6156   -0.2258    2.9889 C   0  0  0  0  0  0  0  0  0  0  0  0
   -2.3562   -0.1832    2.4025 C   0  0  0  0  0  0  0  0  0  0  0  0
   -2.1722    0.3946    1.1620 C   0  0  0  0  0  0  0  0  0  0  0  0
   -3.2382    0.9510    0.4661 C   0  0  0  0  0  0  0  0  0  0  0  0
   -3.0227    1.6460   -0.8482 C   0  0  0  0  0  0  0  0  0  0  0  0
   -2.7263    3.1315   -0.6347 C   0  0  0  0  0  0  0  0  0  0  0  0
   -4.4984    0.8850    1.0432 C   0  0  0  0  0  0  0  0  0  0  0  0
   -4.6878    0.3063    2.2861 C   0  0  0  0  0  0  0  0  0  0  0  0
   -5.1638   -0.9606    4.8681 C   0  0  0  0  0  0  0  0  0  0  0  0
   -5.9545   -1.8409    4.1389 C   0  0  0  0  0  0  0  0  0  0  0  0
   -7.2523   -2.1052    4.5288 C   0  0  0  0  0  0  0  0  0  0  0  0
   -7.7885   -1.5187    5.6683 C   0  0  0  0  0  0  0  0  0  0  0  0
   -9.2090   -1.7865    6.0752 C   0  0  0  0  0  0  0  0  0  0  0  0
  -10.1566   -0.7883    5.4073 C   0  0  0  0  0  0  0  0  0  0  0  0
   -6.9916   -0.6480    6.3984 C   0  0  0  0  0  0  0  0  0  0  0  0
   -5.6951   -0.3690    6.0045 C   0  0  0  0  0  0  0  0  0  0  0  0
   -3.0012    0.3531    5.2432 C   0  0  0  0  0  0  0  0  0  0  0  0
   -2.9988    1.7636    5.1421 C   0  0  0  0  0  0  0  0  0  0  0  0
   -3.8632    2.5560    4.3842 C   0  0  0  0  0  0  0  0  0  0  0  0
   -3.4214    3.7937    3.9858 C   0  0  0  0  0  0  0  0  0  0  0  0
   -4.1907    4.7976    2.5694 Se  0  0  0  0  0  2  0  0  0  0  0  0
   -2.8223   -3.2245    4.2618 C   0  0  0  0  0  0  0  0  0  0  0  0
   -1.7065   -3.8856    4.7417 C   0  0  0  0  0  0  0  0  0  0  0  0
   -0.7486   -2.8778    5.8092 S   0  0  0  0  0  0  0  0  0  0  0  0
   -1.2390   -5.1772    4.3757 C   0  0  0  0  0  0  0  0  0  0  0  0
   -1.9771   -6.2836    3.9678 C   0  0  0  0  0  0  0  0  0  0  0  0
   -3.3508   -6.4058    4.0413 N   0  0  0  0  0  0  0  0  0  0  0  0
   -3.9765   -7.2720    3.1207 C   0  0  0  0  0  0  0  0  0  0  0  0
   -3.6831   -7.1685    1.7640 C   0  0  0  0  0  0  0  0  0  0  0  0
   -4.2326   -8.0619    0.8666 C   0  0  0  0  0  0  0  0  0  0  0  0
   -5.0877   -9.0695    1.2942 C   0  0  0  0  0  0  0  0  0  0  0  0
   -5.6213  -10.0755    0.3223 C   0  0  0  0  0  0  0  0  0  0  0  0
   -5.4027   -9.1416    2.6454 C   0  0  0  0  0  0  0  0  0  0  0  0
   -4.8569   -8.2571    3.5537 C   0  0  0  0  0  0  0  0  0  0  0  0
   -4.0959   -5.8344    5.0788 C   0  0  0  0  0  0  0  0  0  0  0  0
   -3.5434   -5.6036    6.3365 C   0  0  0  0  0  0  0  0  0  0  0  0
   -4.2892   -4.9931    7.3246 C   0  0  0  0  0  0  0  0  0  0  0  0
   -5.6083   -4.6188    7.1042 C   0  0  0  0  0  0  0  0  0  0  0  0
   -6.4035   -3.9223    8.1647 C   0  0  0  0  0  0  0  0  0  0  0  0
   -6.1666   -4.8907    5.8618 C   0  0  0  0  0  0  0  0  0  0  0  0
   -5.4245   -5.4761    4.8569 C   0  0  0  0  0  0  0  0  0  0  0  0
   -1.1272   -7.3072    3.4831 C   0  0  0  0  0  0  0  0  0  0  0  0
   -1.4155   -8.8746    2.8165 S   0  0  0  0  0  0  0  0  0  0  0  0
    0.3194   -9.0985    2.5660 C   0  0  0  0  0  0  0  0  0  0  0  0
    1.0750   -8.0212    3.1028 C   0  0  0  0  0  0  0  0  0  0  0  0
    2.4408   -7.9417    3.1406 N   0  0  0  0  0  0  0  0  0  0  0  0
    3.0408   -6.6670    3.0775 C   0  0  0  0  0  0  0  0  0  0  0  0
    2.6312   -5.7523    2.1127 C   0  0  0  0  0  0  0  0  0  0  0  0
    3.1996   -4.4941    2.0646 C   0  0  0  0  0  0  0  0  0  0  0  0
    4.1896   -4.1218    2.9638 C   0  0  0  0  0  0  0  0  0  0  0  0
    4.8015   -2.7551    2.9282 C   0  0  0  0  0  0  0  0  0  0  0  0
    4.6054   -5.0508    3.9126 C   0  0  0  0  0  0  0  0  0  0  0  0
    4.0420   -6.3084    3.9754 C   0  0  0  0  0  0  0  0  0  0  0  0
    3.2633   -9.0605    3.3636 C   0  0  0  0  0  0  0  0  0  0  0  0
    4.5198   -9.1259    2.7662 C   0  0  0  0  0  0  0  0  0  0  0  0
    5.3319  -10.2199    2.9857 C   0  0  0  0  0  0  0  0  0  0  0  0
    4.9164  -11.2745    3.7901 C   0  0  0  0  0  0  0  0  0  0  0  0
    5.7958  -12.4715    3.9816 C   0  0  0  0  0  0  0  0  0  0  0  0
    3.6678  -11.1914    4.3952 C   0  0  0  0  0  0  0  0  0  0  0  0
    2.8501  -10.0969    4.1971 C   0  0  0  0  0  0  0  0  0  0  0  0
    0.2272   -7.0064    3.5735 C   0  0  0  0  0  0  0  0  0  0  0  0
    0.4954   -5.4479    4.2860 S   0  0  0  0  0  0  0  0  0  0  0  0
    0.8768  -10.1071    1.7867 C   0  0  0  0  0  0  0  0  0  0  0  0
    0.2786  -11.1715    1.1444 C   0  0  0  0  0  0  0  0  0  0  0  0
   -1.1150  -11.5941    1.2780 C   0  0  0  0  0  0  0  0  0  0  0  0
   -2.0021  -11.0671    1.9305 O   0  0  0  0  0  0  0  0  0  0  0  0
   -1.2541  -12.8243    0.4766 C   0  0  0  0  0  0  0  0  0  0  0  0
   -2.4099  -13.5766    0.2888 C   0  0  0  0  0  0  0  0  0  0  0  0
   -2.2391  -14.6695   -0.5271 C   0  0  0  0  0  0  0  0  0  0  0  0
   -1.0079  -14.9889   -1.1121 C   0  0  0  0  0  0  0  0  0  0  0  0
    0.1407  -14.2534   -0.9335 C   0  0  0  0  0  0  0  0  0  0  0  0
   -0.0110  -13.1385   -0.1059 C   0  0  0  0  0  0  0  0  0  0  0  0
    0.9556  -12.1098    0.2846 C   0  0  0  0  0  0  0  0  0  0  0  0
    2.2615  -12.0518   -0.1447 C   0  0  0  0  0  0  0  0  0  0  0  0
    3.1546  -10.9880    0.0815 C   0  0  0  0  0  0  0  0  0  0  0  0
    3.9358  -10.1482    0.1720 N   0  0  0  0  0  0  0  0  0  0  0  0
    2.8924  -13.0460   -0.9174 C   0  0  0  0  0  0  0  0  0  0  0  0
    3.4867  -13.8189   -1.5260 N   0  0  0  0  0  0  0  0  0  0  0  0
   -1.5627  -16.2092   -1.8042 C   0  0  0  0  0  0  0  0  0  0  0  0
   -1.2413  -17.5960   -1.1951 C   0  0  0  0  0  0  0  0  0  0  0  0
   -1.0041  -17.3719    0.2776 C   0  0  0  0  0  0  0  0  0  0  0  0
   -2.1695  -17.0694    0.8339 C   0  0  0  0  0  0  0  0  0  0  0  0
   -3.2158  -17.0838   -0.2528 C   0  0  0  0  0  0  0  0  0  0  0  0
   -2.6558  -18.1961   -1.1536 C   0  0  0  0  0  0  0  0  0  0  0  0
   -2.9353  -15.8536   -1.1507 C   0  0  0  0  0  0  0  0  0  0  0  0
    4.4657    7.9762   -6.2622 H   0  0  0  0  0  0  0  0  0  0  0  0
    1.3562    3.4091   -9.2042 H   0  0  0  0  0  0  0  0  0  0  0  0
    5.9300    5.0684  -10.6118 H   0  0  0  0  0  0  0  0  0  0  0  0
    5.3864    1.9021  -11.8026 H   0  0  0  0  0  0  0  0  0  0  0  0
    5.0804    3.6301  -13.8067 H   0  0  0  0  0  0  0  0  0  0  0  0
    4.8061    1.1952  -14.7560 H   0  0  0  0  0  0  0  0  0  0  0  0
    2.4096    0.2957  -14.0458 H   0  0  0  0  0  0  0  0  0  0  0  0
    1.2076    2.1769  -12.6601 H   0  0  0  0  0  0  0  0  0  0  0  0
    2.4939    3.7483  -14.3572 H   0  0  0  0  0  0  0  0  0  0  0  0
    2.7437    4.3807  -12.7135 H   0  0  0  0  0  0  0  0  0  0  0  0
    3.0388    1.0202  -11.1070 H   0  0  0  0  0  0  0  0  0  0  0  0
    6.5475    9.7746   -4.3847 H   0  0  0  0  0  0  0  0  0  0  0  0
    8.5651    8.8376   -5.4174 H   0  0  0  0  0  0  0  0  0  0  0  0
    8.9695    6.4659   -7.1978 H   0  0  0  0  0  0  0  0  0  0  0  0
    9.9603    6.7472   -5.7714 H   0  0  0  0  0  0  0  0  0  0  0  0
    9.1303    5.1966   -5.9830 H   0  0  0  0  0  0  0  0  0  0  0  0
    6.8596    4.9326   -5.2246 H   0  0  0  0  0  0  0  0  0  0  0  0
    4.8537    5.8574   -4.1558 H   0  0  0  0  0  0  0  0  0  0  0  0
    6.1718    8.5491   -1.7220 H   0  0  0  0  0  0  0  0  0  0  0  0
    6.3701   10.3275   -0.0402 H   0  0  0  0  0  0  0  0  0  0  0  0
    4.7557   13.5322   -0.2181 H   0  0  0  0  0  0  0  0  0  0  0  0
    5.7585   12.4805    0.7916 H   0  0  0  0  0  0  0  0  0  0  0  0
    4.0006   12.4589    0.9544 H   0  0  0  0  0  0  0  0  0  0  0  0
    3.0610   12.3667   -1.7966 H   0  0  0  0  0  0  0  0  0  0  0  0
    2.8708   10.6007   -3.4931 H   0  0  0  0  0  0  0  0  0  0  0  0
   -3.9076    5.9310   -2.8941 H   0  0  0  0  0  0  0  0  0  0  0  0
   -5.9219    7.2905   -2.5752 H   0  0  0  0  0  0  0  0  0  0  0  0
   -5.8829   11.0227   -2.1998 H   0  0  0  0  0  0  0  0  0  0  0  0
   -6.8425    9.7564   -2.9769 H   0  0  0  0  0  0  0  0  0  0  0  0
   -6.5621    9.7045   -1.2402 H   0  0  0  0  0  0  0  0  0  0  0  0
   -3.5179   10.8011   -2.3002 H   0  0  0  0  0  0  0  0  0  0  0  0
   -1.5047    9.4577   -2.6509 H   0  0  0  0  0  0  0  0  0  0  0  0
   -0.0210    4.6517   -2.5258 H   0  0  0  0  0  0  0  0  0  0  0  0
    0.1035    2.6556   -3.9569 H   0  0  0  0  0  0  0  0  0  0  0  0
   -2.0651    2.0696   -6.9032 H   0  0  0  0  0  0  0  0  0  0  0  0
   -0.9846    1.2959   -5.7314 H   0  0  0  0  0  0  0  0  0  0  0  0
   -0.3249    2.3432   -6.9860 H   0  0  0  0  0  0  0  0  0  0  0  0
   -2.6887    4.4199   -6.6548 H   0  0  0  0  0  0  0  0  0  0  0  0
   -2.8061    6.4196   -5.2373 H   0  0  0  0  0  0  0  0  0  0  0  0
    1.3591    7.3886    1.1807 H   0  0  0  0  0  0  0  0  0  0  0  0
   -0.2565    4.1106    1.4455 H   0  0  0  0  0  0  0  0  0  0  0  0
    0.9776    1.9995    1.3860 H   0  0  0  0  0  0  0  0  0  0  0  0
    3.5428    1.0118    3.8931 H   0  0  0  0  0  0  0  0  0  0  0  0
    2.9955    0.7410    2.2325 H   0  0  0  0  0  0  0  0  0  0  0  0
    2.1711   -1.0775    3.7034 H   0  0  0  0  0  0  0  0  0  0  0  0
    0.8112   -0.1171    3.1118 H   0  0  0  0  0  0  0  0  0  0  0  0
    1.3950    0.1070    4.7601 H   0  0  0  0  0  0  0  0  0  0  0  0
    2.8415    2.9863    5.0912 H   0  0  0  0  0  0  0  0  0  0  0  0
    1.6292    5.1064    5.1437 H   0  0  0  0  0  0  0  0  0  0  0  0
   -1.6941    6.8760    5.5928 H   0  0  0  0  0  0  0  0  0  0  0  0
   -0.9600    8.5446    7.2290 H   0  0  0  0  0  0  0  0  0  0  0  0
    2.4484    9.9024    7.4114 H   0  0  0  0  0  0  0  0  0  0  0  0
    0.8910    9.7732    8.2417 H   0  0  0  0  0  0  0  0  0  0  0  0
    1.4506   11.5305    5.8029 H   0  0  0  0  0  0  0  0  0  0  0  0
   -0.0988   11.4044    6.6347 H   0  0  0  0  0  0  0  0  0  0  0  0
    1.2947   12.1022    7.4679 H   0  0  0  0  0  0  0  0  0  0  0  0
    2.7232    8.9954    5.1280 H   0  0  0  0  0  0  0  0  0  0  0  0
    1.9955    7.3176    3.4945 H   0  0  0  0  0  0  0  0  0  0  0  0
   -0.5448    4.0614    5.8032 H   0  0  0  0  0  0  0  0  0  0  0  0
   -1.5088   -0.5939    2.9327 H   0  0  0  0  0  0  0  0  0  0  0  0
   -1.1819    0.4232    0.7300 H   0  0  0  0  0  0  0  0  0  0  0  0
   -3.9124    1.5450   -1.4728 H   0  0  0  0  0  0  0  0  0  0  0  0
   -2.1830    1.1879   -1.3753 H   0  0  0  0  0  0  0  0  0  0  0  0
   -2.5218    3.6211   -1.5846 H   0  0  0  0  0  0  0  0  0  0  0  0
   -1.8597    3.2518    0.0121 H   0  0  0  0  0  0  0  0  0  0  0  0
   -3.5733    3.6260   -0.1617 H   0  0  0  0  0  0  0  0  0  0  0  0
   -5.3468    1.3034    0.5201 H   0  0  0  0  0  0  0  0  0  0  0  0
   -5.6812    0.2812    2.7110 H   0  0  0  0  0  0  0  0  0  0  0  0
   -5.5531   -2.3102    3.2531 H   0  0  0  0  0  0  0  0  0  0  0  0
   -7.8583   -2.7788    3.9394 H   0  0  0  0  0  0  0  0  0  0  0  0
   -9.4933   -2.8000    5.7840 H   0  0  0  0  0  0  0  0  0  0  0  0
   -9.3051   -1.7031    7.1598 H   0  0  0  0  0  0  0  0  0  0  0  0
   -9.8990    0.2285    5.6954 H   0  0  0  0  0  0  0  0  0  0  0  0
  -10.0852   -0.8651    4.3245 H   0  0  0  0  0  0  0  0  0  0  0  0
  -11.1852   -0.9830    5.7023 H   0  0  0  0  0  0  0  0  0  0  0  0
   -7.3898   -0.1793    7.2877 H   0  0  0  0  0  0  0  0  0  0  0  0
   -5.0933    0.3141    6.5860 H   0  0  0  0  0  0  0  0  0  0  0  0
   -4.7930    2.1511    4.0174 H   0  0  0  0  0  0  0  0  0  0  0  0
   -3.5061   -3.6719    3.5655 H   0  0  0  0  0  0  0  0  0  0  0  0
   -3.0107   -6.3937    1.4236 H   0  0  0  0  0  0  0  0  0  0  0  0
   -3.9856   -7.9816   -0.1823 H   0  0  0  0  0  0  0  0  0  0  0  0
   -4.8661  -10.8427    0.1492 H   0  0  0  0  0  0  0  0  0  0  0  0
   -5.8523   -9.6109   -0.6343 H   0  0  0  0  0  0  0  0  0  0  0  0
   -6.5159  -10.5579    0.7084 H   0  0  0  0  0  0  0  0  0  0  0  0
   -6.0692   -9.9158    2.9968 H   0  0  0  0  0  0  0  0  0  0  0  0
   -5.0924   -8.3342    4.6051 H   0  0  0  0  0  0  0  0  0  0  0  0
   -2.5292   -5.9103    6.5437 H   0  0  0  0  0  0  0  0  0  0  0  0
   -3.8371   -4.8122    8.2893 H   0  0  0  0  0  0  0  0  0  0  0  0
   -7.4528   -4.2039    8.1100 H   0  0  0  0  0  0  0  0  0  0  0  0
   -6.3387   -2.8430    8.0208 H   0  0  0  0  0  0  0  0  0  0  0  0
   -6.0235   -4.1585    9.1558 H   0  0  0  0  0  0  0  0  0  0  0  0
   -7.1970   -4.6281    5.6764 H   0  0  0  0  0  0  0  0  0  0  0  0
   -5.8701   -5.6617    3.8903 H   0  0  0  0  0  0  0  0  0  0  0  0
    1.8680   -6.0346    1.4021 H   0  0  0  0  0  0  0  0  0  0  0  0
    2.8684   -3.7932    1.3121 H   0  0  0  0  0  0  0  0  0  0  0  0
    4.4284   -2.1816    2.0836 H   0  0  0  0  0  0  0  0  0  0  0  0
    4.5683   -2.2142    3.8451 H   0  0  0  0  0  0  0  0  0  0  0  0
    5.8855   -2.8245    2.8520 H   0  0  0  0  0  0  0  0  0  0  0  0
    5.3763   -4.7786    4.6187 H   0  0  0  0  0  0  0  0  0  0  0  0
    4.3658   -7.0175    4.7228 H   0  0  0  0  0  0  0  0  0  0  0  0
    4.8470   -8.3257    2.1215 H   0  0  0  0  0  0  0  0  0  0  0  0
    6.2981  -10.2645    2.5064 H   0  0  0  0  0  0  0  0  0  0  0  0
    5.4035  -13.1258    4.7561 H   0  0  0  0  0  0  0  0  0  0  0  0
    6.8044  -12.1668    4.2554 H   0  0  0  0  0  0  0  0  0  0  0  0
    5.8616  -13.0375    3.0523 H   0  0  0  0  0  0  0  0  0  0  0  0
    3.3307  -11.9917    5.0383 H   0  0  0  0  0  0  0  0  0  0  0  0
    1.8857  -10.0442    4.6809 H   0  0  0  0  0  0  0  0  0  0  0  0
    1.9458  -10.0140    1.6443 H   0  0  0  0  0  0  0  0  0  0  0  0
   -3.3389  -13.2918    0.7583 H   0  0  0  0  0  0  0  0  0  0  0  0
    1.0791  -14.5128   -1.3943 H   0  0  0  0  0  0  0  0  0  0  0  0
   -1.5012  -16.2096   -2.8909 H   0  0  0  0  0  0  0  0  0  0  0  0
   -0.4749  -18.1552   -1.7251 H   0  0  0  0  0  0  0  0  0  0  0  0
   -0.0339  -17.3972    0.7382 H   0  0  0  0  0  0  0  0  0  0  0  0
   -2.3675  -16.7912    1.8525 H   0  0  0  0  0  0  0  0  0  0  0  0
   -4.2479  -17.1778    0.0755 H   0  0  0  0  0  0  0  0  0  0  0  0
   -3.1348  -18.2454   -2.1307 H   0  0  0  0  0  0  0  0  0  0  0  0
   -2.6842  -19.1765   -0.6802 H   0  0  0  0  0  0  0  0  0  0  0  0
   -3.7693  -15.6244   -1.8117 H   0  0  0  0  0  0  0  0  0  0  0  0
  1  2  2  0  0  0  0
  2  3  1  0  0  0  0
  3  4  2  0  0  0  0
  3  5  1  0  0  0  0
  5  6  2  0  0  0  0
  6  7  1  0  0  0  0
  7  8  2  0  0  0  0
  8  9  1  0  0  0  0
  9 10  2  0  0  0  0
 10 11  1  0  0  0  0
 11 12  2  0  0  0  0
 12 13  1  0  0  0  0
 13 14  3  0  0  0  0
 12 15  1  0  0  0  0
 15 16  3  0  0  0  0
  8 17  1  0  0  0  0
 17 18  1  0  0  0  0
 18 19  1  0  0  0  0
 19 20  2  0  0  0  0
 20 21  1  0  0  0  0
 21 22  1  0  0  0  0
 21 23  1  0  0  0  0
  1 24  1  0  0  0  0
 24 25  2  0  0  0  0
 25 26  1  0  0  0  0
 26 27  1  0  0  0  0
 27 28  2  0  0  0  0
 28 29  1  0  0  0  0
 29 30  2  0  0  0  0
 30 31  1  0  0  0  0
 30 32  1  0  0  0  0
 32 33  2  0  0  0  0
 26 34  1  0  0  0  0
 34 35  2  0  0  0  0
 35 36  1  0  0  0  0
 36 37  2  0  0  0  0
 37 38  1  0  0  0  0
 37 39  1  0  0  0  0
 39 40  2  0  0  0  0
 25 41  1  0  0  0  0
 41 42  1  0  0  0  0
 42 43  1  0  0  0  0
 43 44  2  0  0  0  0
 44 45  1  0  0  0  0
 45 46  1  0  0  0  0
 46 47  2  0  0  0  0
 47 48  1  0  0  0  0
 48 49  2  0  0  0  0
 49 50  1  0  0  0  0
 49 51  1  0  0  0  0
 51 52  2  0  0  0  0
 45 53  1  0  0  0  0
 53 54  2  0  0  0  0
 54 55  1  0  0  0  0
 55 56  2  0  0  0  0
 56 57  1  0  0  0  0
 56 58  1  0  0  0  0
 58 59  2  0  0  0  0
 44 60  1  0  0  0  0
 60 61  1  0  0  0  0
 43 62  1  0  0  0  0
 62 63  1  0  0  0  0
 63 64  1  0  0  0  0
 64 65  1  0  0  0  0
 65 66  2  0  0  0  0
 66 67  1  0  0  0  0
 67 68  1  0  0  0  0
 68 69  1  0  0  0  0
 67 70  1  0  0  0  0
 70 71  2  0  0  0  0
 71 72  1  0  0  0  0
 72 73  2  0  0  0  0
 73 74  1  0  0  0  0
 74 75  1  0  0  0  0
 73 76  1  0  0  0  0
 76 77  2  0  0  0  0
 67 78  1  0  0  0  0
 78 79  2  0  0  0  0
 79 80  1  0  0  0  0
 80 81  2  0  0  0  0
 81 82  1  0  0  0  0
 82 83  1  0  0  0  0
 81 84  1  0  0  0  0
 84 85  2  0  0  0  0
 66 86  1  0  0  0  0
 86 87  2  0  0  0  0
 87 88  1  0  0  0  0
 88 89  1  0  0  0  0
 89 90  1  0  0  0  0
 90 91  1  0  0  0  0
 91 92  2  0  0  0  0
 92 93  1  0  0  0  0
 93 94  1  0  0  0  0
 94 95  2  0  0  0  0
 95 96  1  0  0  0  0
 96 97  2  0  0  0  0
 97 98  1  0  0  0  0
 98 99  1  0  0  0  0
 97100  1  0  0  0  0
100101  2  0  0  0  0
 93102  1  0  0  0  0
102103  2  0  0  0  0
103104  1  0  0  0  0
104105  2  0  0  0  0
105106  1  0  0  0  0
106107  1  0  0  0  0
105108  1  0  0  0  0
108109  2  0  0  0  0
 93110  1  0  0  0  0
110111  1  0  0  0  0
111112  1  0  0  0  0
112113  2  0  0  0  0
113114  1  0  0  0  0
 92115  1  0  0  0  0
115116  2  0  0  0  0
116117  1  0  0  0  0
116118  1  0  0  0  0
118119  2  0  0  0  0
119120  1  0  0  0  0
120121  1  0  0  0  0
121122  2  0  0  0  0
122123  1  0  0  0  0
123124  2  0  0  0  0
124125  1  0  0  0  0
124126  1  0  0  0  0
126127  2  0  0  0  0
120128  1  0  0  0  0
128129  2  0  0  0  0
129130  1  0  0  0  0
130131  2  0  0  0  0
131132  1  0  0  0  0
131133  1  0  0  0  0
133134  2  0  0  0  0
119135  1  0  0  0  0
135136  1  0  0  0  0
136137  1  0  0  0  0
137138  2  0  0  0  0
138139  1  0  0  0  0
139140  1  0  0  0  0
140141  2  0  0  0  0
141142  1  0  0  0  0
142143  2  0  0  0  0
143144  1  0  0  0  0
143145  1  0  0  0  0
145146  2  0  0  0  0
139147  1  0  0  0  0
147148  2  0  0  0  0
148149  1  0  0  0  0
149150  2  0  0  0  0
150151  1  0  0  0  0
150152  1  0  0  0  0
152153  2  0  0  0  0
138154  1  0  0  0  0
154155  1  0  0  0  0
137156  1  0  0  0  0
156157  2  0  0  0  0
157158  1  0  0  0  0
158159  2  0  0  0  0
158160  1  0  0  0  0
160161  2  0  0  0  0
161162  1  0  0  0  0
162163  2  0  0  0  0
163164  1  0  0  0  0
164165  2  0  0  0  0
165166  1  0  0  0  0
166167  2  0  0  0  0
167168  1  0  0  0  0
168169  3  0  0  0  0
167170  1  0  0  0  0
170171  3  0  0  0  0
163172  1  0  0  0  0
172173  1  0  0  0  0
173174  1  0  0  0  0
174175  2  0  0  0  0
175176  1  0  0  0  0
176177  1  0  0  0  0
176178  1  0  0  0  0
 11  2  1  0  0  0  0
 23 17  1  0  0  0  0
 61 24  1  0  0  0  0
 69 62  2  0  0  0  0
 77 70  1  0  0  0  0
 85 78  1  0  0  0  0
113 86  1  0  0  0  0
155118  1  0  0  0  0
166157  1  0  0  0  0
178172  1  0  0  0  0
 10  5  1  0  0  0  0
 22 18  1  0  0  0  0
 33 27  1  0  0  0  0
 40 34  1  0  0  0  0
 60 41  2  0  0  0  0
 68 64  2  0  0  0  0
111 88  2  0  0  0  0
127121  1  0  0  0  0
134128  1  0  0  0  0
154135  2  0  0  0  0
165160  1  0  0  0  0
177173  1  0  0  0  0
 23  7  1  0  0  0  0
 52 46  1  0  0  0  0
 59 53  1  0  0  0  0
114 65  1  0  0  0  0
146140  1  0  0  0  0
153147  1  0  0  0  0
178162  1  0  0  0  0
110 90  2  0  0  0  0
117 91  1  0  0  0  0
101 94  1  0  0  0  0
109102  1  0  0  0  0
  1179  1  0  0  0  0
  6180  1  0  0  0  0
  9181  1  0  0  0  0
 17182  1  0  0  0  0
 18183  1  0  0  0  0
 19184  1  0  0  0  0
 20185  1  0  0  0  0
 21186  1  0  0  0  0
 22187  1  0  0  0  0
 22188  1  0  0  0  0
 23189  1  0  0  0  0
 28190  1  0  0  0  0
 29191  1  0  0  0  0
 31192  1  0  0  0  0
 31193  1  0  0  0  0
 31194  1  0  0  0  0
 32195  1  0  0  0  0
 33196  1  0  0  0  0
 35197  1  0  0  0  0
 36198  1  0  0  0  0
 38199  1  0  0  0  0
 38200  1  0  0  0  0
 38201  1  0  0  0  0
 39202  1  0  0  0  0
 40203  1  0  0  0  0
 47204  1  0  0  0  0
 48205  1  0  0  0  0
 50206  1  0  0  0  0
 50207  1  0  0  0  0
 50208  1  0  0  0  0
 51209  1  0  0  0  0
 52210  1  0  0  0  0
 54211  1  0  0  0  0
 55212  1  0  0  0  0
 57213  1  0  0  0  0
 57214  1  0  0  0  0
 57215  1  0  0  0  0
 58216  1  0  0  0  0
 59217  1  0  0  0  0
 69218  1  0  0  0  0
 71219  1  0  0  0  0
 72220  1  0  0  0  0
 74221  1  0  0  0  0
 74222  1  0  0  0  0
 75223  1  0  0  0  0
 75224  1  0  0  0  0
 75225  1  0  0  0  0
 76226  1  0  0  0  0
 77227  1  0  0  0  0
 79228  1  0  0  0  0
 80229  1  0  0  0  0
 82230  1  0  0  0  0
 82231  1  0  0  0  0
 83232  1  0  0  0  0
 83233  1  0  0  0  0
 83234  1  0  0  0  0
 84235  1  0  0  0  0
 85236  1  0  0  0  0
 87237  1  0  0  0  0
 95238  1  0  0  0  0
 96239  1  0  0  0  0
 98240  1  0  0  0  0
 98241  1  0  0  0  0
 99242  1  0  0  0  0
 99243  1  0  0  0  0
 99244  1  0  0  0  0
100245  1  0  0  0  0
101246  1  0  0  0  0
103247  1  0  0  0  0
104248  1  0  0  0  0
106249  1  0  0  0  0
106250  1  0  0  0  0
107251  1  0  0  0  0
107252  1  0  0  0  0
107253  1  0  0  0  0
108254  1  0  0  0  0
109255  1  0  0  0  0
112256  1  0  0  0  0
115257  1  0  0  0  0
122258  1  0  0  0  0
123259  1  0  0  0  0
125260  1  0  0  0  0
125261  1  0  0  0  0
125262  1  0  0  0  0
126263  1  0  0  0  0
127264  1  0  0  0  0
129265  1  0  0  0  0
130266  1  0  0  0  0
132267  1  0  0  0  0
132268  1  0  0  0  0
132269  1  0  0  0  0
133270  1  0  0  0  0
134271  1  0  0  0  0
141272  1  0  0  0  0
142273  1  0  0  0  0
144274  1  0  0  0  0
144275  1  0  0  0  0
144276  1  0  0  0  0
145277  1  0  0  0  0
146278  1  0  0  0  0
148279  1  0  0  0  0
149280  1  0  0  0  0
151281  1  0  0  0  0
151282  1  0  0  0  0
151283  1  0  0  0  0
152284  1  0  0  0  0
153285  1  0  0  0  0
156286  1  0  0  0  0
161287  1  0  0  0  0
164288  1  0  0  0  0
172289  1  0  0  0  0
173290  1  0  0  0  0
174291  1  0  0  0  0
175292  1  0  0  0  0
176293  1  0  0  0  0
177294  1  0  0  0  0
177295  1  0  0  0  0
178296  1  0  0  0  0
M  END
