262

C          0.82810      -11.05440       -5.48110
C          1.46480      -11.00100       -6.70150
C          2.22810       -9.87380       -7.23930
O          2.58730       -8.86240       -6.65880
C          2.47650      -10.18560       -8.66010
C          3.13880       -9.39090       -9.59110
C          3.20000       -9.93690      -10.85100
C          2.64980      -11.18680      -11.15920
C          2.00330      -11.98670      -10.24590
C          1.92190      -11.44490       -8.96110
C          1.32680      -11.99150       -7.74100
C          0.75780      -13.23810       -7.62610
C          0.54130      -14.12000       -8.70200
N          0.30370      -14.88230       -9.52860
C          0.33320      -13.83350       -6.42350
N         -0.00270      -14.41270       -5.48830
C          3.06140      -11.10020      -12.60770
C          1.96830      -10.74680      -13.64650
C          0.91960       -9.94990      -12.91140
C          1.44120       -8.76570      -12.62020
C          2.85240       -8.74100      -13.15270
C          2.68470       -9.61740      -14.40410
C          3.67540       -9.70660      -12.26410
C          0.79890      -10.13610       -4.43430
C         -0.04780      -10.26410       -3.30250
N         -1.03870      -11.20080       -3.14940
C         -1.32090      -11.69930       -1.86510
C         -2.63580      -11.93280       -1.47020
C         -2.89820      -12.49390       -0.23800
C         -1.86830      -12.82700        0.63600
C         -2.17030      -13.50090        1.93870
C         -0.56330      -12.55500        0.24880
C         -0.28540      -12.00240       -0.98590
C         -1.82400      -11.63530       -4.23410
C         -2.20390      -10.74210       -5.23330
C         -2.93560      -11.18610       -6.31640
C         -3.32630      -12.51580       -6.42260
C         -4.08780      -13.01090       -7.61330
C         -2.98040      -13.38890       -5.39770
C         -2.23430      -12.96370       -4.31700
C          0.22470       -9.26340       -2.35790
S         -0.45970       -8.84080       -0.81920
C          0.57080       -7.41350       -0.74240
C          1.44350       -7.32870       -1.82190
N          2.42250       -6.36280       -1.98920
C          2.71640       -5.97350       -3.31070
C          4.02620       -5.94290       -3.77590
C          4.28070       -5.63540       -5.09750
C          3.24680       -5.35700       -5.98230
C          3.51980       -5.10650       -7.43250
C          1.94400       -5.35970       -5.50060
C          1.67630       -5.65950       -4.18050
C          3.22410       -5.93520       -0.92940
C          3.77900       -4.65670       -0.94970
C          4.53550       -4.20760        0.11490
C          4.75300       -5.00540        1.23040
C          5.54360       -4.51120        2.40330
C          4.21000       -6.28600        1.23730
C          3.46460       -6.75180        0.17480
C          1.22240       -8.37630       -2.74610
S          1.85300       -8.72510       -4.31450
C          0.34780       -6.44010        0.26970
C         -0.27170       -6.60960        1.49530
C         -0.57690       -7.90840        2.09700
C          0.40680       -8.88980        2.19170
C          0.11760      -10.09610        2.79630
C         -1.15010      -10.33880        3.29610
C         -2.14350       -9.37420        3.20380
C         -3.53930       -9.64900        3.68370
C         -4.45000       -9.97150        2.49740
C         -1.84190       -8.15620        2.61330
C         -0.51890       -5.37560        2.12480
S         -1.26770       -4.94450        3.64570
C         -0.96230       -3.27410        3.29610
C         -1.21030       -2.00280        3.83690
C         -1.94520       -1.62670        4.98110
C         -2.16020       -0.23300        5.23710
N         -2.90340       -0.02320        6.31240
S         -3.29610       -1.45970        6.94990
N         -2.53400       -2.40410        5.87650
C         -1.55810        0.71620        4.38470
C         -1.54270        2.11830        4.45290
S         -2.21020        3.40300        5.40520
C         -1.33750        4.55410        4.42060
C         -1.28140        5.96230        4.41020
C         -2.11320        6.82060        5.25680
C         -2.24290        6.57040        6.61870
C         -3.04520        7.38780        7.39270
C         -3.73110        8.44440        6.81960
C         -3.62980        8.69740        5.45690
C         -4.41810        9.79650        4.80440
C         -5.69170        9.23890        4.16670
C         -2.81840        7.87790        4.68890
C         -0.43770        6.42910        3.41760
S          0.26550        5.12950        2.46910
C         -0.57410        3.95600        3.41930
C         -0.70810        2.56130        3.42810
N         -0.22270        1.49530        2.72400
C         -0.75050        0.33810        3.27120
C         -0.64530       -1.04410        2.94350
N         -0.10990       -1.73620        1.87060
C         -0.29940       -3.07220        2.08620
C         -0.06060       -4.27160        1.40520
S          0.64650       -4.74320       -0.09660
C          0.49990       -1.32860        0.62830
C          2.02230       -1.46980        0.67440
C          0.74500        1.74150        1.68270
C          0.07600        2.19090        0.38260
C         -0.07330        7.80360        3.23680
C          0.00420        8.57790        2.09110
N         -0.19170        8.13180        0.78660
C          0.62870        7.13070        0.26340
C          0.15760        6.27420       -0.72980
C          0.96870        5.27390       -1.22600
C          2.26130        5.09150       -0.75000
C          3.14250        3.99900       -1.27670
C          2.72760        5.95320        0.23520
C          1.93070        6.96240        0.73590
C         -1.03230        8.90280       -0.03320
C         -0.73200        9.13010       -1.37300
C         -1.56900        9.90890       -2.14810
C         -2.70950       10.49400       -1.61350
C         -3.61850       11.33400       -2.45790
C         -2.99680       10.27040       -0.27220
C         -2.17820        9.48170        0.50870
C          0.23000        9.93820        2.41370
S          0.32500       11.39640        1.49640
C          0.45230       12.34360        2.96750
C          0.48170       11.54850        4.10620
N          0.79880       12.00700        5.39190
C         -0.21040       12.49630        6.23510
C          0.02770       13.61690        7.02630
C         -0.97010       14.11470        7.84170
C         -2.22400       13.51740        7.88530
C         -3.32810       14.07140        8.73000
C         -2.44740       12.39260        7.09870
C         -1.45810       11.88060        6.28140
C          2.05410       11.65350        5.89710
C          2.25930       11.46340        7.26260
C          3.51070       11.12930        7.73810
C          4.59000       10.95920        6.87880
C          5.93720       10.57030        7.40710
C          4.37530       11.13640        5.51870
C          3.13130       11.48190        5.02910
C          0.36260       10.18470        3.77110
S          0.25400        8.73460        4.69750
C          0.66490       13.74920        2.87510
C          0.09560       14.73460        3.61080
C          0.75430       16.08140        3.66670
O          1.71220       16.44020        3.02080
C         -0.00760       16.79590        4.67970
S          0.07950       18.31980        5.45380
C         -1.35860       17.95340        6.37000
C         -1.89120       18.94440        7.33820
C         -1.87010       16.72080        6.07550
C         -1.09510       16.04900        5.11320
C         -1.12040       14.78610        4.40210
C         -2.21690       13.96930        4.32960
C         -3.41190       14.27620        5.01410
N         -4.40850       14.52540        5.52670
C         -2.33960       12.81540        3.53530
N         -2.54560       11.87980        2.90130
H          0.22110      -11.93390       -5.31060
H          3.55550       -8.43620       -9.30960
H          1.58950      -12.94860      -10.49860
H          3.73280      -11.87990      -12.96190
H          1.60870      -11.59120      -14.22820
H         -0.04300      -10.33860      -12.63510
H          1.00100       -7.96730      -12.05180
H          3.29820       -7.75850      -13.28610
H          2.05560       -9.15340      -15.16240
H          3.63040       -9.92500      -14.84830
H          4.74830       -9.57710      -12.39380
H         -3.44560      -11.68270       -2.13930
H         -3.92250      -12.68650        0.04810
H         -2.94670      -12.96490        2.48170
H         -2.53260      -14.51320        1.75750
H         -1.28090      -13.56270        2.55990
H          0.25280      -12.80070        0.91190
H          0.73740      -11.82810       -1.28590
H         -1.91020       -9.70480       -5.16350
H         -3.21110      -10.48420       -7.09060
H         -4.96930      -13.56780       -7.30060
H         -3.46320      -13.68310       -8.20190
H         -4.40020      -12.18610       -8.24890
H         -3.27740      -14.42490       -5.45860
H         -1.94840      -13.66110       -3.54560
H          4.83680       -6.18170       -3.10300
H          5.30110       -5.63520       -5.45280
H          4.53940       -4.76150       -7.58760
H          3.38580       -6.03770       -7.98320
H          2.82860       -4.37190       -7.84070
H          1.12730       -5.13430       -6.17100
H          0.65940       -5.66750       -3.81450
H          3.60030       -4.01610       -1.80030
H          4.95440       -3.21170        0.08120
H          4.90320       -4.42440        3.28120
H          5.97950       -3.53700        2.19630
H          6.34470       -5.20790        2.64570
H          4.37990       -6.92950        2.08880
H          3.06750       -7.75600        0.19140
H          1.39700       -8.69040        1.80940
H          0.88620      -10.84990        2.88480
H         -1.36710      -11.28260        3.77330
H         -3.92910       -8.77480        4.20950
H         -3.53420      -10.49080        4.37890
H         -5.45310      -10.21510        2.84040
H         -4.50990       -9.12020        1.82360
H         -4.05460      -10.81480        1.93550
H         -2.60130       -7.39100        2.54340
H         -1.70480        5.74890        7.06670
H         -3.13770        7.19790        8.45190
H         -4.35720        9.07560        7.43430
H         -3.81520       10.28110        4.03280
H         -4.69080       10.55230        5.54380
H         -6.31780        8.76570        4.92050
H         -5.44500        8.49580        3.41180
H         -6.25770       10.03880        3.69530
H         -2.73860        8.05530        3.62540
H          0.11590       -1.99510       -0.15160
H          0.19190       -0.31860        0.37750
H          2.29790       -2.51840        0.75560
H          2.45800       -1.07100       -0.23750
H          2.44440       -0.94450        1.52910
H          1.36280        0.85920        1.54130
H          1.39670        2.55010        2.03160
H         -0.74180        1.52750        0.10730
H          0.80520        2.21130       -0.42160
H         -0.32860        3.19260        0.49960
H         -0.84980        6.39320       -1.09950
H          0.58480        4.61810       -1.99460
H          2.64920        3.44960       -2.07500
H          3.40140        3.30170       -0.47990
H          4.07100        4.41410       -1.66640
H          3.73320        5.83530        0.61240
H          2.31280        7.62830        1.49600
H          0.16430        8.70640       -1.80140
H         -1.31930       10.07670       -3.18620
H         -4.49470       10.75670       -2.75560
H         -3.11190       11.67110       -3.35900
H         -3.96510       12.20260       -1.90170
H         -3.87200       10.72120        0.17130
H         -2.42000        9.32620        1.54890
H          0.99860       14.08980        6.99280
H         -0.77220       14.98830        8.44680
H         -3.71310       13.30900        9.40510
H         -4.15070       14.39320        8.09040
H         -2.98490       14.91890        9.31830
H         -3.41270       11.90990        7.12910
H         -1.64740       10.99850        5.68780
H          1.43290       11.57030        7.94900
H          3.64950       10.98750        8.80040
H          5.97990        9.49220        7.56650
H          6.13390       11.05670        8.36010
H          6.72220       10.84000        6.70470
H          5.19620       11.01030        4.82730
H          2.99610       11.62730        3.96760
H          1.42770       14.07270        2.17180
H         -2.11970       19.88470        6.83790
H         -1.15730       19.15430        8.11590
H         -2.79770       18.56290        7.80130
H         -2.75290       16.32180        6.53880
