
  xtb     02082214323D
 energy: -428.384910330127 gnorm: 0.000408088088 xtb: 6.4.1 (unknown)
266294  0     0  0            999 V2000
    5.5327   -2.4757   11.1158 C   0  0  0  0  0  0  0  0  0  0  0  0
    4.5867   -2.6698   12.0993 C   0  0  0  0  0  0  0  0  0  0  0  0
    3.1603   -2.9230   11.8968 C   0  0  0  0  0  0  0  0  0  0  0  0
    2.5331   -2.9025   10.8501 O   0  0  0  0  0  0  0  0  0  0  0  0
    2.6016   -3.2295   13.2269 C   0  0  0  0  0  0  0  0  0  0  0  0
    1.2806   -3.5512   13.5269 C   0  0  0  0  0  0  0  0  0  0  0  0
    1.0536   -3.7904   14.8612 C   0  0  0  0  0  0  0  0  0  0  0  0
    2.0670   -3.7157   15.8245 C   0  0  0  0  0  0  0  0  0  0  0  0
    3.3755   -3.4013   15.5400 C   0  0  0  0  0  0  0  0  0  0  0  0
    3.6282   -3.1535   14.1880 C   0  0  0  0  0  0  0  0  0  0  0  0
    4.8692   -2.7736   13.5099 C   0  0  0  0  0  0  0  0  0  0  0  0
    6.0720   -2.5403   14.1350 C   0  0  0  0  0  0  0  0  0  0  0  0
    6.3120   -2.7484   15.5069 C   0  0  0  0  0  0  0  0  0  0  0  0
    6.5911   -2.9142   16.6094 N   0  0  0  0  0  0  0  0  0  0  0  0
    7.2314   -2.0313   13.5205 C   0  0  0  0  0  0  0  0  0  0  0  0
    8.2102   -1.5810   13.1172 N   0  0  0  0  0  0  0  0  0  0  0  0
    1.1291   -4.0637   16.9544 C   0  0  0  0  0  0  0  0  0  0  0  0
    0.6629   -2.8956   17.8488 C   0  0  0  0  0  0  0  0  0  0  0  0
   -0.5763   -3.4323   18.5279 C   0  0  0  0  0  0  0  0  0  0  0  0
   -1.5370   -3.5052   17.6155 C   0  0  0  0  0  0  0  0  0  0  0  0
   -0.9629   -3.0188   16.3044 C   0  0  0  0  0  0  0  0  0  0  0  0
    0.0157   -1.9570   16.8223 C   0  0  0  0  0  0  0  0  0  0  0  0
   -0.0013   -4.1484   15.8792 C   0  0  0  0  0  0  0  0  0  0  0  0
    5.3942   -2.3783    9.7344 C   0  0  0  0  0  0  0  0  0  0  0  0
    6.4937   -2.2148    8.8504 C   0  0  0  0  0  0  0  0  0  0  0  0
    7.8117   -2.3726    9.1785 N   0  0  0  0  0  0  0  0  0  0  0  0
    8.2510   -3.3206   10.1229 C   0  0  0  0  0  0  0  0  0  0  0  0
    7.6116   -4.5510   10.2539 C   0  0  0  0  0  0  0  0  0  0  0  0
    8.0433   -5.4558   11.2026 C   0  0  0  0  0  0  0  0  0  0  0  0
    9.1281   -5.1724   12.0247 C   0  0  0  0  0  0  0  0  0  0  0  0
    9.5743   -6.1366   13.0800 C   0  0  0  0  0  0  0  0  0  0  0  0
    9.7848   -3.9592   11.8564 C   0  0  0  0  0  0  0  0  0  0  0  0
    9.3548   -3.0375   10.9227 C   0  0  0  0  0  0  0  0  0  0  0  0
    8.7850   -1.6897    8.4208 C   0  0  0  0  0  0  0  0  0  0  0  0
    8.6487   -0.3255    8.1792 C   0  0  0  0  0  0  0  0  0  0  0  0
    9.6011    0.3417    7.4365 C   0  0  0  0  0  0  0  0  0  0  0  0
   10.7067   -0.3258    6.9208 C   0  0  0  0  0  0  0  0  0  0  0  0
   11.7414    0.4198    6.1360 C   0  0  0  0  0  0  0  0  0  0  0  0
   10.8346   -1.6859    7.1723 C   0  0  0  0  0  0  0  0  0  0  0  0
    9.8888   -2.3664    7.9133 C   0  0  0  0  0  0  0  0  0  0  0  0
    6.0498   -1.9075    7.5532 C   0  0  0  0  0  0  0  0  0  0  0  0
    6.8527   -1.6074    6.0446 S   0  0  0  0  0  0  0  0  0  0  0  0
    5.2999   -1.5577    5.2171 C   0  0  0  0  0  0  0  0  0  0  0  0
    4.2279   -1.7788    6.0722 C   0  0  0  0  0  0  0  0  0  0  0  0
    2.8958   -1.8969    5.7122 N   0  0  0  0  0  0  0  0  0  0  0  0
    1.9247   -1.5192    6.6594 C   0  0  0  0  0  0  0  0  0  0  0  0
    0.8344   -2.3419    6.9205 C   0  0  0  0  0  0  0  0  0  0  0  0
   -0.0842   -1.9846    7.8866 C   0  0  0  0  0  0  0  0  0  0  0  0
    0.0596   -0.8105    8.6148 C   0  0  0  0  0  0  0  0  0  0  0  0
   -0.9052   -0.4541    9.7032 C   0  0  0  0  0  0  0  0  0  0  0  0
    1.1404    0.0154    8.3318 C   0  0  0  0  0  0  0  0  0  0  0  0
    2.0625   -0.3267    7.3636 C   0  0  0  0  0  0  0  0  0  0  0  0
    2.5015   -2.4642    4.4978 C   0  0  0  0  0  0  0  0  0  0  0  0
    1.3463   -2.0182    3.8582 C   0  0  0  0  0  0  0  0  0  0  0  0
    1.0168   -2.4968    2.6052 C   0  0  0  0  0  0  0  0  0  0  0  0
    1.8312   -3.4063    1.9425 C   0  0  0  0  0  0  0  0  0  0  0  0
    1.5381   -3.8290    0.5358 C   0  0  0  0  0  0  0  0  0  0  0  0
    2.9458   -3.8963    2.6131 C   0  0  0  0  0  0  0  0  0  0  0  0
    3.2654   -3.4525    3.8792 C   0  0  0  0  0  0  0  0  0  0  0  0
    4.6696   -1.9447    7.4083 C   0  0  0  0  0  0  0  0  0  0  0  0
    3.8474   -2.3045    8.8831 S   0  0  0  0  0  0  0  0  0  0  0  0
    5.2626   -1.3453    3.8041 C   0  0  0  0  0  0  0  0  0  0  0  0
    6.0890   -1.8801    2.8369 C   0  0  0  0  0  0  0  0  0  0  0  0
    7.2424   -2.7497    3.0867 C   0  0  0  0  0  0  0  0  0  0  0  0
    7.1686   -3.8560    3.9268 C   0  0  0  0  0  0  0  0  0  0  0  0
    8.2877   -4.6354    4.1462 C   0  0  0  0  0  0  0  0  0  0  0  0
    9.4877   -4.3212    3.5343 C   0  0  0  0  0  0  0  0  0  0  0  0
    9.5777   -3.2302    2.6799 C   0  0  0  0  0  0  0  0  0  0  0  0
   10.8889   -2.8554    2.0519 C   0  0  0  0  0  0  0  0  0  0  0  0
   11.6689   -1.9278    2.9855 C   0  0  0  0  0  0  0  0  0  0  0  0
    8.4494   -2.4554    2.4613 C   0  0  0  0  0  0  0  0  0  0  0  0
    5.6738   -1.4991    1.5442 C   0  0  0  0  0  0  0  0  0  0  0  0
    6.2016   -1.9949   -0.0451 S   0  0  0  0  0  0  0  0  0  0  0  0
    4.8975   -1.0869   -0.7319 C   0  0  0  0  0  0  0  0  0  0  0  0
    4.3541   -0.7960   -1.9932 C   0  0  0  0  0  0  0  0  0  0  0  0
    4.7881   -1.1654   -3.2836 C   0  0  0  0  0  0  0  0  0  0  0  0
    4.0370   -0.7187   -4.4194 C   0  0  0  0  0  0  0  0  0  0  0  0
    4.5668   -1.1152   -5.5662 N   0  0  0  0  0  0  0  0  0  0  0  0
    5.8981   -1.9793   -5.2417 S   0  0  0  0  0  0  0  0  0  0  0  0
    5.8477   -1.8818   -3.6255 N   0  0  0  0  0  0  0  0  0  0  0  0
    2.8490    0.0109   -4.2037 C   0  0  0  0  0  0  0  0  0  0  0  0
    1.8552    0.4123   -5.1109 C   0  0  0  0  0  0  0  0  0  0  0  0
    1.4942    0.3124   -6.8038 S   0  0  0  0  0  0  0  0  0  0  0  0
   -0.0675    1.0303   -6.4872 C   0  0  0  0  0  0  0  0  0  0  0  0
   -1.1666    1.3234   -7.3211 C   0  0  0  0  0  0  0  0  0  0  0  0
   -1.1659    1.0402   -8.7607 C   0  0  0  0  0  0  0  0  0  0  0  0
   -2.0963    0.1740   -9.3242 C   0  0  0  0  0  0  0  0  0  0  0  0
   -2.0685   -0.0746  -10.6840 C   0  0  0  0  0  0  0  0  0  0  0  0
   -1.1088    0.5208  -11.4826 C   0  0  0  0  0  0  0  0  0  0  0  0
   -0.1477    1.3576  -10.9283 C   0  0  0  0  0  0  0  0  0  0  0  0
    0.8878    2.0222  -11.7894 C   0  0  0  0  0  0  0  0  0  0  0  0
    0.4109    3.4093  -12.2248 C   0  0  0  0  0  0  0  0  0  0  0  0
   -0.1861    1.6086   -9.5655 C   0  0  0  0  0  0  0  0  0  0  0  0
   -2.1853    1.9245   -6.6150 C   0  0  0  0  0  0  0  0  0  0  0  0
   -1.8229    2.0492   -4.8946 S   0  0  0  0  0  0  0  0  0  0  0  0
   -0.2666    1.3500   -5.1461 C   0  0  0  0  0  0  0  0  0  0  0  0
    0.8349    0.9911   -4.3579 C   0  0  0  0  0  0  0  0  0  0  0  0
    1.1625    0.9736   -3.0315 N   0  0  0  0  0  0  0  0  0  0  0  0
    2.4045    0.3778   -2.8985 C   0  0  0  0  0  0  0  0  0  0  0  0
    3.2128    0.0293   -1.7785 C   0  0  0  0  0  0  0  0  0  0  0  0
    3.1100    0.2644   -0.4156 N   0  0  0  0  0  0  0  0  0  0  0  0
    4.1115   -0.4272    0.2128 C   0  0  0  0  0  0  0  0  0  0  0  0
    4.5553   -0.6663    1.5214 C   0  0  0  0  0  0  0  0  0  0  0  0
    4.0358   -0.2837    3.1233 S   0  0  0  0  0  0  0  0  0  0  0  0
    2.3735    1.2601    0.3286 C   0  0  0  0  0  0  0  0  0  0  0  0
    1.2568    0.6473    1.1730 C   0  0  0  0  0  0  0  0  0  0  0  0
    0.1929    1.4658   -2.0839 C   0  0  0  0  0  0  0  0  0  0  0  0
    0.2070    2.9924   -2.0092 C   0  0  0  0  0  0  0  0  0  0  0  0
   -3.4212    2.4867   -7.0689 C   0  0  0  0  0  0  0  0  0  0  0  0
   -3.9593    3.7056   -6.6745 C   0  0  0  0  0  0  0  0  0  0  0  0
   -3.2918    4.6632   -5.9291 N   0  0  0  0  0  0  0  0  0  0  0  0
   -1.9119    4.8499   -6.0806 C   0  0  0  0  0  0  0  0  0  0  0  0
   -1.1255    5.1919   -4.9817 C   0  0  0  0  0  0  0  0  0  0  0  0
    0.2462    5.2873   -5.1084 C   0  0  0  0  0  0  0  0  0  0  0  0
    0.8753    5.0470   -6.3235 C   0  0  0  0  0  0  0  0  0  0  0  0
    2.3681    5.0727   -6.4426 C   0  0  0  0  0  0  0  0  0  0  0  0
    0.0802    4.7536   -7.4245 C   0  0  0  0  0  0  0  0  0  0  0  0
   -1.2919    4.6567   -7.3137 C   0  0  0  0  0  0  0  0  0  0  0  0
   -4.0252    5.4539   -5.0302 C   0  0  0  0  0  0  0  0  0  0  0  0
   -5.0383    4.8870   -4.2623 C   0  0  0  0  0  0  0  0  0  0  0  0
   -5.7722    5.6713   -3.3943 C   0  0  0  0  0  0  0  0  0  0  0  0
   -5.5117    7.0288   -3.2599 C   0  0  0  0  0  0  0  0  0  0  0  0
   -6.3248    7.8811   -2.3346 C   0  0  0  0  0  0  0  0  0  0  0  0
   -4.4910    7.5840   -4.0238 C   0  0  0  0  0  0  0  0  0  0  0  0
   -3.7567    6.8139   -4.9023 C   0  0  0  0  0  0  0  0  0  0  0  0
   -5.2643    3.8750   -7.1944 C   0  0  0  0  0  0  0  0  0  0  0  0
   -6.4506    5.1211   -7.0723 S   0  0  0  0  0  0  0  0  0  0  0  0
   -7.5806    4.1744   -8.0589 C   0  0  0  0  0  0  0  0  0  0  0  0
   -6.9796    3.0010   -8.5645 C   0  0  0  0  0  0  0  0  0  0  0  0
   -7.4710    2.1827   -9.5356 N   0  0  0  0  0  0  0  0  0  0  0  0
   -8.4631    2.5662  -10.4497 C   0  0  0  0  0  0  0  0  0  0  0  0
   -8.4752    3.8341  -11.0288 C   0  0  0  0  0  0  0  0  0  0  0  0
   -9.4890    4.1907  -11.8925 C   0  0  0  0  0  0  0  0  0  0  0  0
  -10.5173    3.3042  -12.2055 C   0  0  0  0  0  0  0  0  0  0  0  0
  -11.6415    3.7320  -13.0948 C   0  0  0  0  0  0  0  0  0  0  0  0
  -10.4714    2.0277  -11.6620 C   0  0  0  0  0  0  0  0  0  0  0  0
   -9.4576    1.6556  -10.7990 C   0  0  0  0  0  0  0  0  0  0  0  0
   -6.9299    0.8832   -9.6831 C   0  0  0  0  0  0  0  0  0  0  0  0
   -6.8957    0.0041   -8.6060 C   0  0  0  0  0  0  0  0  0  0  0  0
   -6.3373   -1.2493   -8.7629 C   0  0  0  0  0  0  0  0  0  0  0  0
   -5.8084   -1.6518   -9.9842 C   0  0  0  0  0  0  0  0  0  0  0  0
   -5.1594   -2.9938  -10.1293 C   0  0  0  0  0  0  0  0  0  0  0  0
   -5.8779   -0.7740  -11.0596 C   0  0  0  0  0  0  0  0  0  0  0  0
   -6.4344    0.4821  -10.9181 C   0  0  0  0  0  0  0  0  0  0  0  0
   -5.6917    2.8328   -8.0055 C   0  0  0  0  0  0  0  0  0  0  0  0
   -4.4742    1.6140   -8.1621 S   0  0  0  0  0  0  0  0  0  0  0  0
   -8.8723    4.6797   -8.2080 C   0  0  0  0  0  0  0  0  0  0  0  0
   -9.9955    3.9326   -8.5017 C   0  0  0  0  0  0  0  0  0  0  0  0
  -10.1366    2.5078   -8.1758 C   0  0  0  0  0  0  0  0  0  0  0  0
   -9.3142    1.7735   -7.6564 O   0  0  0  0  0  0  0  0  0  0  0  0
  -11.5439    2.1696   -8.4863 C   0  0  0  0  0  0  0  0  0  0  0  0
  -12.1769    0.9548   -8.3365 C   0  0  0  0  0  0  0  0  0  0  0  0
  -13.5199    0.8655   -8.7085 C   0  0  0  0  0  0  0  0  0  0  0  0
  -14.2691   -0.2599   -8.6263 O   0  0  0  0  0  0  0  0  0  0  0  0
  -13.6820   -1.4260   -8.0965 C   0  0  0  0  0  0  0  0  0  0  0  0
  -14.1757    1.9960   -9.2104 C   0  0  0  0  0  0  0  0  0  0  0  0
  -13.5323    3.2109   -9.3509 C   0  0  0  0  0  0  0  0  0  0  0  0
  -12.1971    3.3060   -8.9850 C   0  0  0  0  0  0  0  0  0  0  0  0
  -11.2467    4.4107   -9.0226 C   0  0  0  0  0  0  0  0  0  0  0  0
  -11.4606    5.6389   -9.6018 C   0  0  0  0  0  0  0  0  0  0  0  0
  -12.6707    6.0200  -10.2075 C   0  0  0  0  0  0  0  0  0  0  0  0
  -13.6286    6.3775  -10.7329 N   0  0  0  0  0  0  0  0  0  0  0  0
  -10.4716    6.6317   -9.7346 C   0  0  0  0  0  0  0  0  0  0  0  0
   -9.7068    7.4730   -9.9024 N   0  0  0  0  0  0  0  0  0  0  0  0
    6.5541   -2.3840   11.4618 H   0  0  0  0  0  0  0  0  0  0  0  0
    0.5327   -3.5999   12.7508 H   0  0  0  0  0  0  0  0  0  0  0  0
    4.1434   -3.3530   16.2937 H   0  0  0  0  0  0  0  0  0  0  0  0
    1.3780   -4.9596   17.5203 H   0  0  0  0  0  0  0  0  0  0  0  0
    1.4332   -2.4798   18.4926 H   0  0  0  0  0  0  0  0  0  0  0  0
   -0.6096   -3.7466   19.5546 H   0  0  0  0  0  0  0  0  0  0  0  0
   -2.5327   -3.8926   17.7278 H   0  0  0  0  0  0  0  0  0  0  0  0
   -1.6750   -2.7147   15.5416 H   0  0  0  0  0  0  0  0  0  0  0  0
   -0.4964   -1.1203   17.2950 H   0  0  0  0  0  0  0  0  0  0  0  0
    0.7048   -1.5831   16.0673 H   0  0  0  0  0  0  0  0  0  0  0  0
   -0.5046   -5.1018   15.7279 H   0  0  0  0  0  0  0  0  0  0  0  0
    6.7712   -4.7896    9.6185 H   0  0  0  0  0  0  0  0  0  0  0  0
    7.5307   -6.4020   11.3009 H   0  0  0  0  0  0  0  0  0  0  0  0
    9.3059   -5.7572   14.0664 H   0  0  0  0  0  0  0  0  0  0  0  0
    9.1044   -7.1079   12.9469 H   0  0  0  0  0  0  0  0  0  0  0  0
   10.6552   -6.2606   13.0562 H   0  0  0  0  0  0  0  0  0  0  0  0
   10.6321   -3.7215   12.4814 H   0  0  0  0  0  0  0  0  0  0  0  0
    9.8596   -2.0900   10.8196 H   0  0  0  0  0  0  0  0  0  0  0  0
    7.7987    0.2038    8.5842 H   0  0  0  0  0  0  0  0  0  0  0  0
    9.4892    1.4012    7.2581 H   0  0  0  0  0  0  0  0  0  0  0  0
   11.2705    1.0703    5.4015 H   0  0  0  0  0  0  0  0  0  0  0  0
   12.4108   -0.2647    5.6220 H   0  0  0  0  0  0  0  0  0  0  0  0
   12.3357    1.0460    6.8018 H   0  0  0  0  0  0  0  0  0  0  0  0
   11.6852   -2.2238    6.7799 H   0  0  0  0  0  0  0  0  0  0  0  0
    9.9955   -3.4251    8.0977 H   0  0  0  0  0  0  0  0  0  0  0  0
    0.7224   -3.2665    6.3734 H   0  0  0  0  0  0  0  0  0  0  0  0
   -0.9186   -2.6399    8.0906 H   0  0  0  0  0  0  0  0  0  0  0  0
   -0.4855   -0.7397   10.6681 H   0  0  0  0  0  0  0  0  0  0  0  0
   -1.0927    0.6177    9.7229 H   0  0  0  0  0  0  0  0  0  0  0  0
   -1.8500   -0.9769    9.5751 H   0  0  0  0  0  0  0  0  0  0  0  0
    1.2637    0.9380    8.8806 H   0  0  0  0  0  0  0  0  0  0  0  0
    2.9002    0.3223    7.1515 H   0  0  0  0  0  0  0  0  0  0  0  0
    0.7243   -1.2784    4.3400 H   0  0  0  0  0  0  0  0  0  0  0  0
    0.1183   -2.1368    2.1245 H   0  0  0  0  0  0  0  0  0  0  0  0
    2.1413   -3.2423   -0.1598 H   0  0  0  0  0  0  0  0  0  0  0  0
    0.4899   -3.6741    0.2907 H   0  0  0  0  0  0  0  0  0  0  0  0
    1.7852   -4.8775    0.3850 H   0  0  0  0  0  0  0  0  0  0  0  0
    3.5746   -4.6345    2.1365 H   0  0  0  0  0  0  0  0  0  0  0  0
    4.1183   -3.8635    4.3959 H   0  0  0  0  0  0  0  0  0  0  0  0
    6.2339   -4.1130    4.4007 H   0  0  0  0  0  0  0  0  0  0  0  0
    8.2229   -5.4936    4.7991 H   0  0  0  0  0  0  0  0  0  0  0  0
   10.3605   -4.9321    3.7148 H   0  0  0  0  0  0  0  0  0  0  0  0
   10.7137   -2.3496    1.1008 H   0  0  0  0  0  0  0  0  0  0  0  0
   11.4791   -3.7534    1.8589 H   0  0  0  0  0  0  0  0  0  0  0  0
   12.6190   -1.6446    2.5378 H   0  0  0  0  0  0  0  0  0  0  0  0
   11.0938   -1.0270    3.1872 H   0  0  0  0  0  0  0  0  0  0  0  0
   11.8623   -2.4262    3.9328 H   0  0  0  0  0  0  0  0  0  0  0  0
    8.5091   -1.5994    1.8044 H   0  0  0  0  0  0  0  0  0  0  0  0
   -2.8203   -0.3227   -8.6959 H   0  0  0  0  0  0  0  0  0  0  0  0
   -2.8005   -0.7385  -11.1191 H   0  0  0  0  0  0  0  0  0  0  0  0
   -1.0940    0.3233  -12.5450 H   0  0  0  0  0  0  0  0  0  0  0  0
    1.8216    2.1199  -11.2320 H   0  0  0  0  0  0  0  0  0  0  0  0
    1.0803    1.4132  -12.6746 H   0  0  0  0  0  0  0  0  0  0  0  0
    1.1590    3.8907  -12.8503 H   0  0  0  0  0  0  0  0  0  0  0  0
   -0.5158    3.3310  -12.7892 H   0  0  0  0  0  0  0  0  0  0  0  0
    0.2276    4.0380  -11.3561 H   0  0  0  0  0  0  0  0  0  0  0  0
    0.5526    2.2560   -9.1160 H   0  0  0  0  0  0  0  0  0  0  0  0
    3.0822    1.7541    1.0030 H   0  0  0  0  0  0  0  0  0  0  0  0
    1.9968    2.0133   -0.3592 H   0  0  0  0  0  0  0  0  0  0  0  0
    0.6338   -0.0230    0.5850 H   0  0  0  0  0  0  0  0  0  0  0  0
    0.6355    1.4348    1.5908 H   0  0  0  0  0  0  0  0  0  0  0  0
    1.6795    0.0699    1.9900 H   0  0  0  0  0  0  0  0  0  0  0  0
    0.3597    1.0112   -1.1137 H   0  0  0  0  0  0  0  0  0  0  0  0
   -0.7938    1.1466   -2.4372 H   0  0  0  0  0  0  0  0  0  0  0  0
    1.1985    3.3692   -1.7652 H   0  0  0  0  0  0  0  0  0  0  0  0
   -0.0863    3.4112   -2.9682 H   0  0  0  0  0  0  0  0  0  0  0  0
   -0.4951    3.3323   -1.2529 H   0  0  0  0  0  0  0  0  0  0  0  0
   -1.5977    5.3600   -4.0248 H   0  0  0  0  0  0  0  0  0  0  0  0
    0.8409    5.5402   -4.2418 H   0  0  0  0  0  0  0  0  0  0  0  0
    2.8122    5.6802   -5.6577 H   0  0  0  0  0  0  0  0  0  0  0  0
    2.6739    5.4661   -7.4096 H   0  0  0  0  0  0  0  0  0  0  0  0
    2.7644    4.0599   -6.3527 H   0  0  0  0  0  0  0  0  0  0  0  0
    0.5440    4.5990   -8.3880 H   0  0  0  0  0  0  0  0  0  0  0  0
   -1.8873    4.4233   -8.1843 H   0  0  0  0  0  0  0  0  0  0  0  0
   -5.2421    3.8293   -4.3455 H   0  0  0  0  0  0  0  0  0  0  0  0
   -6.5576    5.2179   -2.8070 H   0  0  0  0  0  0  0  0  0  0  0  0
   -6.7351    7.2890   -1.5199 H   0  0  0  0  0  0  0  0  0  0  0  0
   -5.7236    8.6868   -1.9193 H   0  0  0  0  0  0  0  0  0  0  0  0
   -7.1570    8.3292   -2.8785 H   0  0  0  0  0  0  0  0  0  0  0  0
   -4.2751    8.6390   -3.9368 H   0  0  0  0  0  0  0  0  0  0  0  0
   -2.9743    7.2602   -5.4983 H   0  0  0  0  0  0  0  0  0  0  0  0
   -7.6927    4.5408  -10.7964 H   0  0  0  0  0  0  0  0  0  0  0  0
   -9.4902    5.1803  -12.3256 H   0  0  0  0  0  0  0  0  0  0  0  0
  -11.2594    4.2169  -13.9913 H   0  0  0  0  0  0  0  0  0  0  0  0
  -12.2541    2.8825  -13.3850 H   0  0  0  0  0  0  0  0  0  0  0  0
  -12.2772    4.4511  -12.5773 H   0  0  0  0  0  0  0  0  0  0  0  0
  -11.2483    1.3166  -11.9027 H   0  0  0  0  0  0  0  0  0  0  0  0
   -9.4374    0.6625  -10.3754 H   0  0  0  0  0  0  0  0  0  0  0  0
   -7.3250    0.3134   -7.6658 H   0  0  0  0  0  0  0  0  0  0  0  0
   -6.3112   -1.9281   -7.9228 H   0  0  0  0  0  0  0  0  0  0  0  0
   -5.6566   -3.7353   -9.5080 H   0  0  0  0  0  0  0  0  0  0  0  0
   -5.1796   -3.3281  -11.1638 H   0  0  0  0  0  0  0  0  0  0  0  0
   -4.1172   -2.9367   -9.8121 H   0  0  0  0  0  0  0  0  0  0  0  0
   -5.4873   -1.0745  -12.0212 H   0  0  0  0  0  0  0  0  0  0  0  0
   -6.4793    1.1611  -11.7571 H   0  0  0  0  0  0  0  0  0  0  0  0
   -8.9879    5.7418   -8.0285 H   0  0  0  0  0  0  0  0  0  0  0  0
  -11.6225    0.1159   -7.9470 H   0  0  0  0  0  0  0  0  0  0  0  0
  -12.8435   -1.7678   -8.7111 H   0  0  0  0  0  0  0  0  0  0  0  0
  -14.4668   -2.1805   -8.1061 H   0  0  0  0  0  0  0  0  0  0  0  0
  -13.3407   -1.2709   -7.0685 H   0  0  0  0  0  0  0  0  0  0  0  0
  -15.2137    1.8919   -9.4843 H   0  0  0  0  0  0  0  0  0  0  0  0
  -14.0753    4.0609   -9.7307 H   0  0  0  0  0  0  0  0  0  0  0  0
  1  2  2  0  0  0  0
  2  3  1  0  0  0  0
  3  4  2  0  0  0  0
  3  5  1  0  0  0  0
  5  6  2  0  0  0  0
  6  7  1  0  0  0  0
  7  8  2  0  0  0  0
  8  9  1  0  0  0  0
  9 10  2  0  0  0  0
 10 11  1  0  0  0  0
 11 12  2  0  0  0  0
 12 13  1  0  0  0  0
 13 14  3  0  0  0  0
 12 15  1  0  0  0  0
 15 16  3  0  0  0  0
  8 17  1  0  0  0  0
 17 18  1  0  0  0  0
 18 19  1  0  0  0  0
 19 20  2  0  0  0  0
 20 21  1  0  0  0  0
 21 22  1  0  0  0  0
 21 23  1  0  0  0  0
  1 24  1  0  0  0  0
 24 25  2  0  0  0  0
 25 26  1  0  0  0  0
 26 27  1  0  0  0  0
 27 28  2  0  0  0  0
 28 29  1  0  0  0  0
 29 30  2  0  0  0  0
 30 31  1  0  0  0  0
 30 32  1  0  0  0  0
 32 33  2  0  0  0  0
 26 34  1  0  0  0  0
 34 35  2  0  0  0  0
 35 36  1  0  0  0  0
 36 37  2  0  0  0  0
 37 38  1  0  0  0  0
 37 39  1  0  0  0  0
 39 40  2  0  0  0  0
 25 41  1  0  0  0  0
 41 42  1  0  0  0  0
 42 43  1  0  0  0  0
 43 44  2  0  0  0  0
 44 45  1  0  0  0  0
 45 46  1  0  0  0  0
 46 47  2  0  0  0  0
 47 48  1  0  0  0  0
 48 49  2  0  0  0  0
 49 50  1  0  0  0  0
 49 51  1  0  0  0  0
 51 52  2  0  0  0  0
 45 53  1  0  0  0  0
 53 54  2  0  0  0  0
 54 55  1  0  0  0  0
 55 56  2  0  0  0  0
 56 57  1  0  0  0  0
 56 58  1  0  0  0  0
 58 59  2  0  0  0  0
 44 60  1  0  0  0  0
 60 61  1  0  0  0  0
 43 62  1  0  0  0  0
 62 63  2  0  0  0  0
 63 64  1  0  0  0  0
 64 65  2  0  0  0  0
 65 66  1  0  0  0  0
 66 67  2  0  0  0  0
 67 68  1  0  0  0  0
 68 69  1  0  0  0  0
 69 70  1  0  0  0  0
 68 71  2  0  0  0  0
 63 72  1  0  0  0  0
 72 73  1  0  0  0  0
 73 74  1  0  0  0  0
 74 75  1  0  0  0  0
 75 76  1  0  0  0  0
 76 77  1  0  0  0  0
 77 78  2  0  0  0  0
 78 79  1  0  0  0  0
 79 80  1  0  0  0  0
 77 81  1  0  0  0  0
 81 82  1  0  0  0  0
 82 83  1  0  0  0  0
 83 84  1  0  0  0  0
 84 85  1  0  0  0  0
 85 86  1  0  0  0  0
 86 87  2  0  0  0  0
 87 88  1  0  0  0  0
 88 89  2  0  0  0  0
 89 90  1  0  0  0  0
 90 91  1  0  0  0  0
 91 92  1  0  0  0  0
 90 93  2  0  0  0  0
 85 94  2  0  0  0  0
 94 95  1  0  0  0  0
 95 96  1  0  0  0  0
 96 97  1  0  0  0  0
 97 98  1  0  0  0  0
 98 99  1  0  0  0  0
 99100  1  0  0  0  0
100101  1  0  0  0  0
101102  1  0  0  0  0
102103  1  0  0  0  0
103104  1  0  0  0  0
101105  1  0  0  0  0
105106  1  0  0  0  0
 98107  1  0  0  0  0
107108  1  0  0  0  0
 94109  1  0  0  0  0
109110  2  0  0  0  0
110111  1  0  0  0  0
111112  1  0  0  0  0
112113  2  0  0  0  0
113114  1  0  0  0  0
114115  2  0  0  0  0
115116  1  0  0  0  0
115117  1  0  0  0  0
117118  2  0  0  0  0
111119  1  0  0  0  0
119120  2  0  0  0  0
120121  1  0  0  0  0
121122  2  0  0  0  0
122123  1  0  0  0  0
122124  1  0  0  0  0
124125  2  0  0  0  0
110126  1  0  0  0  0
126127  1  0  0  0  0
127128  1  0  0  0  0
128129  2  0  0  0  0
129130  1  0  0  0  0
130131  1  0  0  0  0
131132  2  0  0  0  0
132133  1  0  0  0  0
133134  2  0  0  0  0
134135  1  0  0  0  0
134136  1  0  0  0  0
136137  2  0  0  0  0
130138  1  0  0  0  0
138139  2  0  0  0  0
139140  1  0  0  0  0
140141  2  0  0  0  0
141142  1  0  0  0  0
141143  1  0  0  0  0
143144  2  0  0  0  0
129145  1  0  0  0  0
145146  1  0  0  0  0
128147  1  0  0  0  0
147148  2  0  0  0  0
148149  1  0  0  0  0
149150  2  0  0  0  0
149151  1  0  0  0  0
151152  2  0  0  0  0
152153  1  0  0  0  0
153154  1  0  0  0  0
154155  1  0  0  0  0
153156  2  0  0  0  0
156157  1  0  0  0  0
157158  2  0  0  0  0
158159  1  0  0  0  0
159160  2  0  0  0  0
160161  1  0  0  0  0
161162  3  0  0  0  0
160163  1  0  0  0  0
163164  3  0  0  0  0
 11  2  1  0  0  0  0
 23 17  1  0  0  0  0
 61 24  1  0  0  0  0
104 62  1  0  0  0  0
146109  1  0  0  0  0
159148  1  0  0  0  0
 10  5  1  0  0  0  0
 22 18  1  0  0  0  0
 33 27  1  0  0  0  0
 40 34  1  0  0  0  0
 60 41  2  0  0  0  0
 71 64  1  0  0  0  0
103 72  2  0  0  0  0
118112  1  0  0  0  0
125119  1  0  0  0  0
145126  2  0  0  0  0
158151  1  0  0  0  0
 23  7  1  0  0  0  0
 52 46  1  0  0  0  0
 59 53  1  0  0  0  0
102 74  2  0  0  0  0
137131  1  0  0  0  0
144138  1  0  0  0  0
100 75  2  0  0  0  0
 80 76  2  0  0  0  0
 99 81  2  0  0  0  0
 97 82  2  0  0  0  0
 96 84  2  0  0  0  0
 93 86  1  0  0  0  0
  1165  1  0  0  0  0
  6166  1  0  0  0  0
  9167  1  0  0  0  0
 17168  1  0  0  0  0
 18169  1  0  0  0  0
 19170  1  0  0  0  0
 20171  1  0  0  0  0
 21172  1  0  0  0  0
 22173  1  0  0  0  0
 22174  1  0  0  0  0
 23175  1  0  0  0  0
 28176  1  0  0  0  0
 29177  1  0  0  0  0
 31178  1  0  0  0  0
 31179  1  0  0  0  0
 31180  1  0  0  0  0
 32181  1  0  0  0  0
 33182  1  0  0  0  0
 35183  1  0  0  0  0
 36184  1  0  0  0  0
 38185  1  0  0  0  0
 38186  1  0  0  0  0
 38187  1  0  0  0  0
 39188  1  0  0  0  0
 40189  1  0  0  0  0
 47190  1  0  0  0  0
 48191  1  0  0  0  0
 50192  1  0  0  0  0
 50193  1  0  0  0  0
 50194  1  0  0  0  0
 51195  1  0  0  0  0
 52196  1  0  0  0  0
 54197  1  0  0  0  0
 55198  1  0  0  0  0
 57199  1  0  0  0  0
 57200  1  0  0  0  0
 57201  1  0  0  0  0
 58202  1  0  0  0  0
 59203  1  0  0  0  0
 65204  1  0  0  0  0
 66205  1  0  0  0  0
 67206  1  0  0  0  0
 69207  1  0  0  0  0
 69208  1  0  0  0  0
 70209  1  0  0  0  0
 70210  1  0  0  0  0
 70211  1  0  0  0  0
 71212  1  0  0  0  0
 87213  1  0  0  0  0
 88214  1  0  0  0  0
 89215  1  0  0  0  0
 91216  1  0  0  0  0
 91217  1  0  0  0  0
 92218  1  0  0  0  0
 92219  1  0  0  0  0
 92220  1  0  0  0  0
 93221  1  0  0  0  0
105222  1  0  0  0  0
105223  1  0  0  0  0
106224  1  0  0  0  0
106225  1  0  0  0  0
106226  1  0  0  0  0
107227  1  0  0  0  0
107228  1  0  0  0  0
108229  1  0  0  0  0
108230  1  0  0  0  0
108231  1  0  0  0  0
113232  1  0  0  0  0
114233  1  0  0  0  0
116234  1  0  0  0  0
116235  1  0  0  0  0
116236  1  0  0  0  0
117237  1  0  0  0  0
118238  1  0  0  0  0
120239  1  0  0  0  0
121240  1  0  0  0  0
123241  1  0  0  0  0
123242  1  0  0  0  0
123243  1  0  0  0  0
124244  1  0  0  0  0
125245  1  0  0  0  0
132246  1  0  0  0  0
133247  1  0  0  0  0
135248  1  0  0  0  0
135249  1  0  0  0  0
135250  1  0  0  0  0
136251  1  0  0  0  0
137252  1  0  0  0  0
139253  1  0  0  0  0
140254  1  0  0  0  0
142255  1  0  0  0  0
142256  1  0  0  0  0
142257  1  0  0  0  0
143258  1  0  0  0  0
144259  1  0  0  0  0
147260  1  0  0  0  0
152261  1  0  0  0  0
155262  1  0  0  0  0
155263  1  0  0  0  0
155264  1  0  0  0  0
156265  1  0  0  0  0
157266  1  0  0  0  0
M  END
