240

C          3.27270       -7.03730        8.45080
C          4.63350       -7.21420        8.33820
C          5.50860       -6.62000        7.32580
O          5.18870       -5.97140        6.34320
C          6.88930       -6.93800        7.73550
C          8.06430       -6.56330        7.08870
C          9.20950       -6.99750        7.71260
C          9.18630       -7.74640        8.89560
C          8.03330       -8.12480        9.54250
C          6.85660       -7.69670        8.92180
C          5.45790       -7.91570        9.29310
C          5.03130       -8.68500       10.34960
C          3.69320       -9.01450       10.63660
N          2.63620       -9.36260       10.92710
C          5.88460       -9.29400       11.29050
N          6.51360       -9.80620       12.10450
C         10.69050       -7.84150        8.96040
C         11.31550       -9.18490        8.52910
C         12.75690       -8.83560        8.23710
C         12.78090       -8.12620        7.11600
C         11.35590       -7.98470        6.63110
C         10.78370       -9.32960        7.09730
C         10.71700       -7.00690        7.63980
C          2.37320       -6.37510        7.61720
C          0.99650       -6.22200        7.92310
N          0.40720       -6.52740        9.12210
C         -0.92490       -6.98080        9.13380
C         -1.35580       -7.91410        8.19560
C         -2.65330       -8.38680        8.23170
C         -3.54580       -7.95320        9.20300
C         -4.93820       -8.50000        9.28500
C         -3.11070       -7.00770       10.12640
C         -1.82090       -6.52070       10.09550
C          1.05650       -6.30250       10.35100
C          1.88790       -5.19790       10.52000
C          2.53290       -4.99570       11.72360
C          2.35380       -5.86920       12.78990
C          3.07040       -5.66760       14.08930
C          1.49620       -6.95010       12.62090
C          0.85600       -7.17410       11.41870
C          0.30030       -5.67520        6.83190
S         -1.35790       -5.25880        6.54760
C         -0.94210       -4.61810        4.96670
C          0.40470       -4.77560        4.66470
N          1.00960       -4.45240        3.46240
C          0.35070       -4.58440        2.23520
C          0.58410       -3.65610        1.22070
C         -0.12630       -3.71970        0.03930
C         -1.07630       -4.71060       -0.17530
C         -1.89650       -4.74640       -1.42800
C         -1.26300       -5.66400        0.81840
C         -0.56720       -5.60840        2.00950
C          2.35440       -4.03810        3.49230
C          2.78540       -3.13030        4.45550
C          4.11670       -2.77360        4.52330
C          5.04480       -3.29990        3.63350
C          6.49530       -2.95020        3.75660
C          4.59860       -4.17830        2.65440
C          3.27080       -4.54880        2.57960
C          1.10650       -5.36880        5.74380
S          2.77010       -5.73840        6.01880
C         -1.91260       -4.01890        4.09750
C         -3.07840       -4.54720        3.58760
C         -3.75860       -5.75540        4.06010
C         -4.15060       -5.87150        5.38950
C         -4.83620       -6.99530        5.80910
C         -5.14210       -8.00260        4.91130
C         -4.77410       -7.89440        3.57600
C         -5.16670       -8.94230        2.57500
C         -6.44990       -8.52630        1.85280
C         -4.08600       -6.76420        3.16220
C         -3.55170       -3.78210        2.50020
S         -4.86150       -4.02940        1.37270
C         -4.37500       -2.59500        0.53290
C         -4.76870       -1.81690       -0.56870
C         -5.87790       -1.94150       -1.43180
C         -6.11570       -0.91620       -2.40520
N         -7.21640       -1.13070       -3.10920
S         -7.89220       -2.50920       -2.59400
N         -6.80710       -2.88490       -1.45270
C         -5.17180        0.12370       -2.53980
C         -5.09120        1.17120       -3.46980
S         -5.99970        1.81110       -4.79550
C         -4.72560        2.97340       -5.06560
C         -4.58440        4.00900       -6.00700
C         -5.60920        4.31000       -7.01230
C         -6.04400        3.31030       -7.87530
C         -7.00880        3.59510       -8.82320
C         -7.54290        4.86800       -8.91460
C         -7.13600        5.87200       -8.04460
C         -7.67250        7.26740       -8.17690
C         -6.78120        8.07790       -9.12010
C         -6.17380        5.57870       -7.09070
C         -3.39140        4.68690       -5.84050
S         -2.45130        4.05060       -4.49070
C         -3.66450        2.86070       -4.16410
C         -3.87960        1.82830       -3.24190
N         -3.21980        1.23470       -2.19800
C         -4.00380        0.19600       -1.72770
C         -3.85810       -0.72580       -0.65580
N         -2.94350       -0.83940        0.38460
C         -3.26990       -1.96230        1.10010
C         -2.79470       -2.64550        2.22680
S         -1.48050       -2.49020        3.33310
C         -2.18400        0.18140        1.07260
C         -3.10650        1.09170        1.88190
C         -1.83510        1.56350       -1.95930
C         -1.68960        2.84150       -1.13460
C         -2.82160        5.72080       -6.63650
C         -1.70770        6.46240       -6.34850
C         -1.34970        7.38230       -7.36340
C         -0.29140        8.31030       -7.37890
C          0.69270        8.38140       -6.29080
C          1.04870        9.60520       -5.72780
C          2.00240        9.66320       -4.72810
C          2.58970        8.50470       -4.25250
C          2.22130        7.28130       -4.79400
S          2.94250        5.79230       -4.13830
C          1.41310        4.86260       -3.75070
C          0.54730        5.60870       -2.75520
C          1.29940        7.21980       -5.82520
C         -0.21050        9.14260       -8.48470
C         -1.13290        9.10020       -9.56200
C         -2.19810        8.18260       -9.53870
C         -3.22430        8.17170      -10.58890
C         -3.56860        7.00170      -11.25850
C         -4.55070        7.01970      -12.23290
C         -5.20640        8.19720      -12.54600
C         -4.86990        9.36270      -11.87480
S         -5.69670       10.89820      -12.25440
C         -4.91760       11.22810      -13.88020
C         -3.42000       11.41280      -13.75500
C         -3.88800        9.35440      -10.90150
C         -2.25760        7.32910       -8.45280
S         -3.49140        6.12260       -8.20600
C         -0.79680       10.00960      -10.58900
C          0.33120       10.73870      -10.32810
S          1.03620       10.32970       -8.77250
C          0.93770       11.72440      -11.14830
C          2.05410       12.49070      -10.85640
C          2.39600       13.36990      -11.87130
C          1.55330       13.29330      -12.97300
C          1.67440       14.07230      -14.15340
C          0.90860       13.98700      -15.29800
C         -0.13400       13.06760      -15.49930
N         -0.98260       12.32780      -15.72770
C          1.14840       14.84620      -16.39150
N          1.32580       15.53680      -17.28950
C          2.70850       15.04650      -14.14990
N          3.54140       15.83240      -14.14400
S          0.30460       12.09960      -12.71950
H          2.81580       -7.47160        9.33060
H          8.03510       -5.98430        6.17870
H          8.03500       -8.69890       10.45380
H         11.15560       -7.42240        9.85080
H         11.14010      -10.00920        9.21480
H         13.57750       -9.08400        8.88440
H         13.62560       -7.66370        6.63990
H         11.21920       -7.71680        5.58670
H         11.23370      -10.17200        6.57440
H          9.69950       -9.39700        7.03160
H         11.19960       -6.03100        7.65090
H         -0.66470       -8.28060        7.45080
H         -2.96980       -9.11450        7.49900
H         -5.05130       -9.09630       10.19040
H         -5.66840       -7.69310        9.33110
H         -5.16120       -9.13190        8.42930
H         -3.79530       -6.64870       10.88130
H         -1.49740       -5.78530       10.81710
H          2.03180       -4.50580        9.70310
H          3.18110       -4.13860       11.83730
H          3.81300       -6.45280       14.23160
H          3.57730       -4.70610       14.11170
H          2.37280       -5.71730       14.92350
H          1.34260       -7.64000       13.43670
H          0.21190       -8.03030       11.29660
H          1.30670       -2.86960        1.38220
H          0.05100       -2.97640       -0.72510
H         -1.45350       -4.12540       -2.20290
H         -2.90250       -4.37440       -1.22780
H         -1.98800       -5.76440       -1.80150
H         -1.96920       -6.46490        0.65440
H         -0.73420       -6.35610        2.77120
H          2.07080       -2.71480        5.15170
H          4.44290       -2.07920        5.28400
H          6.62380       -1.89570        3.99320
H          6.93770       -3.53150        4.56560
H          7.03290       -3.17580        2.83890
H          5.30370       -4.59510        1.94980
H          2.93780       -5.24730        1.82570
H         -3.94660       -5.06970        6.08300
H         -5.13970       -7.07630        6.84070
H         -5.68310       -8.87680        5.24520
H         -4.36810       -9.07220        1.84140
H         -5.32720       -9.89790        3.07800
H         -6.73310       -9.27570        1.11740
H         -6.30760       -7.57490        1.34520
H         -7.26410       -8.41340        2.56520
H         -3.79570       -6.66440        2.12700
H         -5.61580        2.32130       -7.80910
H         -7.34280        2.81970       -9.49650
H         -8.28950        5.08590       -9.66440
H         -8.68850        7.24050       -8.57460
H         -7.69910        7.75180       -7.19900
H         -6.73940        7.60740      -10.09970
H         -5.76670        8.13180       -8.73140
H         -7.16190        9.08930       -9.23870
H         -5.85790        6.34440       -6.39550
H         -1.58740        0.76680        0.38150
H         -1.49910       -0.34120        1.74590
H         -3.65200        0.51040        2.62150
H         -2.52410        1.85000        2.39820
H         -3.82940        1.57980        1.23070
H         -1.33910        0.70930       -1.49670
H         -1.36390        1.72540       -2.93580
H         -2.09720        3.68140       -1.69160
H         -2.22680        2.77350       -0.19330
H         -0.64000        3.03490       -0.93050
H         -1.18090        6.36660       -5.41570
H          0.56450       10.50960       -6.06340
H          2.27780       10.61700       -4.30390
H          3.32320        8.53660       -3.46200
H          1.76620        3.91780       -3.33990
H          0.87760        4.66540       -4.67880
H          0.27400        6.58870       -3.14330
H          1.08050        5.74970       -1.81800
H         -0.36420        5.04750       -2.56550
H          1.06310        6.27310       -6.28730
H         -3.05320        6.08170      -11.02730
H         -4.80960        6.10760      -12.74960
H         -5.97950        8.21460      -13.29920
H         -5.40280       12.13670      -14.23330
H         -5.16770       10.40230      -14.54580
H         -2.99200       11.69630      -14.71330
H         -2.94750       10.48650      -13.43140
H         -3.19280       12.19220      -13.03020
H         -3.65450       10.26650      -10.37300
H         -1.35680       10.11350      -11.50160
H          2.58740       12.39850       -9.92720
H          3.23100       14.04710      -11.82890
