230

C         -4.58460        3.74110        5.76920
C         -5.18930        4.92140        5.43300
C         -6.64610        5.09040        5.62800
O         -7.38330        4.38080        6.27990
C         -7.01320        6.27410        4.82060
C         -8.29190        6.76300        4.56800
C         -8.31950        7.85900        3.73860
C         -7.16150        8.43040        3.19650
C         -5.89130        7.96640        3.44710
C         -5.84300        6.85450        4.28920
C         -4.68970        6.10980        4.79350
C         -3.40950        6.60130        4.89200
C         -2.99310        7.82800        4.35120
N         -2.60000        8.82320        3.93030
C         -2.40510        5.98580        5.66440
N         -1.58150        5.55570        6.34020
C         -7.93730        9.47960        2.43930
C         -8.13660        9.27490        0.91720
C         -8.07530        7.78770        0.67250
C         -9.17160        7.24740        1.18730
C         -9.99390        8.35960        1.78930
C         -9.65350        9.50290        0.82010
C         -9.22800        8.84410        3.04540
C         -3.39420        3.19850        5.26570
C         -2.73760        2.04900        5.73970
N         -3.07390        1.38020        6.88740
C         -2.92590       -0.01450        6.95360
C         -3.17740       -0.80560        5.83330
C         -3.04550       -2.17690        5.90480
C         -2.69350       -2.80370        7.09440
C         -2.59510       -4.29610        7.16310
C         -2.46650       -2.01040        8.21190
C         -2.56440       -0.63430        8.14660
C         -3.57150        2.07710        8.00940
C         -3.00120        3.28790        8.39060
C         -3.50790        3.97450        9.47580
C         -4.57470        3.47230       10.21170
C         -5.14340        4.23680       11.36690
C         -5.12120        2.25120        9.83430
C         -4.63110        1.55690        8.74620
C         -1.67950        1.67830        4.88240
S         -0.53040        0.37650        4.85960
C          0.14660        0.98180        3.36610
C         -0.53620        2.08890        2.86770
N         -0.36950        2.68020        1.62160
C         -0.45020        4.08140        1.55230
C          0.12050        4.85930        2.55850
C          0.04720        6.23570        2.50080
C         -0.58140        6.87850        1.43930
C         -0.64380        8.37250        1.38670
C         -1.15630        6.09430        0.44600
C         -1.10230        4.71510        0.49890
C         -0.19250        1.90350        0.47180
C          0.51260        2.40440       -0.62280
C          0.76000        1.60710       -1.71960
C          0.33890        0.28250       -1.76100
C          0.68380       -0.58890       -2.92960
C         -0.40230       -0.19760       -0.68980
C         -0.68110        0.59950        0.40240
C         -1.54460        2.49500        3.76930
S         -2.68510        3.78830        3.75910
C          1.17680        0.23460        2.71320
C          2.01160        0.75510        1.75120
C          2.74420       -0.08240        0.89310
C          2.64030       -1.48420        0.96460
C          1.92770       -2.03230        2.07340
C          1.29270       -1.16260        2.99830
N          0.85240       -1.63740        4.15720
C          0.87560       -2.93860        4.38980
C          0.76700       -3.34550        5.76330
C          0.49880       -2.51900        6.82700
C          0.62040       -3.15960        8.06850
C          0.98800       -4.47020        7.97070
C          1.25320       -5.44210        9.06760
C          2.75680       -5.62560        9.28790
S          1.19000       -4.93940        6.31910
C          1.14570       -3.81590        3.28620
C          0.76160       -5.20840        3.26710
C          1.41850       -6.25400        2.68190
C          0.73350       -7.47690        2.81210
C         -0.45900       -7.36580        3.46080
C         -1.42990       -8.43630        3.81920
C         -1.44820       -8.67530        5.33060
S         -0.75690       -5.72750        3.93690
N          1.74460       -3.34860        2.21080
C          3.15430       -2.29150       -0.06890
C          3.81080       -1.76450       -1.15340
C          4.02740       -0.35210       -1.20050
N          4.76650        0.19930       -2.17130
C          4.88190        1.50980       -2.24980
C          5.85220        1.98820       -3.20650
C          6.28380        1.31770       -4.32030
C          7.30870        1.99160       -5.00720
C          7.67980        3.16140       -4.41320
C          8.75120        4.11040       -4.82560
C          9.96640        4.00980       -3.90100
S          6.74890        3.46030       -2.98260
C          4.11010        2.34340       -1.37910
N          3.49690        1.80620       -0.34330
C          3.46580        0.48150       -0.19970
C          3.85470        3.74620       -1.56900
C          3.81390        4.50760       -2.70730
C          3.35060        5.81300       -2.47200
C          3.02860        6.05050       -1.16650
C          2.49240        7.30450       -0.56820
C          3.27200        7.72690        0.67520
S          3.28710        4.64580       -0.19260
C          4.20320       -2.60260       -2.29040
C          3.30090       -3.56930       -2.75600
C          3.61550       -4.28180       -3.88960
C          2.81410       -5.30900       -4.60300
O          1.73270       -5.75370       -4.29820
C          3.63960       -5.65800       -5.79220
C          4.83630       -4.91170       -5.76630
C          4.82380       -4.06370       -4.58090
C          5.73240       -3.14060       -4.10100
C          5.41320       -2.41780       -2.95870
C          5.76410       -5.06060       -6.77970
C          5.47160       -5.91230       -7.83440
C          4.27310       -6.63010       -7.88370
C          3.36220       -6.52740       -6.81740
C          3.93770       -7.49430       -8.99100
C          4.14080       -7.23900      -10.30530
C          4.48200       -5.91030      -10.89070
O          4.90010       -4.92440      -10.32560
C          4.13560       -6.01360      -12.32040
C          4.19010       -4.98710      -13.26260
C          3.79500       -5.36300      -14.52310
C          3.37310       -6.66510      -14.82930
C          3.31910       -7.68770      -13.91350
C          3.71880       -7.32620      -12.62180
C          3.78870       -8.12620      -11.40660
C          3.63980       -9.48310      -11.32110
C          3.82040      -10.23350      -10.13840
N          3.97350      -10.91080       -9.22430
C          3.33440      -10.32240      -12.41350
N          3.08400      -11.05640      -13.25960
C          3.10640       -6.32420      -16.27420
C          1.62950       -6.11790      -16.67240
C          1.70900       -5.34370      -17.96850
C          2.10990       -4.11240      -17.67920
C          2.30820       -4.03340      -16.18260
C          1.20430       -4.99300      -15.71960
C          3.57870       -4.87440      -15.93350
H         -5.16880        3.09880        6.41970
H         -9.16120        6.29430        5.00230
H         -5.00450        8.40660        3.02090
H         -7.71190       10.51390        2.69220
H         -7.49670        9.89140        0.29110
H         -7.23920        7.28900        0.21810
H         -9.43420        6.20740        1.24790
H        -11.04570        8.14210        1.95700
H        -10.04200        9.33480       -0.18340
H         -9.96870       10.48250        1.17730
H         -9.84470        9.46470        3.69290
H         -3.49200       -0.34060        4.91070
H         -3.23380       -2.77560        5.02560
H         -3.59210       -4.73740        7.17410
H         -2.07070       -4.61170        8.06150
H         -2.07020       -4.68370        6.29230
H         -2.20250       -2.47670        9.15000
H         -2.36600       -0.03220        9.02080
H         -2.17510        3.69720        7.82890
H         -3.06020        4.91660        9.75600
H         -4.41460        4.93750       11.76690
H         -5.46130        3.56330       12.16010
H         -6.01550        4.80390       11.03970
H         -5.95130        1.84340       10.39250
H         -5.07430        0.61610        8.45380
H          0.62540        4.37800        3.38330
H          0.49020        6.82530        3.28990
H         -0.97330        8.71810        0.40960
H         -1.34320        8.74000        2.13880
H          0.32930        8.80640        1.60800
H         -1.66300        6.57010       -0.38210
H         -1.56750        4.12230       -0.27490
H          0.88750        3.41500       -0.59660
H          1.31880        2.01280       -2.55190
H          0.32090       -1.60260       -2.78090
H          1.76440       -0.62550       -3.07020
H          0.24440       -0.19390       -3.84530
H         -0.76610       -1.21510       -0.70580
H         -1.26800        0.20070        1.21680
H          2.09590        1.81780        1.59650
H          0.22390       -1.48980        6.69690
H          0.44810       -2.66700        9.00870
H          0.80810       -6.40850        8.81920
H          0.79100       -5.07480        9.98640
H          3.21820       -4.67670        9.55160
H          2.93690       -6.33610       10.09050
H          3.22650       -5.99780        8.38030
H          2.37290       -6.13930        2.20190
H          1.10970       -8.41030        2.43230
H         -1.14740       -9.35530        3.30190
H         -2.43260       -8.15200        3.49000
H         -0.45970       -8.96690        5.67820
H         -1.74250       -7.76640        5.85090
H         -2.15290       -9.46440        5.57990
H          3.00490       -3.35730        0.01600
H          5.85560        0.38050       -4.62630
H          7.75890        1.62440       -5.91250
H          8.36680        5.13300       -4.79930
H          9.04870        3.88130       -5.85110
H         10.74070        4.70300       -4.21950
H         10.37260        3.00100       -3.91870
H          9.68170        4.25010       -2.87930
H          4.07600        4.13770       -3.68250
H          3.25340        6.55330       -3.24670
H          1.44530        7.14790       -0.29130
H          2.52940        8.09470       -1.32150
H          2.88270        8.66440        1.06400
H          4.32480        7.86140        0.43730
H          3.18380        6.96670        1.44750
H          2.35680       -3.72790       -2.25710
H          6.67200       -2.97100       -4.60540
H          6.10920       -1.68690       -2.58030
H          6.69730       -4.51880       -6.76440
H          6.19580       -6.04550       -8.62170
H          2.44020       -7.09000       -6.82430
H          3.40560       -8.39950       -8.72040
H          4.52120       -3.99880      -12.98460
H          2.99040       -8.68340      -14.16060
H          3.66900       -6.89760      -17.00830
H          1.02920       -7.02350      -16.67920
H          1.52450       -5.77290      -18.93570
H          2.32740       -3.30740      -18.35640
H          2.32590       -3.03990      -15.74280
H          0.20900       -4.61520      -15.94760
H          1.25960       -5.25840      -14.66540
H          4.45690       -4.47950      -16.44070
