266

C         -0.72680        9.51020       -6.79600
C         -0.92090       10.32330       -7.89040
C         -0.98640        9.89190       -9.28720
O         -0.95570        8.75080       -9.71850
C         -1.06910       11.12220      -10.09610
C         -1.15690       11.21200      -11.48230
C         -1.23550       12.50040      -11.95520
C         -1.22120       13.61680      -11.11030
C         -1.13060       13.54110       -9.74010
C         -1.05560       12.23990       -9.23830
C         -0.98570       11.76360       -7.85600
C         -1.01140       12.56700       -6.74010
C         -1.00080       13.97520       -6.76910
N         -0.97300       15.12230       -6.70530
C         -1.08420       12.11980       -5.40750
N         -1.18310       11.85320       -4.29280
C         -1.35050       14.58750      -12.25750
C         -2.73930       15.22570      -12.50710
C         -3.76100       14.25460      -11.96990
C         -3.77530       13.19760      -12.77090
C         -2.76320       13.43510      -13.86430
C         -2.88020       14.96040      -14.01450
C         -1.36710       13.34290      -13.19990
C         -0.68700        8.12190       -6.69660
C         -0.46330        7.44560       -5.46830
N         -0.03140        8.02540       -4.30550
C          0.89700        9.08370       -4.28610
C          0.81160       10.06140       -3.29840
C          1.72460       11.09640       -3.27210
C          2.73300       11.19070       -4.22380
C          3.69340       12.33950       -4.19780
C          2.81760       10.20140       -5.19660
C          1.92040        9.15280       -5.22810
C         -0.41790        7.44790       -3.08030
C          0.51460        7.23470       -2.07060
C          0.12170        6.66010       -0.87790
C         -1.19790        6.28320       -0.66250
C         -1.62770        5.66690        0.63280
C         -2.12400        6.50860       -1.67510
C         -1.74600        7.08590       -2.86970
C         -0.73060        6.07450       -5.60030
S         -0.66110        4.71370       -4.52830
C         -1.09480        3.62710       -5.84110
C         -1.26380        4.29280       -7.04020
N         -1.48830        3.67710       -8.28820
C         -0.27450        3.36600       -8.96490
C          0.50450        2.29730       -8.54450
C          1.69820        2.01340       -9.18420
C          2.14210        2.78460      -10.24880
C          3.42230        2.46610      -10.95960
C          1.36210        3.86350      -10.65230
C          0.17320        4.15980      -10.01780
C         -2.60450        4.05510       -9.03380
C         -3.60960        4.85480       -8.49560
C         -4.72720        5.17550       -9.24080
C         -4.89650        4.69480      -10.53000
C         -6.10280        5.05300      -11.34550
C         -3.90810        3.86800      -11.05050
C         -2.78280        3.54920      -10.32170
C         -1.06730        5.68500       -6.89110
S         -1.07430        7.00210       -8.00760
C         -1.16720        2.23570       -5.53650
C         -1.85830        1.21220       -6.15330
C         -2.86730        1.32980       -7.21220
C         -2.74050        0.59520       -8.38520
C         -3.75390        0.62480       -9.32370
C         -4.90710        1.34920       -9.08290
C         -5.05550        2.07450       -7.90840
C         -6.34360        2.78490       -7.61040
C         -7.33910        1.82240       -6.95920
C         -4.02140        2.06940       -6.98520
C         -1.58820       -0.02720       -5.53860
S         -2.20840       -1.63390       -5.83070
C         -1.32820       -2.19540       -4.44800
C         -1.21460       -3.35440       -3.66170
C         -1.90520       -4.58650       -3.70050
C         -1.80220       -5.48020       -2.57780
N         -2.57420       -6.54690       -2.70970
S         -3.35460       -6.44540       -4.12560
N         -2.74370       -5.03030       -4.62290
C         -0.91240       -5.16280       -1.52820
C         -0.58960       -5.81670       -0.32450
S         -1.09980       -7.18360        0.60870
C          0.05450       -6.74540        1.84620
C          0.37660       -7.30430        3.09940
C         -0.25340       -8.51370        3.62940
C          0.50740       -9.53970        4.18460
C         -0.11140      -10.68860        4.63360
C         -1.48640      -10.82450        4.54010
C         -2.26210       -9.80970        3.99700
C         -3.75790       -9.92120        3.91390
C         -4.43590       -8.95640        4.88820
C         -1.63180       -8.66250        3.53840
C          1.37390       -6.58350        3.72940
S          1.92260       -5.21210        2.76820
C          0.80500       -5.61640        1.51870
C          0.43170       -5.08180        0.28070
N          0.75610       -3.99410       -0.49150
C         -0.09320       -4.00440       -1.58730
C         -0.34660       -3.03080       -2.58340
N          0.02900       -1.70640       -2.69890
C         -0.57410       -1.19980       -3.81960
C         -0.72780        0.04560       -4.44180
S         -0.20090        1.66940       -4.17630
C          0.59950       -0.81460       -1.71430
C          1.96560       -0.28150       -2.14490
C          2.09890       -3.45670       -0.43390
C          3.14260       -4.53740       -0.71650
C          1.84280       -6.70560        5.06920
C          3.07570       -6.30490        5.56900
N          4.15600       -5.89500        4.80430
C          4.48650       -6.54640        3.61220
C          5.09510       -5.84530        2.57330
C          5.38310       -6.47950        1.38050
C          5.06160       -7.81500        1.17870
C          5.33810       -8.49760       -0.12600
C          4.46630       -8.51230        2.22480
C          4.19110       -7.89590        3.42720
C          4.97800       -4.87890        5.32180
C          4.40180       -3.76870        5.93510
C          5.20020       -2.78780        6.48570
C          6.58670       -2.87800        6.43100
C          7.43750       -1.81750        7.05850
C          7.15190       -3.97880        5.80020
C          6.36380       -4.97320        5.25420
C          3.09940       -6.38860        6.97990
S          4.25600       -5.94470        8.17730
C          3.15090       -6.44340        9.46750
C          1.90740       -6.87400        8.95720
N          0.77360       -7.12320        9.67960
C          0.52120       -6.48100       10.90040
C         -0.06180       -7.18020       11.95560
C         -0.27100       -6.55740       13.17140
C          0.08510       -5.22980       13.37070
C         -0.08940       -4.57410       14.70410
C          0.62740       -4.52670       12.29820
C          0.84330       -5.13670       11.08040
C         -0.17780       -8.03980        9.19190
C         -1.53570       -7.76700        9.31510
C         -2.46830       -8.69890        8.90090
C         -2.07370       -9.91240        8.35400
C         -3.07630      -10.95080        7.95510
C         -0.71260      -10.16020        8.20520
C          0.22930       -9.24190        8.61810
C          1.92400       -6.86620        7.54420
S          0.74540       -7.24890        6.33250
C          3.60940       -6.28190       10.77610
C          3.13540       -6.93560       11.89430
C          2.51420       -8.27210       11.86410
O          2.29050       -8.95890       10.88410
C          2.34470       -8.65590       13.27740
C          1.82640       -9.81400       13.81430
C          1.75840       -9.94740       15.19420
C          2.21870       -8.92690       16.02440
O          2.20060       -8.96830       17.37720
C          1.70310      -10.11670       18.02240
C          2.75090       -7.74870       15.47650
C          2.80900       -7.61850       14.10760
C          3.28330       -6.52510       13.25920
C          3.64050       -5.26850       13.68620
C          3.65790       -4.86670       15.03360
N          3.67520       -4.47180       16.11280
C          3.95420       -4.20350       12.81980
N          4.19160       -3.28280       12.17420
H         -0.59610       10.02010       -5.85010
H         -1.16590       10.32440      -12.09550
H         -1.12110       14.41150       -9.10560
H         -0.53880       15.30340      -12.37230
H         -2.83080       16.25430      -12.16850
H         -4.30860       14.40520      -11.05800
H         -4.33690       12.28830      -12.66170
H         -2.87680       12.83360      -14.76260
H         -2.08070       15.40050      -14.60910
H         -3.84630       15.27210      -14.40900
H         -0.56580       13.24660      -13.93030
H          0.02270       10.01260       -2.56470
H          1.64020       11.85500       -2.50870
H          3.17950       13.26240       -4.46650
H          4.50940       12.18310       -4.89870
H          4.10710       12.47010       -3.19930
H          3.60280       10.24570       -5.93780
H          2.00570        8.38720       -5.98550
H          1.54540        7.51470       -2.22910
H          0.85720        6.49470       -0.10400
H         -0.76860        5.34400        1.21510
H         -2.27490        4.81050        0.45400
H         -2.18910        6.39080        1.22380
H         -3.15700        6.23230       -1.52180
H         -2.47600        7.26760       -3.64500
H          0.17610        1.68710       -7.71890
H          2.29120        1.17440       -8.84820
H          4.03740        1.78940      -10.37150
H          3.98780        3.37440      -11.15860
H          3.21000        1.98970      -11.91710
H          1.69820        4.48730      -11.46810
H         -0.41460        5.01130      -10.32840
H         -3.52600        5.22680       -7.48580
H         -5.48370        5.81250       -8.80430
H         -6.49070        4.17880      -11.86590
H         -5.84200        5.79870      -12.09720
H         -6.88860        5.46600      -10.71720
H         -4.02340        3.46370      -12.04640
H         -2.03580        2.89490      -10.74480
H         -1.84790        0.01410       -8.56180
H         -3.64980        0.06610      -10.24210
H         -5.70330        1.35270       -9.81290
H         -6.76960        3.17550       -8.53600
H         -6.15810        3.62410       -6.93810
H         -8.27470        2.33150       -6.73880
H         -6.93130        1.42650       -6.03170
H         -7.54620        0.98650       -7.62350
H         -4.12030        2.62460       -6.06250
H          1.58110       -9.44160        4.23690
H          0.48210      -11.48950        5.04980
H         -1.95640      -11.73860        4.87550
H         -4.06620      -10.94390        4.14020
H         -4.08240       -9.68780        2.89710
H         -4.10570       -9.14790        5.90590
H         -5.51650       -9.07100        4.84280
H         -4.18690       -7.92770        4.64130
H         -2.22170       -7.86800        3.10600
H         -0.08220        0.03660       -1.60190
H          0.64970       -1.32860       -0.75450
H          2.65450       -1.08740       -2.38820
H          1.86000        0.34680       -3.02490
H          2.39400        0.31640       -1.34560
H          2.26590       -3.03420        0.56240
H          2.19920       -2.67860       -1.18340
H          2.95010       -5.00190       -1.68160
H          4.13150       -4.08780       -0.73500
H          3.13090       -5.30690        0.05050
H          5.32840       -4.79930        2.70400
H          5.85680       -5.91960        0.58670
H          5.92210       -9.40300        0.03270
H          5.88530       -7.84300       -0.79970
H          4.40360       -8.78620       -0.60700
H          4.22140       -9.55680        2.09530
H          3.75070       -8.45930        4.23650
H          3.32530       -3.68400        5.97560
H          4.74200       -1.93650        6.96740
H          8.48020       -1.93310        6.77400
H          7.09890       -0.82640        6.76150
H          7.36800       -1.88010        8.14430
H          8.22730       -4.06960        5.74670
H          6.81790       -5.83190        4.78190
H         -0.33850       -8.21450       11.81790
H         -0.70530       -7.12050       13.98470
H          0.83890       -4.63310       15.27400
H         -0.34040       -3.52220       14.58870
H         -0.86910       -5.06570       15.28090
H          0.89040       -3.48630       12.42110
H          1.26730       -4.57130       10.26410
H         -1.85680       -6.83010        9.74680
H         -3.52020       -8.47830        9.01420
H         -3.01050      -11.14760        6.88670
H         -4.08810      -10.63040        8.19130
H         -2.87750      -11.88580        8.47760
H         -0.38960      -11.09880        7.78020
H          1.28270       -9.46250        8.55100
H          4.44000       -5.59610       10.89570
H          1.47260      -10.60150       13.16630
H          1.34520      -10.85140       15.61230
H          2.28510      -11.00670       17.76330
H          0.64860      -10.28720       17.78340
H          1.80260       -9.91950       19.08840
H          3.10410       -6.98840       16.15320
