237

C          4.09440       10.46770        7.37690
C          4.94950       10.02520        8.33400
C          5.06850        8.62130        8.81750
O          4.29570        7.70120        8.66450
C          6.38740        8.54350        9.47460
C          6.98200        7.39970       10.00320
C          8.23150        7.61220       10.53230
C          8.84920        8.87090       10.53500
C          8.27130       10.00850       10.02530
C          6.99740        9.81380        9.48150
C          6.09360       10.76480        8.84650
C          6.25190       12.12400        8.80680
C          5.30760       13.02610        8.27060
N          4.58030       13.82120        7.87410
C          7.36330       12.81380        9.33460
N          8.24080       13.43680        9.73460
C         10.09920        8.34360       11.19330
C         11.34080        8.11030       10.29670
C         10.82350        7.84510        8.90460
C         10.23850        6.65480        8.90940
C         10.34900        6.09380       10.30570
C         11.70600        6.68040       10.72630
C          9.40880        6.94340       11.19650
C          2.96170        9.76560        6.83520
C          2.11270        8.96870        7.61250
C          1.09050        8.25660        7.03180
C          0.88290        8.29280        5.64640
C          1.68760        9.14830        4.88150
C          2.68750        9.88580        5.46510
C         -0.09000        7.44220        5.01350
C         -1.03780        6.63610        5.59990
C         -1.71600        5.84920        4.66540
S         -2.91260        4.59120        4.79500
C         -2.79220        4.32410        3.08650
C         -3.30430        3.34900        2.17160
C         -4.10540        2.22780        2.38060
C         -4.25950        1.35920        1.32510
C         -4.93250       -0.00770        1.31080
C         -6.44270        0.07520        1.15780
C         -7.10020        1.27050        0.91010
C         -8.47470        1.29270        0.75090
C         -9.22330        0.12740        0.83130
C        -10.70940        0.14810        0.61640
C        -11.03940       -0.09480       -0.85770
C         -8.55760       -1.06920        1.06870
C         -7.18660       -1.09700        1.22820
C         -4.55190       -0.77160        2.55890
C         -5.28940       -0.61460        3.72620
C         -4.91420       -1.26730        4.88520
C         -3.79660       -2.09140        4.91070
C         -3.36610       -2.76400        6.18260
C         -2.40750       -1.86370        6.96460
C         -3.06010       -2.23840        3.74330
C         -3.42980       -1.58580        2.58190
C         -4.39250       -0.57400        0.01640
C         -3.76580        0.43060       -0.69890
C         -3.63640        1.61700        0.08270
C         -2.89410        2.76980       -0.14860
C         -2.72700        3.62920        0.91130
C         -1.84860        4.86830        0.97580
C         -0.46950        4.51710        0.45830
C         -0.21140        4.57080       -0.90670
C          1.01690        4.18180       -1.40530
C          2.02280        3.73330       -0.55760
C          3.33490        3.25800       -1.11150
C          3.23690        1.79520       -1.55130
C          1.76310        3.69030        0.80530
C          0.53160        4.07140        1.30890
C         -2.43010        6.07170        0.25490
C         -1.64320        7.20680        0.09990
C         -2.15860        8.33980       -0.49780
C         -3.47080        8.37110       -0.95390
C         -4.04270        9.62150       -1.55750
C         -4.61280       10.52750       -0.46420
C         -4.25310        7.23660       -0.79030
C         -3.74300        6.09890       -0.19060
C         -1.90490        5.17060        2.44880
C         -1.29360        6.04780        3.34440
S         -0.06310        7.24970        3.26370
S         -3.08700       -0.12470       -2.16860
C         -3.51890       -1.76970       -1.74530
C         -4.27770       -1.82480       -0.59210
C         -2.99150       -2.85270       -2.50810
C         -1.72550       -2.94010       -3.07710
N         -0.71220       -2.00230       -2.94220
C          0.14900       -1.77350       -4.02240
C          1.50070       -1.51360       -3.81280
C          2.34160       -1.31250       -4.88800
C          1.86950       -1.37430       -6.19350
C          2.79880       -1.20470       -7.35620
C          0.51820       -1.62520       -6.39330
C         -0.33700       -1.81480       -5.32690
C         -0.47410       -1.40200       -1.69750
C         -0.13520       -0.05080       -1.61730
C         -0.03020        0.56870       -0.38960
C         -0.22720       -0.14060        0.79020
C         -0.19580        0.56080        2.11230
C         -0.48450       -1.50250        0.70400
C         -0.62350       -2.12800       -0.52040
C         -1.55250       -4.16930       -3.75550
S         -0.20610       -4.88060       -4.56700
C         -1.14250       -6.35490       -4.83500
C         -2.42680       -6.28650       -4.23490
N         -3.34200       -7.30580       -4.18570
C         -2.96610       -8.65270       -4.02930
C         -3.70410       -9.65840       -4.64840
C         -3.32260      -10.97820       -4.51130
C         -2.19920      -11.32980       -3.77260
C         -1.76490      -12.76040       -3.68750
C         -1.48590      -10.32060       -3.13570
C         -1.86590       -8.99850       -3.24760
C         -4.71120       -6.97750       -4.17440
C         -5.58720       -7.61060       -3.29910
C         -6.92720       -7.27600       -3.30080
C         -7.42480       -6.30800       -4.16390
C         -8.87270       -5.92620       -4.15160
C         -6.54160       -5.68520       -5.03930
C         -5.20210       -6.01400       -5.05220
C         -2.64360       -5.02350       -3.65990
S         -3.93510       -4.31840       -2.73480
C         -0.71680       -7.43530       -5.60500
C          0.51440       -7.71490       -6.15460
C          1.73890       -6.92880       -5.99390
O          1.86090       -5.82730       -5.48440
C          2.82880       -7.74210       -6.56580
C          4.18130       -7.41460       -6.62060
C          4.96670       -8.38020       -7.20400
C          4.44400       -9.58110       -7.69950
C          3.10990       -9.91230       -7.65910
C          2.29380       -8.94570       -7.06530
C          0.84500       -8.92950       -6.85940
C         -0.02720       -9.90310       -7.28640
C          0.36170      -11.12700       -7.86390
N          0.60070      -12.15750       -8.31300
C         -1.43140       -9.81810       -7.24280
N         -2.58070       -9.81840       -7.28980
C          5.79800      -10.08490       -8.13480
C          6.46320      -11.14340       -7.22980
C          7.92250      -11.08620       -7.61950
C          8.41970       -9.94720       -7.15460
C          7.30480       -9.21600       -6.44210
C          6.52080      -10.41030       -5.88340
C          6.38120       -8.74390       -7.58480
H          4.31710       11.41480        6.89790
H          6.47240        6.44910        9.97660
H          8.75880       10.96930       10.03040
H         10.35860        8.78800       12.15200
H         12.11040        8.87230       10.38520
H         10.88400        8.55260        8.09840
H          9.71220        6.16930        8.10850
H         10.21560        5.01960       10.40370
H         11.90830        6.58560       11.79220
H         12.53730        6.26870       10.15590
H          9.21220        6.47470       12.15880
H          2.25040        8.92780        8.68030
H          0.46160        7.63840        7.65220
H          1.51820        9.21840        3.81650
H          3.30570       10.53040        4.85700
H         -1.23220        6.60390        6.65570
H         -4.53350        2.02870        3.35140
H         -6.54040        2.19200        0.84580
H         -8.97220        2.23420        0.56500
H        -11.18180       -0.62750        1.22290
H        -11.11490        1.11480        0.92150
H        -10.58820        0.67660       -1.47780
H        -12.11550       -0.08250       -1.01480
H        -10.65170       -1.05950       -1.17770
H         -9.12130       -1.98920        1.13230
H         -6.68500       -2.03430        1.41980
H         -6.16820        0.01460        3.72520
H         -5.50070       -1.13710        5.78380
H         -4.23940       -2.98190        6.80060
H         -2.86660       -3.70750        5.95250
H         -2.89170       -0.92200        7.21350
H         -2.09500       -2.34870        7.88650
H         -1.52350       -1.64510        6.36950
H         -2.18680       -2.87600        3.74290
H         -2.84480       -1.70700        1.68330
H         -2.42490        2.93940       -1.10490
H         -0.97580        4.92800       -1.58170
H          1.19850        4.22670       -2.46980
H          4.11330        3.35470       -0.35190
H          3.61730        3.87180       -1.96970
H          2.49080        1.68080       -2.33420
H          4.19480        1.44960       -1.93320
H          2.94770        1.16430       -0.71350
H          2.53310        3.35060        1.48390
H          0.35190        4.01730        2.37280
H         -0.61990        7.19810        0.44760
H         -1.53290        9.21350       -0.61240
H         -3.26380       10.16040       -2.10090
H         -4.83610        9.36430       -2.26230
H         -5.40060       10.01210        0.08080
H         -5.02640       11.43500       -0.89800
H         -3.83340       10.80350        0.24250
H         -5.27700        7.24050       -1.13650
H         -4.37150        5.22840       -0.07210
H         -4.64410       -2.75280       -0.19070
H          1.88860       -1.48110       -2.80540
H          3.38940       -1.11800       -4.70910
H          3.63980       -0.56690       -7.09340
H          3.19240       -2.17640       -7.65680
H          2.28030       -0.77360       -8.20980
H          0.12730       -1.66940       -7.39980
H         -1.38850       -1.99390       -5.49890
H          0.00250        0.51320       -2.52770
H          0.18790        1.62450       -0.34280
H         -0.09020       -0.14790        2.93010
H         -1.12810        1.10950        2.25650
H          0.62110        1.27790        2.14970
H         -0.57810       -2.08530        1.60900
H         -0.85360       -3.18260       -0.56930
H         -4.56130       -9.39950       -5.24950
H         -3.89380      -11.74670       -5.00960
H         -1.00550      -12.89420       -2.92110
H         -2.61100      -13.40710       -3.46330
H         -1.34850      -13.07910       -4.64360
H         -0.62170      -10.57230       -2.53760
H         -1.30370       -8.22670       -2.74230
H         -5.21160       -8.35950       -2.61770
H         -7.59600       -7.77290       -2.61310
H         -9.46150       -6.64550       -3.58830
H         -9.26340       -5.86810       -5.16570
H         -8.99540       -4.94570       -3.69100
H         -6.91170       -4.93720       -5.72510
H         -4.52820       -5.53430       -5.74690
H         -1.48090       -8.18400       -5.76900
H          4.53960       -6.47490       -6.23010
H          2.72360      -10.83810       -8.05140
H          5.90580      -10.30400       -9.19550
H          5.98890      -12.12090       -7.24860
H          8.41230      -11.82870       -8.22190
H          9.40790       -9.54840       -7.29130
H          7.59900       -8.43800       -5.74250
H          7.08920      -10.96360       -5.13740
H          5.54490      -10.14940       -5.47830
H          6.87550       -8.06810       -8.28060
