
  xtb     02092211223D
 energy: -334.715553098510 gnorm: 0.000929406100 xtb: 6.4.1 (unknown)
198221  0     0  0            999 V2000
    4.4702   -7.7428    2.1130 C   0  0  0  0  0  0  0  0  0  0  0  0
    5.7367   -7.3007    2.3842 C   0  0  0  0  0  0  0  0  0  0  0  0
    6.8693   -8.2523    2.4522 C   0  0  0  0  0  0  0  0  0  0  0  0
    6.8017   -9.4633    2.4794 O   0  0  0  0  0  0  0  0  0  0  0  0
    8.0875   -7.4136    2.4268 C   0  0  0  0  0  0  0  0  0  0  0  0
    9.4112   -7.8373    2.3440 C   0  0  0  0  0  0  0  0  0  0  0  0
   10.3265   -6.8122    2.2953 C   0  0  0  0  0  0  0  0  0  0  0  0
    9.9559   -5.4615    2.3036 C   0  0  0  0  0  0  0  0  0  0  0  0
    8.6545   -5.0274    2.3938 C   0  0  0  0  0  0  0  0  0  0  0  0
    7.7137   -6.0547    2.4715 C   0  0  0  0  0  0  0  0  0  0  0  0
    6.2611   -5.9797    2.6131 C   0  0  0  0  0  0  0  0  0  0  0  0
    5.5831   -4.9195    3.1670 C   0  0  0  0  0  0  0  0  0  0  0  0
    4.2229   -4.9624    3.5266 C   0  0  0  0  0  0  0  0  0  0  0  0
    3.1308   -4.9732    3.8853 N   0  0  0  0  0  0  0  0  0  0  0  0
    6.2069   -3.7280    3.5747 C   0  0  0  0  0  0  0  0  0  0  0  0
    6.6669   -2.7395    3.9388 N   0  0  0  0  0  0  0  0  0  0  0  0
   11.3840   -4.9853    2.2107 C   0  0  0  0  0  0  0  0  0  0  0  0
   12.0432   -4.4387    3.5006 C   0  0  0  0  0  0  0  0  0  0  0  0
   11.3320   -5.1001    4.6551 C   0  0  0  0  0  0  0  0  0  0  0  0
   11.6809   -6.3797    4.6645 C   0  0  0  0  0  0  0  0  0  0  0  0
   12.6340   -6.6064    3.5171 C   0  0  0  0  0  0  0  0  0  0  0  0
   13.3504   -5.2468    3.4878 C   0  0  0  0  0  0  0  0  0  0  0  0
   11.7986   -6.4905    2.2174 C   0  0  0  0  0  0  0  0  0  0  0  0
    3.4075   -6.9780    1.6054 C   0  0  0  0  0  0  0  0  0  0  0  0
    2.0263   -7.1735    1.7670 C   0  0  0  0  0  0  0  0  0  0  0  0
    1.4252   -8.2117    2.4221 N   0  0  0  0  0  0  0  0  0  0  0  0
    1.9400   -9.5168    2.3756 C   0  0  0  0  0  0  0  0  0  0  0  0
    2.4784  -10.0267    1.1963 C   0  0  0  0  0  0  0  0  0  0  0  0
    2.9877  -11.3097    1.1657 C   0  0  0  0  0  0  0  0  0  0  0  0
    2.9659  -12.1167    2.2972 C   0  0  0  0  0  0  0  0  0  0  0  0
    3.5584  -13.4904    2.2700 C   0  0  0  0  0  0  0  0  0  0  0  0
    2.4058  -11.6061    3.4632 C   0  0  0  0  0  0  0  0  0  0  0  0
    1.8976  -10.3234    3.5093 C   0  0  0  0  0  0  0  0  0  0  0  0
    0.1968   -7.9837    3.0751 C   0  0  0  0  0  0  0  0  0  0  0  0
   -0.8543   -8.8812    2.9263 C   0  0  0  0  0  0  0  0  0  0  0  0
   -2.0728   -8.6218    3.5234 C   0  0  0  0  0  0  0  0  0  0  0  0
   -2.2679   -7.4755    4.2821 C   0  0  0  0  0  0  0  0  0  0  0  0
   -3.5907   -7.1783    4.9172 C   0  0  0  0  0  0  0  0  0  0  0  0
   -1.1975   -6.6036    4.4538 C   0  0  0  0  0  0  0  0  0  0  0  0
    0.0254   -6.8482    3.8638 C   0  0  0  0  0  0  0  0  0  0  0  0
    1.3042   -6.0880    1.2194 C   0  0  0  0  0  0  0  0  0  0  0  0
   -0.3792   -5.7059    1.1179 S   0  0  0  0  0  0  0  0  0  0  0  0
   -0.0188   -4.2552    0.1930 C   0  0  0  0  0  0  0  0  0  0  0  0
    1.3427   -4.1203   -0.0661 C   0  0  0  0  0  0  0  0  0  0  0  0
    1.9321   -3.1320   -0.8389 N   0  0  0  0  0  0  0  0  0  0  0  0
    3.1738   -2.6308   -0.4047 C   0  0  0  0  0  0  0  0  0  0  0  0
    4.2347   -2.4740   -1.2910 C   0  0  0  0  0  0  0  0  0  0  0  0
    5.4478   -1.9961   -0.8371 C   0  0  0  0  0  0  0  0  0  0  0  0
    5.6367   -1.6642    0.4998 C   0  0  0  0  0  0  0  0  0  0  0  0
    6.9478   -1.1231    0.9794 C   0  0  0  0  0  0  0  0  0  0  0  0
    4.5706   -1.8254    1.3768 C   0  0  0  0  0  0  0  0  0  0  0  0
    3.3535   -2.3061    0.9370 C   0  0  0  0  0  0  0  0  0  0  0  0
    1.3997   -2.7614   -2.0755 C   0  0  0  0  0  0  0  0  0  0  0  0
    0.6138   -3.6445   -2.8150 C   0  0  0  0  0  0  0  0  0  0  0  0
    0.0398   -3.2403   -4.0020 C   0  0  0  0  0  0  0  0  0  0  0  0
    0.2370   -1.9559   -4.4980 C   0  0  0  0  0  0  0  0  0  0  0  0
   -0.4019   -1.5344   -5.7863 C   0  0  0  0  0  0  0  0  0  0  0  0
    1.0416   -1.0894   -3.7701 C   0  0  0  0  0  0  0  0  0  0  0  0
    1.6138   -1.4772   -2.5751 C   0  0  0  0  0  0  0  0  0  0  0  0
    2.0796   -5.1536    0.5539 C   0  0  0  0  0  0  0  0  0  0  0  0
    3.7590   -5.5318    0.6471 S   0  0  0  0  0  0  0  0  0  0  0  0
   -1.0582   -3.3259   -0.0877 C   0  0  0  0  0  0  0  0  0  0  0  0
   -2.4274   -3.5322   -0.0337 C   0  0  0  0  0  0  0  0  0  0  0  0
   -3.0570   -4.8425    0.1483 C   0  0  0  0  0  0  0  0  0  0  0  0
   -3.9896   -5.0398    1.1608 C   0  0  0  0  0  0  0  0  0  0  0  0
   -4.5430   -6.2920    1.3482 C   0  0  0  0  0  0  0  0  0  0  0  0
   -4.1727   -7.3491    0.5358 C   0  0  0  0  0  0  0  0  0  0  0  0
   -3.2653   -7.1621   -0.4987 C   0  0  0  0  0  0  0  0  0  0  0  0
   -2.8194   -8.3069   -1.3621 C   0  0  0  0  0  0  0  0  0  0  0  0
   -1.4625   -8.8263   -0.8826 C   0  0  0  0  0  0  0  0  0  0  0  0
   -2.7222   -5.9014   -0.6889 C   0  0  0  0  0  0  0  0  0  0  0  0
   -3.1381   -2.3311   -0.2045 C   0  0  0  0  0  0  0  0  0  0  0  0
   -4.8459   -1.9621   -0.2701 S   0  0  0  0  0  0  0  0  0  0  0  0
   -4.4494   -0.3038   -0.5831 C   0  0  0  0  0  0  0  0  0  0  0  0
   -5.0899    0.9146   -0.8544 C   0  0  0  0  0  0  0  0  0  0  0  0
   -6.4600    1.2171   -1.0068 C   0  0  0  0  0  0  0  0  0  0  0  0
   -6.8374    2.5478   -1.3811 C   0  0  0  0  0  0  0  0  0  0  0  0
   -8.1462    2.6820   -1.5293 N   0  0  0  0  0  0  0  0  0  0  0  0
   -8.8440    1.2536   -1.2188 S   0  0  0  0  0  0  0  0  0  0  0  0
   -7.5029    0.4104   -0.8856 N   0  0  0  0  0  0  0  0  0  0  0  0
   -5.8320    3.5307   -1.5034 C   0  0  0  0  0  0  0  0  0  0  0  0
   -5.9285    4.9058   -1.7605 C   0  0  0  0  0  0  0  0  0  0  0  0
   -7.1382    6.0924   -2.1130 S   0  0  0  0  0  0  0  0  0  0  0  0
   -5.8892    7.3145   -2.1421 C   0  0  0  0  0  0  0  0  0  0  0  0
   -5.9308    8.7031   -2.3466 C   0  0  0  0  0  0  0  0  0  0  0  0
   -7.1773    9.4419   -2.5685 C   0  0  0  0  0  0  0  0  0  0  0  0
   -8.0344    9.0687   -3.5979 C   0  0  0  0  0  0  0  0  0  0  0  0
   -9.2132    9.7636   -3.7926 C   0  0  0  0  0  0  0  0  0  0  0  0
   -9.5453   10.8217   -2.9650 C   0  0  0  0  0  0  0  0  0  0  0  0
   -8.7102   11.1923   -1.9183 C   0  0  0  0  0  0  0  0  0  0  0  0
   -9.0424   12.3636   -1.0403 C   0  0  0  0  0  0  0  0  0  0  0  0
   -8.3454   13.6247   -1.5555 C   0  0  0  0  0  0  0  0  0  0  0  0
   -7.5290   10.4918   -1.7274 C   0  0  0  0  0  0  0  0  0  0  0  0
   -4.6649    9.2637   -2.2747 C   0  0  0  0  0  0  0  0  0  0  0  0
   -3.4233    8.0624   -1.9169 S   0  0  0  0  0  0  0  0  0  0  0  0
   -4.6100    6.8079   -1.8874 C   0  0  0  0  0  0  0  0  0  0  0  0
   -4.6348    5.4266   -1.6709 C   0  0  0  0  0  0  0  0  0  0  0  0
   -3.7429    4.4252   -1.3940 N   0  0  0  0  0  0  0  0  0  0  0  0
   -4.4532    3.2395   -1.2869 C   0  0  0  0  0  0  0  0  0  0  0  0
   -4.0699    1.8935   -1.0410 C   0  0  0  0  0  0  0  0  0  0  0  0
   -2.8407    1.2635   -0.9008 N   0  0  0  0  0  0  0  0  0  0  0  0
   -3.0767   -0.0564   -0.6315 C   0  0  0  0  0  0  0  0  0  0  0  0
   -2.3244   -1.2158   -0.4089 C   0  0  0  0  0  0  0  0  0  0  0  0
   -0.6523   -1.6334   -0.3430 S   0  0  0  0  0  0  0  0  0  0  0  0
   -1.5206    1.6560   -1.3410 C   0  0  0  0  0  0  0  0  0  0  0  0
   -1.4794    1.8898   -2.8493 C   0  0  0  0  0  0  0  0  0  0  0  0
   -2.4143    4.7709   -0.9426 C   0  0  0  0  0  0  0  0  0  0  0  0
   -2.2581    4.5490    0.5600 C   0  0  0  0  0  0  0  0  0  0  0  0
   -4.2416   10.5923   -2.5196 C   0  0  0  0  0  0  0  0  0  0  0  0
   -2.9447   11.0848   -2.3504 C   0  0  0  0  0  0  0  0  0  0  0  0
   -2.7498   12.3451   -2.6807 N   0  0  0  0  0  0  0  0  0  0  0  0
   -3.8185   12.9342   -3.1247 C   0  0  0  0  0  0  0  0  0  0  0  0
   -5.2415   11.8510   -3.1488 S   0  0  0  0  0  0  0  0  0  0  0  0
   -3.9811   14.2637   -3.5562 C   0  0  0  0  0  0  0  0  0  0  0  0
   -3.0453   15.2458   -3.6711 C   0  0  0  0  0  0  0  0  0  0  0  0
   -1.5901   15.2262   -3.4152 C   0  0  0  0  0  0  0  0  0  0  0  0
   -0.8886   14.3214   -3.0345 O   0  0  0  0  0  0  0  0  0  0  0  0
   -1.1237   16.6061   -3.7459 C   0  0  0  0  0  0  0  0  0  0  0  0
    0.1556   17.1222   -3.6827 C   0  0  0  0  0  0  0  0  0  0  0  0
    0.3485   18.4498   -4.0484 C   0  0  0  0  0  0  0  0  0  0  0  0
    1.9279   19.1241   -3.9820 Cl  0  0  0  0  0  0  0  0  0  0  0  0
   -0.7270   19.2401   -4.4692 C   0  0  0  0  0  0  0  0  0  0  0  0
   -0.4591   20.8780   -4.9163 Cl  0  0  0  0  0  0  0  0  0  0  0  0
   -2.0131   18.7159   -4.5313 C   0  0  0  0  0  0  0  0  0  0  0  0
   -2.1983   17.3961   -4.1668 C   0  0  0  0  0  0  0  0  0  0  0  0
   -3.4439   16.5903   -4.1412 C   0  0  0  0  0  0  0  0  0  0  0  0
   -4.5590   16.9550   -4.4409 O   0  0  0  0  0  0  0  0  0  0  0  0
    4.3109   -8.8065    2.2516 H   0  0  0  0  0  0  0  0  0  0  0  0
    9.6585   -8.8872    2.3231 H   0  0  0  0  0  0  0  0  0  0  0  0
    8.3737   -3.9869    2.3894 H   0  0  0  0  0  0  0  0  0  0  0  0
   11.6340   -4.3936    1.3321 H   0  0  0  0  0  0  0  0  0  0  0  0
   12.1234   -3.3557    3.5433 H   0  0  0  0  0  0  0  0  0  0  0  0
   10.6243   -4.5982    5.2884 H   0  0  0  0  0  0  0  0  0  0  0  0
   11.3233   -7.1612    5.3091 H   0  0  0  0  0  0  0  0  0  0  0  0
   13.2539   -7.4974    3.5769 H   0  0  0  0  0  0  0  0  0  0  0  0
   13.9617   -5.0734    4.3723 H   0  0  0  0  0  0  0  0  0  0  0  0
   13.9485   -5.0906    2.5908 H   0  0  0  0  0  0  0  0  0  0  0  0
   12.3290   -6.8782    1.3494 H   0  0  0  0  0  0  0  0  0  0  0  0
    2.4956   -9.4107    0.3089 H   0  0  0  0  0  0  0  0  0  0  0  0
    3.4097  -11.6903    0.2472 H   0  0  0  0  0  0  0  0  0  0  0  0
    3.0399  -14.1521    2.9590 H   0  0  0  0  0  0  0  0  0  0  0  0
    4.6050  -13.4417    2.5706 H   0  0  0  0  0  0  0  0  0  0  0  0
    3.5160  -13.9135    1.2693 H   0  0  0  0  0  0  0  0  0  0  0  0
    2.3774  -12.2191    4.3520 H   0  0  0  0  0  0  0  0  0  0  0  0
    1.4738   -9.9326    4.4224 H   0  0  0  0  0  0  0  0  0  0  0  0
   -0.7113   -9.7762    2.3379 H   0  0  0  0  0  0  0  0  0  0  0  0
   -2.8868   -9.3191    3.3884 H   0  0  0  0  0  0  0  0  0  0  0  0
   -3.4968   -7.1674    6.0030 H   0  0  0  0  0  0  0  0  0  0  0  0
   -3.9456   -6.1973    4.6046 H   0  0  0  0  0  0  0  0  0  0  0  0
   -4.3322   -7.9237    4.6415 H   0  0  0  0  0  0  0  0  0  0  0  0
   -1.3256   -5.7190    5.0601 H   0  0  0  0  0  0  0  0  0  0  0  0
    0.8526   -6.1687    4.0075 H   0  0  0  0  0  0  0  0  0  0  0  0
    4.1040   -2.7358   -2.3308 H   0  0  0  0  0  0  0  0  0  0  0  0
    6.2666   -1.8854   -1.5338 H   0  0  0  0  0  0  0  0  0  0  0  0
    7.7725   -1.5388    0.4039 H   0  0  0  0  0  0  0  0  0  0  0  0
    6.9687   -0.0390    0.8621 H   0  0  0  0  0  0  0  0  0  0  0  0
    7.0935   -1.3499    2.0331 H   0  0  0  0  0  0  0  0  0  0  0  0
    4.6949   -1.5689    2.4183 H   0  0  0  0  0  0  0  0  0  0  0  0
    2.5343   -2.4312    1.6305 H   0  0  0  0  0  0  0  0  0  0  0  0
    0.4550   -4.6498   -2.4528 H   0  0  0  0  0  0  0  0  0  0  0  0
   -0.5720   -3.9356   -4.5590 H   0  0  0  0  0  0  0  0  0  0  0  0
   -1.4785   -1.6970   -5.7505 H   0  0  0  0  0  0  0  0  0  0  0  0
   -0.0067   -2.1213   -6.6151 H   0  0  0  0  0  0  0  0  0  0  0  0
   -0.2138   -0.4829   -5.9890 H   0  0  0  0  0  0  0  0  0  0  0  0
    1.2154   -0.0876   -4.1368 H   0  0  0  0  0  0  0  0  0  0  0  0
    2.2167   -0.7828   -2.0094 H   0  0  0  0  0  0  0  0  0  0  0  0
   -4.2634   -4.2158    1.8026 H   0  0  0  0  0  0  0  0  0  0  0  0
   -5.2647   -6.4467    2.1363 H   0  0  0  0  0  0  0  0  0  0  0  0
   -4.5993   -8.3282    0.6994 H   0  0  0  0  0  0  0  0  0  0  0  0
   -2.7336   -7.9776   -2.4001 H   0  0  0  0  0  0  0  0  0  0  0  0
   -3.5521   -9.1145   -1.3196 H   0  0  0  0  0  0  0  0  0  0  0  0
   -1.1362   -9.6666   -1.4914 H   0  0  0  0  0  0  0  0  0  0  0  0
   -1.5312   -9.1478    0.1535 H   0  0  0  0  0  0  0  0  0  0  0  0
   -0.7130   -8.0404   -0.9418 H   0  0  0  0  0  0  0  0  0  0  0  0
   -2.0242   -5.7334   -1.4975 H   0  0  0  0  0  0  0  0  0  0  0  0
   -7.7681    8.2472   -4.2459 H   0  0  0  0  0  0  0  0  0  0  0  0
   -9.8764    9.4780   -4.5955 H   0  0  0  0  0  0  0  0  0  0  0  0
  -10.4664   11.3624   -3.1273 H   0  0  0  0  0  0  0  0  0  0  0  0
   -8.7158   12.1646   -0.0174 H   0  0  0  0  0  0  0  0  0  0  0  0
  -10.1218   12.5258   -1.0294 H   0  0  0  0  0  0  0  0  0  0  0  0
   -8.5905   14.4784   -0.9284 H   0  0  0  0  0  0  0  0  0  0  0  0
   -8.6582   13.8404   -2.5746 H   0  0  0  0  0  0  0  0  0  0  0  0
   -7.2660   13.4898   -1.5520 H   0  0  0  0  0  0  0  0  0  0  0  0
   -6.8775   10.7554   -0.9057 H   0  0  0  0  0  0  0  0  0  0  0  0
   -0.8521    0.8282   -1.0920 H   0  0  0  0  0  0  0  0  0  0  0  0
   -1.1706    2.5261   -0.7868 H   0  0  0  0  0  0  0  0  0  0  0  0
   -1.7096    0.9643   -3.3721 H   0  0  0  0  0  0  0  0  0  0  0  0
   -0.4862    2.2161   -3.1460 H   0  0  0  0  0  0  0  0  0  0  0  0
   -2.2044    2.6427   -3.1510 H   0  0  0  0  0  0  0  0  0  0  0  0
   -1.6618    4.2272   -1.5134 H   0  0  0  0  0  0  0  0  0  0  0  0
   -2.2780    5.8324   -1.1644 H   0  0  0  0  0  0  0  0  0  0  0  0
   -1.2457    4.7946    0.8690 H   0  0  0  0  0  0  0  0  0  0  0  0
   -2.9502    5.1891    1.1023 H   0  0  0  0  0  0  0  0  0  0  0  0
   -2.4700    3.5170    0.8297 H   0  0  0  0  0  0  0  0  0  0  0  0
   -2.1248   10.5012   -1.9698 H   0  0  0  0  0  0  0  0  0  0  0  0
   -4.9919   14.5428   -3.8391 H   0  0  0  0  0  0  0  0  0  0  0  0
    0.9834   16.5115   -3.3583 H   0  0  0  0  0  0  0  0  0  0  0  0
   -2.8427   19.3238   -4.8565 H   0  0  0  0  0  0  0  0  0  0  0  0
  1  2  2  0  0  0  0
  2  3  1  0  0  0  0
  3  4  2  0  0  0  0
  3  5  1  0  0  0  0
  5  6  2  0  0  0  0
  6  7  1  0  0  0  0
  7  8  2  0  0  0  0
  8  9  1  0  0  0  0
  9 10  2  0  0  0  0
 10 11  1  0  0  0  0
 11 12  2  0  0  0  0
 12 13  1  0  0  0  0
 13 14  3  0  0  0  0
 12 15  1  0  0  0  0
 15 16  3  0  0  0  0
  8 17  1  0  0  0  0
 17 18  1  0  0  0  0
 18 19  1  0  0  0  0
 19 20  2  0  0  0  0
 20 21  1  0  0  0  0
 21 22  1  0  0  0  0
 21 23  1  0  0  0  0
  1 24  1  0  0  0  0
 24 25  2  0  0  0  0
 25 26  1  0  0  0  0
 26 27  1  0  0  0  0
 27 28  2  0  0  0  0
 28 29  1  0  0  0  0
 29 30  2  0  0  0  0
 30 31  1  0  0  0  0
 30 32  1  0  0  0  0
 32 33  2  0  0  0  0
 26 34  1  0  0  0  0
 34 35  2  0  0  0  0
 35 36  1  0  0  0  0
 36 37  2  0  0  0  0
 37 38  1  0  0  0  0
 37 39  1  0  0  0  0
 39 40  2  0  0  0  0
 25 41  1  0  0  0  0
 41 42  1  0  0  0  0
 42 43  1  0  0  0  0
 43 44  2  0  0  0  0
 44 45  1  0  0  0  0
 45 46  1  0  0  0  0
 46 47  2  0  0  0  0
 47 48  1  0  0  0  0
 48 49  2  0  0  0  0
 49 50  1  0  0  0  0
 49 51  1  0  0  0  0
 51 52  2  0  0  0  0
 45 53  1  0  0  0  0
 53 54  2  0  0  0  0
 54 55  1  0  0  0  0
 55 56  2  0  0  0  0
 56 57  1  0  0  0  0
 56 58  1  0  0  0  0
 58 59  2  0  0  0  0
 44 60  1  0  0  0  0
 60 61  1  0  0  0  0
 43 62  1  0  0  0  0
 62 63  2  0  0  0  0
 63 64  1  0  0  0  0
 64 65  2  0  0  0  0
 65 66  1  0  0  0  0
 66 67  2  0  0  0  0
 67 68  1  0  0  0  0
 68 69  1  0  0  0  0
 69 70  1  0  0  0  0
 68 71  2  0  0  0  0
 63 72  1  0  0  0  0
 72 73  1  0  0  0  0
 73 74  1  0  0  0  0
 74 75  1  0  0  0  0
 75 76  1  0  0  0  0
 76 77  1  0  0  0  0
 77 78  2  0  0  0  0
 78 79  1  0  0  0  0
 79 80  1  0  0  0  0
 77 81  1  0  0  0  0
 81 82  1  0  0  0  0
 82 83  1  0  0  0  0
 83 84  1  0  0  0  0
 84 85  1  0  0  0  0
 85 86  1  0  0  0  0
 86 87  2  0  0  0  0
 87 88  1  0  0  0  0
 88 89  2  0  0  0  0
 89 90  1  0  0  0  0
 90 91  1  0  0  0  0
 91 92  1  0  0  0  0
 90 93  2  0  0  0  0
 85 94  2  0  0  0  0
 94 95  1  0  0  0  0
 95 96  1  0  0  0  0
 96 97  1  0  0  0  0
 97 98  1  0  0  0  0
 98 99  1  0  0  0  0
 99100  1  0  0  0  0
100101  1  0  0  0  0
101102  1  0  0  0  0
102103  1  0  0  0  0
103104  1  0  0  0  0
101105  1  0  0  0  0
105106  1  0  0  0  0
 98107  1  0  0  0  0
107108  1  0  0  0  0
 94109  1  0  0  0  0
109110  2  0  0  0  0
110111  1  0  0  0  0
111112  2  0  0  0  0
112113  1  0  0  0  0
112114  1  0  0  0  0
114115  2  0  0  0  0
115116  1  0  0  0  0
116117  2  0  0  0  0
116118  1  0  0  0  0
118119  2  0  0  0  0
119120  1  0  0  0  0
120121  1  0  0  0  0
120122  2  0  0  0  0
122123  1  0  0  0  0
122124  1  0  0  0  0
124125  2  0  0  0  0
125126  1  0  0  0  0
126127  2  0  0  0  0
 11  2  1  0  0  0  0
 23 17  1  0  0  0  0
 61 24  1  0  0  0  0
104 62  1  0  0  0  0
113109  1  0  0  0  0
126115  1  0  0  0  0
 10  5  1  0  0  0  0
 22 18  1  0  0  0  0
 33 27  1  0  0  0  0
 40 34  1  0  0  0  0
 60 41  2  0  0  0  0
 71 64  1  0  0  0  0
103 72  2  0  0  0  0
125118  1  0  0  0  0
 23  7  1  0  0  0  0
 52 46  1  0  0  0  0
 59 53  1  0  0  0  0
102 74  2  0  0  0  0
100 75  2  0  0  0  0
 80 76  2  0  0  0  0
 99 81  2  0  0  0  0
 97 82  2  0  0  0  0
 96 84  2  0  0  0  0
 93 86  1  0  0  0  0
  1128  1  0  0  0  0
  6129  1  0  0  0  0
  9130  1  0  0  0  0
 17131  1  0  0  0  0
 18132  1  0  0  0  0
 19133  1  0  0  0  0
 20134  1  0  0  0  0
 21135  1  0  0  0  0
 22136  1  0  0  0  0
 22137  1  0  0  0  0
 23138  1  0  0  0  0
 28139  1  0  0  0  0
 29140  1  0  0  0  0
 31141  1  0  0  0  0
 31142  1  0  0  0  0
 31143  1  0  0  0  0
 32144  1  0  0  0  0
 33145  1  0  0  0  0
 35146  1  0  0  0  0
 36147  1  0  0  0  0
 38148  1  0  0  0  0
 38149  1  0  0  0  0
 38150  1  0  0  0  0
 39151  1  0  0  0  0
 40152  1  0  0  0  0
 47153  1  0  0  0  0
 48154  1  0  0  0  0
 50155  1  0  0  0  0
 50156  1  0  0  0  0
 50157  1  0  0  0  0
 51158  1  0  0  0  0
 52159  1  0  0  0  0
 54160  1  0  0  0  0
 55161  1  0  0  0  0
 57162  1  0  0  0  0
 57163  1  0  0  0  0
 57164  1  0  0  0  0
 58165  1  0  0  0  0
 59166  1  0  0  0  0
 65167  1  0  0  0  0
 66168  1  0  0  0  0
 67169  1  0  0  0  0
 69170  1  0  0  0  0
 69171  1  0  0  0  0
 70172  1  0  0  0  0
 70173  1  0  0  0  0
 70174  1  0  0  0  0
 71175  1  0  0  0  0
 87176  1  0  0  0  0
 88177  1  0  0  0  0
 89178  1  0  0  0  0
 91179  1  0  0  0  0
 91180  1  0  0  0  0
 92181  1  0  0  0  0
 92182  1  0  0  0  0
 92183  1  0  0  0  0
 93184  1  0  0  0  0
105185  1  0  0  0  0
105186  1  0  0  0  0
106187  1  0  0  0  0
106188  1  0  0  0  0
106189  1  0  0  0  0
107190  1  0  0  0  0
107191  1  0  0  0  0
108192  1  0  0  0  0
108193  1  0  0  0  0
108194  1  0  0  0  0
110195  1  0  0  0  0
114196  1  0  0  0  0
119197  1  0  0  0  0
124198  1  0  0  0  0
M  END
