
  xtb     02092208033D
 energy: -408.471048771001 gnorm: 0.000386236319 xtb: 6.4.1 (unknown)
249275  0     0  0            999 V2000
    1.8621   11.1244    8.6634 C   0  0  0  0  0  0  0  0  0  0  0  0
    2.1547   10.9575   10.0009 C   0  0  0  0  0  0  0  0  0  0  0  0
    1.5575    9.9723   10.9013 C   0  0  0  0  0  0  0  0  0  0  0  0
    0.7396    9.1063   10.6334 O   0  0  0  0  0  0  0  0  0  0  0  0
    2.1167   10.2397   12.2390 C   0  0  0  0  0  0  0  0  0  0  0  0
    1.8435    9.5472   13.4156 C   0  0  0  0  0  0  0  0  0  0  0  0
    2.5240   10.0195   14.5123 C   0  0  0  0  0  0  0  0  0  0  0  0
    3.4059   11.1048   14.4433 C   0  0  0  0  0  0  0  0  0  0  0  0
    3.6793   11.8001   13.2884 C   0  0  0  0  0  0  0  0  0  0  0  0
    3.0015   11.3324   12.1594 C   0  0  0  0  0  0  0  0  0  0  0  0
    3.0542   11.7842   10.7672 C   0  0  0  0  0  0  0  0  0  0  0  0
    3.8613   12.7932   10.2955 C   0  0  0  0  0  0  0  0  0  0  0  0
    4.0308   13.1474    8.9439 C   0  0  0  0  0  0  0  0  0  0  0  0
    4.2667   13.4817    7.8688 N   0  0  0  0  0  0  0  0  0  0  0  0
    4.6781   13.6069   11.1047 C   0  0  0  0  0  0  0  0  0  0  0  0
    5.3572   14.3208   11.6962 N   0  0  0  0  0  0  0  0  0  0  0  0
    3.7435   11.0268   15.9121 C   0  0  0  0  0  0  0  0  0  0  0  0
    5.1009   10.3877   16.2741 C   0  0  0  0  0  0  0  0  0  0  0  0
    4.9472   10.0124   17.7303 C   0  0  0  0  0  0  0  0  0  0  0  0
    4.1115    8.9838   17.7960 C   0  0  0  0  0  0  0  0  0  0  0  0
    3.6862    8.6469   16.3850 C   0  0  0  0  0  0  0  0  0  0  0  0
    4.9736    9.0012   15.6296 C   0  0  0  0  0  0  0  0  0  0  0  0
    2.7595    9.8156   15.9887 C   0  0  0  0  0  0  0  0  0  0  0  0
    1.0929   10.3406    7.8088 C   0  0  0  0  0  0  0  0  0  0  0  0
    0.9553   10.6121    6.4204 C   0  0  0  0  0  0  0  0  0  0  0  0
    1.3155   11.7764    5.7997 N   0  0  0  0  0  0  0  0  0  0  0  0
    1.7295   11.7237    4.4537 C   0  0  0  0  0  0  0  0  0  0  0  0
    1.2264   12.6233    3.5204 C   0  0  0  0  0  0  0  0  0  0  0  0
    1.6339   12.5508    2.2027 C   0  0  0  0  0  0  0  0  0  0  0  0
    2.5429   11.5872    1.7841 C   0  0  0  0  0  0  0  0  0  0  0  0
    2.9652   11.4877    0.3510 C   0  0  0  0  0  0  0  0  0  0  0  0
    3.0485   10.6997    2.7280 C   0  0  0  0  0  0  0  0  0  0  0  0
    2.6537   10.7642    4.0483 C   0  0  0  0  0  0  0  0  0  0  0  0
    1.1636   13.0361    6.4086 C   0  0  0  0  0  0  0  0  0  0  0  0
    0.0939   13.2908    7.2629 C   0  0  0  0  0  0  0  0  0  0  0  0
   -0.0378   14.5318    7.8534 C   0  0  0  0  0  0  0  0  0  0  0  0
    0.8743   15.5490    7.5985 C   0  0  0  0  0  0  0  0  0  0  0  0
    0.7462   16.8907    8.2512 C   0  0  0  0  0  0  0  0  0  0  0  0
    1.9233   15.2917    6.7232 C   0  0  0  0  0  0  0  0  0  0  0  0
    2.0752   14.0527    6.1346 C   0  0  0  0  0  0  0  0  0  0  0  0
    0.4087    9.5057    5.7504 C   0  0  0  0  0  0  0  0  0  0  0  0
    0.0374    9.1522    4.0922 S   0  0  0  0  0  0  0  0  0  0  0  0
   -0.5508    7.5526    4.5434 C   0  0  0  0  0  0  0  0  0  0  0  0
   -0.5387    7.3568    5.9209 C   0  0  0  0  0  0  0  0  0  0  0  0
   -1.0143    6.2452    6.5942 N   0  0  0  0  0  0  0  0  0  0  0  0
   -0.3472    5.9049    7.7897 C   0  0  0  0  0  0  0  0  0  0  0  0
   -1.0442    5.7351    8.9815 C   0  0  0  0  0  0  0  0  0  0  0  0
   -0.3562    5.4947   10.1527 C   0  0  0  0  0  0  0  0  0  0  0  0
    1.0318    5.4208   10.1697 C   0  0  0  0  0  0  0  0  0  0  0  0
    1.7678    5.2422   11.4613 C   0  0  0  0  0  0  0  0  0  0  0  0
    1.7164    5.5583    8.9697 C   0  0  0  0  0  0  0  0  0  0  0  0
    1.0395    5.7936    7.7892 C   0  0  0  0  0  0  0  0  0  0  0  0
   -2.2556    5.6751    6.2996 C   0  0  0  0  0  0  0  0  0  0  0  0
   -3.2657    6.4048    5.6766 C   0  0  0  0  0  0  0  0  0  0  0  0
   -4.4718    5.8052    5.3738 C   0  0  0  0  0  0  0  0  0  0  0  0
   -4.7139    4.4740    5.6883 C   0  0  0  0  0  0  0  0  0  0  0  0
   -6.0144    3.8212    5.3316 C   0  0  0  0  0  0  0  0  0  0  0  0
   -3.7071    3.7560    6.3236 C   0  0  0  0  0  0  0  0  0  0  0  0
   -2.4942    4.3396    6.6242 C   0  0  0  0  0  0  0  0  0  0  0  0
    0.0450    8.4605    6.5892 C   0  0  0  0  0  0  0  0  0  0  0  0
    0.3732    8.7901    8.2520 S   0  0  0  0  0  0  0  0  0  0  0  0
   -0.8437    6.6428    3.4945 C   0  0  0  0  0  0  0  0  0  0  0  0
   -0.8989    6.9478    2.1493 C   0  0  0  0  0  0  0  0  0  0  0  0
   -1.0408    5.8047    1.3616 C   0  0  0  0  0  0  0  0  0  0  0  0
   -1.1136    5.5207   -0.3538 S   0  0  0  0  0  0  0  0  0  0  0  0
   -1.1892    3.7865   -0.0767 C   0  0  0  0  0  0  0  0  0  0  0  0
   -1.2135    2.8209   -1.0660 C   0  0  0  0  0  0  0  0  0  0  0  0
   -1.2437    1.4925   -0.6661 C   0  0  0  0  0  0  0  0  0  0  0  0
   -1.2377    0.2576   -1.4019 C   0  0  0  0  0  0  0  0  0  0  0  0
   -1.1903   -0.7980   -0.5402 C   0  0  0  0  0  0  0  0  0  0  0  0
   -1.1578   -0.3550    0.8948 C   0  0  0  0  0  0  0  0  0  0  0  0
    0.2107   -0.6252    1.5653 C   0  0  0  0  0  0  0  0  0  0  0  0
    0.6283   -2.0843    1.6809 C   0  0  0  0  0  0  0  0  0  0  0  0
   -2.3225   -0.9140    1.7232 C   0  0  0  0  0  0  0  0  0  0  0  0
   -3.6764   -0.5946    1.1004 C   0  0  0  0  0  0  0  0  0  0  0  0
   -1.2443    1.1502    0.7139 C   0  0  0  0  0  0  0  0  0  0  0  0
   -1.2234    2.1105    1.6887 C   0  0  0  0  0  0  0  0  0  0  0  0
   -1.1895    3.4536    1.2973 C   0  0  0  0  0  0  0  0  0  0  0  0
   -1.0983    4.6218    2.0880 C   0  0  0  0  0  0  0  0  0  0  0  0
   -0.9800    4.9165    3.7819 S   0  0  0  0  0  0  0  0  0  0  0  0
   -1.1479   -2.0294   -1.2749 C   0  0  0  0  0  0  0  0  0  0  0  0
   -1.0900   -1.6922   -2.6561 C   0  0  0  0  0  0  0  0  0  0  0  0
   -1.1844   -0.1854   -2.8412 C   0  0  0  0  0  0  0  0  0  0  0  0
    0.0733    0.4371   -3.4813 C   0  0  0  0  0  0  0  0  0  0  0  0
    0.3544    0.0626   -4.9306 C   0  0  0  0  0  0  0  0  0  0  0  0
   -2.4919    0.0877   -3.6137 C   0  0  0  0  0  0  0  0  0  0  0  0
   -2.8653    1.5521   -3.7934 C   0  0  0  0  0  0  0  0  0  0  0  0
   -1.0321   -2.6697   -3.6137 C   0  0  0  0  0  0  0  0  0  0  0  0
   -0.9861   -4.0076   -3.2026 C   0  0  0  0  0  0  0  0  0  0  0  0
   -1.0791   -4.3296   -1.8296 C   0  0  0  0  0  0  0  0  0  0  0  0
   -1.1795   -3.3519   -0.8578 C   0  0  0  0  0  0  0  0  0  0  0  0
   -1.0229   -6.0604   -1.5299 S   0  0  0  0  0  0  0  0  0  0  0  0
   -0.8253   -6.3575   -3.2307 C   0  0  0  0  0  0  0  0  0  0  0  0
   -0.6315   -7.5150   -3.9884 C   0  0  0  0  0  0  0  0  0  0  0  0
   -0.5183   -7.2319   -5.3309 C   0  0  0  0  0  0  0  0  0  0  0  0
   -0.6303   -5.5103   -5.6538 S   0  0  0  0  0  0  0  0  0  0  0  0
   -0.8453   -5.1849   -3.9742 C   0  0  0  0  0  0  0  0  0  0  0  0
   -0.3190   -8.1441   -6.4047 C   0  0  0  0  0  0  0  0  0  0  0  0
   -0.7188   -9.4758   -6.4932 C   0  0  0  0  0  0  0  0  0  0  0  0
   -1.5405  -10.1349   -5.6034 N   0  0  0  0  0  0  0  0  0  0  0  0
   -2.5690   -9.4714   -4.9209 C   0  0  0  0  0  0  0  0  0  0  0  0
   -2.9063   -9.8656   -3.6274 C   0  0  0  0  0  0  0  0  0  0  0  0
   -3.8638   -9.1723   -2.9158 C   0  0  0  0  0  0  0  0  0  0  0  0
   -4.5096   -8.0705   -3.4645 C   0  0  0  0  0  0  0  0  0  0  0  0
   -5.4969   -7.2831   -2.6596 C   0  0  0  0  0  0  0  0  0  0  0  0
   -4.1952   -7.7066   -4.7678 C   0  0  0  0  0  0  0  0  0  0  0  0
   -3.2451   -8.3972   -5.4932 C   0  0  0  0  0  0  0  0  0  0  0  0
   -1.4181  -11.5350   -5.4928 C   0  0  0  0  0  0  0  0  0  0  0  0
   -0.1611  -12.1173   -5.3638 C   0  0  0  0  0  0  0  0  0  0  0  0
   -0.0362  -13.4920   -5.3197 C   0  0  0  0  0  0  0  0  0  0  0  0
   -1.1526  -14.3141   -5.3938 C   0  0  0  0  0  0  0  0  0  0  0  0
   -1.0105  -15.8039   -5.4101 C   0  0  0  0  0  0  0  0  0  0  0  0
   -2.4064  -13.7208   -5.4874 C   0  0  0  0  0  0  0  0  0  0  0  0
   -2.5452  -12.3490   -5.5373 C   0  0  0  0  0  0  0  0  0  0  0  0
   -0.2108  -10.0761   -7.6704 C   0  0  0  0  0  0  0  0  0  0  0  0
   -0.3478  -11.6649   -8.3335 S   0  0  0  0  0  0  0  0  0  0  0  0
    0.6315  -11.1757   -9.7204 C   0  0  0  0  0  0  0  0  0  0  0  0
    0.9324   -9.7805   -9.6965 C   0  0  0  0  0  0  0  0  0  0  0  0
    1.5369   -9.0832  -10.6999 N   0  0  0  0  0  0  0  0  0  0  0  0
    1.4070   -9.4245  -12.0612 C   0  0  0  0  0  0  0  0  0  0  0  0
    2.4831   -9.2434  -12.9253 C   0  0  0  0  0  0  0  0  0  0  0  0
    2.3744   -9.6162  -14.2517 C   0  0  0  0  0  0  0  0  0  0  0  0
    1.2098  -10.1903  -14.7444 C   0  0  0  0  0  0  0  0  0  0  0  0
    1.1339  -10.6844  -16.1538 C   0  0  0  0  0  0  0  0  0  0  0  0
    0.1244  -10.3221  -13.8819 C   0  0  0  0  0  0  0  0  0  0  0  0
    0.2093   -9.9329  -12.5616 C   0  0  0  0  0  0  0  0  0  0  0  0
    2.2476   -7.9060  -10.3807 C   0  0  0  0  0  0  0  0  0  0  0  0
    3.1787   -7.9111   -9.3463 C   0  0  0  0  0  0  0  0  0  0  0  0
    3.8689   -6.7571   -9.0349 C   0  0  0  0  0  0  0  0  0  0  0  0
    3.6543   -5.5803   -9.7434 C   0  0  0  0  0  0  0  0  0  0  0  0
    4.3854   -4.3268   -9.3766 C   0  0  0  0  0  0  0  0  0  0  0  0
    2.7331   -5.5918  -10.7842 C   0  0  0  0  0  0  0  0  0  0  0  0
    2.0345   -6.7385  -11.1053 C   0  0  0  0  0  0  0  0  0  0  0  0
    0.4915   -9.2031   -8.4953 C   0  0  0  0  0  0  0  0  0  0  0  0
    0.5589   -7.6032   -7.8273 S   0  0  0  0  0  0  0  0  0  0  0  0
    1.1577  -12.0453  -10.6606 C   0  0  0  0  0  0  0  0  0  0  0  0
    0.9221  -13.3922  -10.8840 C   0  0  0  0  0  0  0  0  0  0  0  0
   -0.0710  -14.2064  -10.1992 C   0  0  0  0  0  0  0  0  0  0  0  0
   -0.7642  -13.9077   -9.2435 O   0  0  0  0  0  0  0  0  0  0  0  0
   -0.0901  -15.5049  -10.9137 C   0  0  0  0  0  0  0  0  0  0  0  0
   -0.8124  -16.6416  -10.6072 C   0  0  0  0  0  0  0  0  0  0  0  0
   -1.9395  -16.6605   -9.3255 Cl  0  0  0  0  0  0  0  0  0  0  0  0
   -0.5903  -17.7961  -11.3707 C   0  0  0  0  0  0  0  0  0  0  0  0
   -1.4860  -19.2184  -11.0523 Cl  0  0  0  0  0  0  0  0  0  0  0  0
    0.3866  -17.7936  -12.3627 C   0  0  0  0  0  0  0  0  0  0  0  0
    0.6958  -19.2359  -13.2316 Cl  0  0  0  0  0  0  0  0  0  0  0  0
    1.1335  -16.6398  -12.6539 C   0  0  0  0  0  0  0  0  0  0  0  0
    2.4178  -16.7796  -13.7832 Cl  0  0  0  0  0  0  0  0  0  0  0  0
    0.8481  -15.4664  -11.9658 C   0  0  0  0  0  0  0  0  0  0  0  0
    1.4482  -14.1338  -11.9994 C   0  0  0  0  0  0  0  0  0  0  0  0
    2.2937  -13.6307  -12.9705 C   0  0  0  0  0  0  0  0  0  0  0  0
    2.3409  -14.0360  -14.3160 C   0  0  0  0  0  0  0  0  0  0  0  0
    2.3346  -14.1643  -15.4587 N   0  0  0  0  0  0  0  0  0  0  0  0
    3.1443  -12.5270  -12.7817 C   0  0  0  0  0  0  0  0  0  0  0  0
    3.9350  -11.6965  -12.6832 N   0  0  0  0  0  0  0  0  0  0  0  0
    2.3246   11.9772    8.1832 H   0  0  0  0  0  0  0  0  0  0  0  0
    1.1514    8.7193   13.4235 H   0  0  0  0  0  0  0  0  0  0  0  0
    4.3573   12.6363   13.2552 H   0  0  0  0  0  0  0  0  0  0  0  0
    3.5219   11.9160   16.4992 H   0  0  0  0  0  0  0  0  0  0  0  0
    5.9697   10.9848   16.0112 H   0  0  0  0  0  0  0  0  0  0  0  0
    5.4027   10.5514   18.5402 H   0  0  0  0  0  0  0  0  0  0  0  0
    3.7294    8.4923   18.6715 H   0  0  0  0  0  0  0  0  0  0  0  0
    3.2668    7.6572   16.2238 H   0  0  0  0  0  0  0  0  0  0  0  0
    5.8012    8.3458   15.8962 H   0  0  0  0  0  0  0  0  0  0  0  0
    4.8610    9.0242   14.5473 H   0  0  0  0  0  0  0  0  0  0  0  0
    1.8814    9.8983   16.6269 H   0  0  0  0  0  0  0  0  0  0  0  0
    0.5127   13.3714    3.8319 H   0  0  0  0  0  0  0  0  0  0  0  0
    1.2309   13.2516    1.4861 H   0  0  0  0  0  0  0  0  0  0  0  0
    2.6457   12.3608   -0.2119 H   0  0  0  0  0  0  0  0  0  0  0  0
    4.0471   11.3960    0.2750 H   0  0  0  0  0  0  0  0  0  0  0  0
    2.5237   10.6026   -0.1072 H   0  0  0  0  0  0  0  0  0  0  0  0
    3.7649    9.9509    2.4234 H   0  0  0  0  0  0  0  0  0  0  0  0
    3.0616   10.0779    4.7760 H   0  0  0  0  0  0  0  0  0  0  0  0
   -0.6286   12.5136    7.4651 H   0  0  0  0  0  0  0  0  0  0  0  0
   -0.8702   14.7136    8.5181 H   0  0  0  0  0  0  0  0  0  0  0  0
   -0.1917   16.9738    8.7945 H   0  0  0  0  0  0  0  0  0  0  0  0
    1.5665   17.0451    8.9521 H   0  0  0  0  0  0  0  0  0  0  0  0
    0.7932   17.6843    7.5073 H   0  0  0  0  0  0  0  0  0  0  0  0
    2.6435   16.0677    6.5128 H   0  0  0  0  0  0  0  0  0  0  0  0
    2.9050   13.8624    5.4726 H   0  0  0  0  0  0  0  0  0  0  0  0
   -2.1211    5.8179    8.9857 H   0  0  0  0  0  0  0  0  0  0  0  0
   -0.9054    5.3868   11.0765 H   0  0  0  0  0  0  0  0  0  0  0  0
    1.8623    6.2090   11.9571 H   0  0  0  0  0  0  0  0  0  0  0  0
    2.7675    4.8487   11.2926 H   0  0  0  0  0  0  0  0  0  0  0  0
    1.2297    4.5722   12.1286 H   0  0  0  0  0  0  0  0  0  0  0  0
    2.7949    5.4912    8.9584 H   0  0  0  0  0  0  0  0  0  0  0  0
    1.5806    5.9116    6.8611 H   0  0  0  0  0  0  0  0  0  0  0  0
   -3.1056    7.4448    5.4331 H   0  0  0  0  0  0  0  0  0  0  0  0
   -5.2425    6.3871    4.8888 H   0  0  0  0  0  0  0  0  0  0  0  0
   -6.2796    3.0604    6.0624 H   0  0  0  0  0  0  0  0  0  0  0  0
   -5.9341    3.3375    4.3571 H   0  0  0  0  0  0  0  0  0  0  0  0
   -6.8156    4.5545    5.2783 H   0  0  0  0  0  0  0  0  0  0  0  0
   -3.8731    2.7192    6.5791 H   0  0  0  0  0  0  0  0  0  0  0  0
   -1.7163    3.7658    7.1052 H   0  0  0  0  0  0  0  0  0  0  0  0
   -0.8286    7.9516    1.7718 H   0  0  0  0  0  0  0  0  0  0  0  0
   -1.1861    3.1114   -2.1031 H   0  0  0  0  0  0  0  0  0  0  0  0
    0.9713   -0.0891    0.9915 H   0  0  0  0  0  0  0  0  0  0  0  0
    0.1804   -0.1833    2.5636 H   0  0  0  0  0  0  0  0  0  0  0  0
    0.7515   -2.5329    0.6996 H   0  0  0  0  0  0  0  0  0  0  0  0
   -0.0968   -2.6616    2.2485 H   0  0  0  0  0  0  0  0  0  0  0  0
    1.5821   -2.1422    2.2016 H   0  0  0  0  0  0  0  0  0  0  0  0
   -2.2732   -0.4885    2.7278 H   0  0  0  0  0  0  0  0  0  0  0  0
   -2.2171   -1.9959    1.8090 H   0  0  0  0  0  0  0  0  0  0  0  0
   -3.8080    0.4806    1.0009 H   0  0  0  0  0  0  0  0  0  0  0  0
   -4.4785   -0.9851    1.7226 H   0  0  0  0  0  0  0  0  0  0  0  0
   -3.7574   -1.0429    0.1126 H   0  0  0  0  0  0  0  0  0  0  0  0
   -1.2166    1.8697    2.7411 H   0  0  0  0  0  0  0  0  0  0  0  0
   -0.0163    1.5217   -3.4068 H   0  0  0  0  0  0  0  0  0  0  0  0
    0.9300    0.1422   -2.8689 H   0  0  0  0  0  0  0  0  0  0  0  0
   -0.4890    0.2990   -5.5739 H   0  0  0  0  0  0  0  0  0  0  0  0
    1.2154    0.6266   -5.2841 H   0  0  0  0  0  0  0  0  0  0  0  0
    0.5864   -0.9941   -5.0248 H   0  0  0  0  0  0  0  0  0  0  0  0
   -2.4116   -0.3873   -4.5927 H   0  0  0  0  0  0  0  0  0  0  0  0
   -3.2995   -0.4160   -3.0752 H   0  0  0  0  0  0  0  0  0  0  0  0
   -3.7704    1.6216   -4.3939 H   0  0  0  0  0  0  0  0  0  0  0  0
   -3.0611    2.0211   -2.8336 H   0  0  0  0  0  0  0  0  0  0  0  0
   -2.0802    2.1016   -4.3063 H   0  0  0  0  0  0  0  0  0  0  0  0
   -1.0182   -2.4540   -4.6703 H   0  0  0  0  0  0  0  0  0  0  0  0
   -1.2762   -3.6225    0.1804 H   0  0  0  0  0  0  0  0  0  0  0  0
   -0.5409   -8.5003   -3.5739 H   0  0  0  0  0  0  0  0  0  0  0  0
   -2.4005  -10.7098   -3.1814 H   0  0  0  0  0  0  0  0  0  0  0  0
   -4.1018   -9.4814   -1.9084 H   0  0  0  0  0  0  0  0  0  0  0  0
   -6.0676   -7.9338   -2.0008 H   0  0  0  0  0  0  0  0  0  0  0  0
   -6.1842   -6.7424   -3.3059 H   0  0  0  0  0  0  0  0  0  0  0  0
   -4.9716   -6.5555   -2.0393 H   0  0  0  0  0  0  0  0  0  0  0  0
   -4.7000   -6.8671   -5.2241 H   0  0  0  0  0  0  0  0  0  0  0  0
   -3.0222   -8.1015   -6.5077 H   0  0  0  0  0  0  0  0  0  0  0  0
    0.7148  -11.4864   -5.3091 H   0  0  0  0  0  0  0  0  0  0  0  0
    0.9466  -13.9322   -5.2323 H   0  0  0  0  0  0  0  0  0  0  0  0
   -1.8576  -16.2832   -4.9246 H   0  0  0  0  0  0  0  0  0  0  0  0
   -0.9740  -16.1513   -6.4429 H   0  0  0  0  0  0  0  0  0  0  0  0
   -0.0935  -16.1160   -4.9158 H   0  0  0  0  0  0  0  0  0  0  0  0
   -3.2867  -14.3446   -5.5413 H   0  0  0  0  0  0  0  0  0  0  0  0
   -3.5229  -11.8988   -5.6276 H   0  0  0  0  0  0  0  0  0  0  0  0
    3.4076   -8.8336  -12.5501 H   0  0  0  0  0  0  0  0  0  0  0  0
    3.2238   -9.4885  -14.9050 H   0  0  0  0  0  0  0  0  0  0  0  0
    0.1111  -10.6633  -16.5222 H   0  0  0  0  0  0  0  0  0  0  0  0
    1.4875  -11.7164  -16.1983 H   0  0  0  0  0  0  0  0  0  0  0  0
    1.7630  -10.0881  -16.8099 H   0  0  0  0  0  0  0  0  0  0  0  0
   -0.8028  -10.7343  -14.2527 H   0  0  0  0  0  0  0  0  0  0  0  0
   -0.6436  -10.0391  -11.9074 H   0  0  0  0  0  0  0  0  0  0  0  0
    3.3615   -8.8241   -8.7989 H   0  0  0  0  0  0  0  0  0  0  0  0
    4.5905   -6.7709   -8.2314 H   0  0  0  0  0  0  0  0  0  0  0  0
    5.4011   -4.5497   -9.0576 H   0  0  0  0  0  0  0  0  0  0  0  0
    3.8757   -3.8311   -8.5498 H   0  0  0  0  0  0  0  0  0  0  0  0
    4.4208   -3.6361  -10.2153 H   0  0  0  0  0  0  0  0  0  0  0  0
    2.5550   -4.6884  -11.3488 H   0  0  0  0  0  0  0  0  0  0  0  0
    1.3176   -6.7365  -11.9128 H   0  0  0  0  0  0  0  0  0  0  0  0
    1.8611  -11.5843  -11.3407 H   0  0  0  0  0  0  0  0  0  0  0  0
  1  2  2  0  0  0  0
  2  3  1  0  0  0  0
  3  4  2  0  0  0  0
  3  5  1  0  0  0  0
  5  6  2  0  0  0  0
  6  7  1  0  0  0  0
  7  8  2  0  0  0  0
  8  9  1  0  0  0  0
  9 10  2  0  0  0  0
 10 11  1  0  0  0  0
 11 12  2  0  0  0  0
 12 13  1  0  0  0  0
 13 14  3  0  0  0  0
 12 15  1  0  0  0  0
 15 16  3  0  0  0  0
  8 17  1  0  0  0  0
 17 18  1  0  0  0  0
 18 19  1  0  0  0  0
 19 20  2  0  0  0  0
 20 21  1  0  0  0  0
 21 22  1  0  0  0  0
 21 23  1  0  0  0  0
  1 24  1  0  0  0  0
 24 25  2  0  0  0  0
 25 26  1  0  0  0  0
 26 27  1  0  0  0  0
 27 28  2  0  0  0  0
 28 29  1  0  0  0  0
 29 30  2  0  0  0  0
 30 31  1  0  0  0  0
 30 32  1  0  0  0  0
 32 33  2  0  0  0  0
 26 34  1  0  0  0  0
 34 35  2  0  0  0  0
 35 36  1  0  0  0  0
 36 37  2  0  0  0  0
 37 38  1  0  0  0  0
 37 39  1  0  0  0  0
 39 40  2  0  0  0  0
 25 41  1  0  0  0  0
 41 42  1  0  0  0  0
 42 43  1  0  0  0  0
 43 44  2  0  0  0  0
 44 45  1  0  0  0  0
 45 46  1  0  0  0  0
 46 47  2  0  0  0  0
 47 48  1  0  0  0  0
 48 49  2  0  0  0  0
 49 50  1  0  0  0  0
 49 51  1  0  0  0  0
 51 52  2  0  0  0  0
 45 53  1  0  0  0  0
 53 54  2  0  0  0  0
 54 55  1  0  0  0  0
 55 56  2  0  0  0  0
 56 57  1  0  0  0  0
 56 58  1  0  0  0  0
 58 59  2  0  0  0  0
 44 60  1  0  0  0  0
 60 61  1  0  0  0  0
 43 62  1  0  0  0  0
 62 63  2  0  0  0  0
 63 64  1  0  0  0  0
 64 65  1  0  0  0  0
 65 66  1  0  0  0  0
 66 67  2  0  0  0  0
 67 68  1  0  0  0  0
 68 69  1  0  0  0  0
 69 70  2  0  0  0  0
 70 71  1  0  0  0  0
 71 72  1  0  0  0  0
 72 73  1  0  0  0  0
 71 74  1  0  0  0  0
 74 75  1  0  0  0  0
 71 76  1  0  0  0  0
 76 77  1  0  0  0  0
 77 78  2  0  0  0  0
 78 79  1  0  0  0  0
 79 80  1  0  0  0  0
 70 81  1  0  0  0  0
 81 82  2  0  0  0  0
 82 83  1  0  0  0  0
 83 84  1  0  0  0  0
 84 85  1  0  0  0  0
 83 86  1  0  0  0  0
 86 87  1  0  0  0  0
 82 88  1  0  0  0  0
 88 89  2  0  0  0  0
 89 90  1  0  0  0  0
 90 91  2  0  0  0  0
 90 92  1  0  0  0  0
 92 93  1  0  0  0  0
 93 94  1  0  0  0  0
 94 95  2  0  0  0  0
 95 96  1  0  0  0  0
 96 97  1  0  0  0  0
 95 98  1  0  0  0  0
 98 99  2  0  0  0  0
 99100  1  0  0  0  0
100101  1  0  0  0  0
101102  2  0  0  0  0
102103  1  0  0  0  0
103104  2  0  0  0  0
104105  1  0  0  0  0
104106  1  0  0  0  0
106107  2  0  0  0  0
100108  1  0  0  0  0
108109  2  0  0  0  0
109110  1  0  0  0  0
110111  2  0  0  0  0
111112  1  0  0  0  0
111113  1  0  0  0  0
113114  2  0  0  0  0
 99115  1  0  0  0  0
115116  1  0  0  0  0
116117  1  0  0  0  0
117118  2  0  0  0  0
118119  1  0  0  0  0
119120  1  0  0  0  0
120121  2  0  0  0  0
121122  1  0  0  0  0
122123  2  0  0  0  0
123124  1  0  0  0  0
123125  1  0  0  0  0
125126  2  0  0  0  0
119127  1  0  0  0  0
127128  2  0  0  0  0
128129  1  0  0  0  0
129130  2  0  0  0  0
130131  1  0  0  0  0
130132  1  0  0  0  0
132133  2  0  0  0  0
118134  1  0  0  0  0
134135  1  0  0  0  0
117136  1  0  0  0  0
136137  2  0  0  0  0
137138  1  0  0  0  0
138139  2  0  0  0  0
138140  1  0  0  0  0
140141  2  0  0  0  0
141142  1  0  0  0  0
141143  1  0  0  0  0
143144  1  0  0  0  0
143145  2  0  0  0  0
145146  1  0  0  0  0
145147  1  0  0  0  0
147148  1  0  0  0  0
147149  2  0  0  0  0
149150  1  0  0  0  0
150151  2  0  0  0  0
151152  1  0  0  0  0
152153  3  0  0  0  0
151154  1  0  0  0  0
154155  3  0  0  0  0
 11  2  1  0  0  0  0
 23 17  1  0  0  0  0
 61 24  1  0  0  0  0
 80 62  1  0  0  0  0
 91 81  1  0  0  0  0
 97 93  2  0  0  0  0
135 98  1  0  0  0  0
150137  1  0  0  0  0
 10  5  1  0  0  0  0
 22 18  1  0  0  0  0
 33 27  1  0  0  0  0
 40 34  1  0  0  0  0
 60 41  2  0  0  0  0
 79 64  2  0  0  0  0
 97 89  1  0  0  0  0
107101  1  0  0  0  0
114108  1  0  0  0  0
134115  2  0  0  0  0
149140  1  0  0  0  0
 23  7  1  0  0  0  0
 52 46  1  0  0  0  0
 59 53  1  0  0  0  0
 78 66  1  0  0  0  0
126120  1  0  0  0  0
133127  1  0  0  0  0
 76 68  2  0  0  0  0
 83 69  1  0  0  0  0
  1156  1  0  0  0  0
  6157  1  0  0  0  0
  9158  1  0  0  0  0
 17159  1  0  0  0  0
 18160  1  0  0  0  0
 19161  1  0  0  0  0
 20162  1  0  0  0  0
 21163  1  0  0  0  0
 22164  1  0  0  0  0
 22165  1  0  0  0  0
 23166  1  0  0  0  0
 28167  1  0  0  0  0
 29168  1  0  0  0  0
 31169  1  0  0  0  0
 31170  1  0  0  0  0
 31171  1  0  0  0  0
 32172  1  0  0  0  0
 33173  1  0  0  0  0
 35174  1  0  0  0  0
 36175  1  0  0  0  0
 38176  1  0  0  0  0
 38177  1  0  0  0  0
 38178  1  0  0  0  0
 39179  1  0  0  0  0
 40180  1  0  0  0  0
 47181  1  0  0  0  0
 48182  1  0  0  0  0
 50183  1  0  0  0  0
 50184  1  0  0  0  0
 50185  1  0  0  0  0
 51186  1  0  0  0  0
 52187  1  0  0  0  0
 54188  1  0  0  0  0
 55189  1  0  0  0  0
 57190  1  0  0  0  0
 57191  1  0  0  0  0
 57192  1  0  0  0  0
 58193  1  0  0  0  0
 59194  1  0  0  0  0
 63195  1  0  0  0  0
 67196  1  0  0  0  0
 72197  1  0  0  0  0
 72198  1  0  0  0  0
 73199  1  0  0  0  0
 73200  1  0  0  0  0
 73201  1  0  0  0  0
 74202  1  0  0  0  0
 74203  1  0  0  0  0
 75204  1  0  0  0  0
 75205  1  0  0  0  0
 75206  1  0  0  0  0
 77207  1  0  0  0  0
 84208  1  0  0  0  0
 84209  1  0  0  0  0
 85210  1  0  0  0  0
 85211  1  0  0  0  0
 85212  1  0  0  0  0
 86213  1  0  0  0  0
 86214  1  0  0  0  0
 87215  1  0  0  0  0
 87216  1  0  0  0  0
 87217  1  0  0  0  0
 88218  1  0  0  0  0
 91219  1  0  0  0  0
 94220  1  0  0  0  0
102221  1  0  0  0  0
103222  1  0  0  0  0
105223  1  0  0  0  0
105224  1  0  0  0  0
105225  1  0  0  0  0
106226  1  0  0  0  0
107227  1  0  0  0  0
109228  1  0  0  0  0
110229  1  0  0  0  0
112230  1  0  0  0  0
112231  1  0  0  0  0
112232  1  0  0  0  0
113233  1  0  0  0  0
114234  1  0  0  0  0
121235  1  0  0  0  0
122236  1  0  0  0  0
124237  1  0  0  0  0
124238  1  0  0  0  0
124239  1  0  0  0  0
125240  1  0  0  0  0
126241  1  0  0  0  0
128242  1  0  0  0  0
129243  1  0  0  0  0
131244  1  0  0  0  0
131245  1  0  0  0  0
131246  1  0  0  0  0
132247  1  0  0  0  0
133248  1  0  0  0  0
136249  1  0  0  0  0
M  END
