
  xtb     02142205423D
 energy: -386.724201622788 gnorm: 0.000618541081 xtb: 6.4.1 (unknown)
233260  0     0  0            999 V2000
   -5.2760   -4.5713    7.6242 C   0  0  0  0  0  0  0  0  0  0  0  0
   -5.1658   -3.6996    8.6840 C   0  0  0  0  0  0  0  0  0  0  0  0
   -4.1964   -2.6106    8.8215 C   0  0  0  0  0  0  0  0  0  0  0  0
   -3.1873   -2.4142    8.1653 O   0  0  0  0  0  0  0  0  0  0  0  0
   -4.6820   -1.7676    9.9310 C   0  0  0  0  0  0  0  0  0  0  0  0
   -4.1159   -0.5835   10.3956 C   0  0  0  0  0  0  0  0  0  0  0  0
   -4.8023   -0.0057   11.4367 C   0  0  0  0  0  0  0  0  0  0  0  0
   -5.9646   -0.5674   11.9790 C   0  0  0  0  0  0  0  0  0  0  0  0
   -6.5320   -1.7377   11.5315 C   0  0  0  0  0  0  0  0  0  0  0  0
   -5.8518   -2.3389   10.4690 C   0  0  0  0  0  0  0  0  0  0  0  0
   -6.1411   -3.5740    9.7396 C   0  0  0  0  0  0  0  0  0  0  0  0
   -7.1678   -4.4435   10.0235 C   0  0  0  0  0  0  0  0  0  0  0  0
   -7.3496   -5.7083    9.4329 C   0  0  0  0  0  0  0  0  0  0  0  0
   -7.5512   -6.7680    9.0343 N   0  0  0  0  0  0  0  0  0  0  0  0
   -8.1824   -4.2008   10.9684 C   0  0  0  0  0  0  0  0  0  0  0  0
   -9.0654   -4.0580   11.6901 N   0  0  0  0  0  0  0  0  0  0  0  0
   -6.1209    0.5376   12.9948 C   0  0  0  0  0  0  0  0  0  0  0  0
   -5.6981    0.2112   14.4425 C   0  0  0  0  0  0  0  0  0  0  0  0
   -5.5052    1.5693   15.0777 C   0  0  0  0  0  0  0  0  0  0  0  0
   -4.4044    2.1027   14.5634 C   0  0  0  0  0  0  0  0  0  0  0  0
   -3.8349    1.1139   13.5719 C   0  0  0  0  0  0  0  0  0  0  0  0
   -4.2328   -0.2020   14.2527 C   0  0  0  0  0  0  0  0  0  0  0  0
   -4.8245    1.1647   12.3889 C   0  0  0  0  0  0  0  0  0  0  0  0
   -4.5193   -4.6763    6.4585 C   0  0  0  0  0  0  0  0  0  0  0  0
   -4.9201   -5.4318    5.3266 C   0  0  0  0  0  0  0  0  0  0  0  0
   -6.1382   -6.0362    5.1610 N   0  0  0  0  0  0  0  0  0  0  0  0
   -7.3283   -5.5081    5.7000 C   0  0  0  0  0  0  0  0  0  0  0  0
   -7.5469   -4.1326    5.7403 C   0  0  0  0  0  0  0  0  0  0  0  0
   -8.6931   -3.6331    6.3244 C   0  0  0  0  0  0  0  0  0  0  0  0
   -9.6590   -4.4821    6.8544 C   0  0  0  0  0  0  0  0  0  0  0  0
  -10.8742   -3.9379    7.5389 C   0  0  0  0  0  0  0  0  0  0  0  0
   -9.4575   -5.8534    6.7554 C   0  0  0  0  0  0  0  0  0  0  0  0
   -8.3063   -6.3676    6.1918 C   0  0  0  0  0  0  0  0  0  0  0  0
   -6.2333   -7.1464    4.2997 C   0  0  0  0  0  0  0  0  0  0  0  0
   -7.2713   -7.2338    3.3764 C   0  0  0  0  0  0  0  0  0  0  0  0
   -7.3531   -8.3211    2.5317 C   0  0  0  0  0  0  0  0  0  0  0  0
   -6.4113   -9.3432    2.5814 C   0  0  0  0  0  0  0  0  0  0  0  0
   -6.4997  -10.5009    1.6373 C   0  0  0  0  0  0  0  0  0  0  0  0
   -5.3854   -9.2518    3.5125 C   0  0  0  0  0  0  0  0  0  0  0  0
   -5.2933   -8.1706    4.3668 C   0  0  0  0  0  0  0  0  0  0  0  0
   -3.9182   -5.4231    4.3413 C   0  0  0  0  0  0  0  0  0  0  0  0
   -3.7909   -6.0928    2.7433 S   0  0  0  0  0  0  0  0  0  0  0  0
   -2.2394   -5.2925    2.5227 C   0  0  0  0  0  0  0  0  0  0  0  0
   -1.8260   -4.6042    3.6563 C   0  0  0  0  0  0  0  0  0  0  0  0
   -0.6095   -3.9585    3.7938 N   0  0  0  0  0  0  0  0  0  0  0  0
    0.5669   -4.5135    3.2793 C   0  0  0  0  0  0  0  0  0  0  0  0
    0.7294   -5.8941    3.1882 C   0  0  0  0  0  0  0  0  0  0  0  0
    1.8672   -6.4268    2.6197 C   0  0  0  0  0  0  0  0  0  0  0  0
    2.8832   -5.6061    2.1415 C   0  0  0  0  0  0  0  0  0  0  0  0
    4.1024   -6.2030    1.5077 C   0  0  0  0  0  0  0  0  0  0  0  0
    2.7297   -4.2315    2.2651 C   0  0  0  0  0  0  0  0  0  0  0  0
    1.5895   -3.6856    2.8213 C   0  0  0  0  0  0  0  0  0  0  0  0
   -0.5624   -2.8050    4.5966 C   0  0  0  0  0  0  0  0  0  0  0  0
   -1.5544   -1.8363    4.4755 C   0  0  0  0  0  0  0  0  0  0  0  0
   -1.5527   -0.7350    5.3073 C   0  0  0  0  0  0  0  0  0  0  0  0
   -0.5636   -0.5663    6.2672 C   0  0  0  0  0  0  0  0  0  0  0  0
   -0.6044    0.5956    7.2103 C   0  0  0  0  0  0  0  0  0  0  0  0
    0.4415   -1.5216    6.3575 C   0  0  0  0  0  0  0  0  0  0  0  0
    0.4475   -2.6313    5.5370 C   0  0  0  0  0  0  0  0  0  0  0  0
   -2.7992   -4.6719    4.6815 C   0  0  0  0  0  0  0  0  0  0  0  0
   -2.9436   -3.9149    6.2244 S   0  0  0  0  0  0  0  0  0  0  0  0
   -1.6254   -5.2737    1.2376 C   0  0  0  0  0  0  0  0  0  0  0  0
   -1.6854   -6.2126    0.2249 C   0  0  0  0  0  0  0  0  0  0  0  0
   -2.2108   -7.5707    0.3614 C   0  0  0  0  0  0  0  0  0  0  0  0
   -1.9186   -8.3449    1.4817 C   0  0  0  0  0  0  0  0  0  0  0  0
   -2.3709   -9.6467    1.5584 C   0  0  0  0  0  0  0  0  0  0  0  0
   -3.1098  -10.1930    0.5230 C   0  0  0  0  0  0  0  0  0  0  0  0
   -3.4150   -9.4354   -0.5994 C   0  0  0  0  0  0  0  0  0  0  0  0
   -4.1648  -10.0257   -1.7593 C   0  0  0  0  0  0  0  0  0  0  0  0
   -3.1952  -10.4000   -2.8821 C   0  0  0  0  0  0  0  0  0  0  0  0
   -2.9625   -8.1263   -0.6675 C   0  0  0  0  0  0  0  0  0  0  0  0
   -1.1056   -5.7199   -0.9640 C   0  0  0  0  0  0  0  0  0  0  0  0
   -0.8670   -6.4138   -2.5522 S   0  0  0  0  0  0  0  0  0  0  0  0
   -0.1056   -4.9427   -3.0623 C   0  0  0  0  0  0  0  0  0  0  0  0
    0.4233   -4.3559   -4.2234 C   0  0  0  0  0  0  0  0  0  0  0  0
    0.4730   -4.8173   -5.5569 C   0  0  0  0  0  0  0  0  0  0  0  0
    0.9225   -3.9223   -6.5852 C   0  0  0  0  0  0  0  0  0  0  0  0
    0.8567   -4.4640   -7.7911 N   0  0  0  0  0  0  0  0  0  0  0  0
    0.2860   -5.9724   -7.6457 S   0  0  0  0  0  0  0  0  0  0  0  0
    0.0954   -5.9915   -6.0373 N   0  0  0  0  0  0  0  0  0  0  0  0
    1.3979   -2.6438   -6.2204 C   0  0  0  0  0  0  0  0  0  0  0  0
    1.9420   -1.6032   -6.9899 C   0  0  0  0  0  0  0  0  0  0  0  0
    2.2557   -1.2099   -8.6470 S   0  0  0  0  0  0  0  0  0  0  0  0
    2.9325    0.3206   -8.1310 C   0  0  0  0  0  0  0  0  0  0  0  0
    3.4370    1.4264   -8.8369 C   0  0  0  0  0  0  0  0  0  0  0  0
    3.3811    1.5252  -10.2941 C   0  0  0  0  0  0  0  0  0  0  0  0
    3.7426    0.4435  -11.0909 C   0  0  0  0  0  0  0  0  0  0  0  0
    3.6531    0.5424  -12.4661 C   0  0  0  0  0  0  0  0  0  0  0  0
    3.1974    1.7082  -13.0549 C   0  0  0  0  0  0  0  0  0  0  0  0
    2.8202    2.7944  -12.2740 C   0  0  0  0  0  0  0  0  0  0  0  0
    2.2760    4.0415  -12.9104 C   0  0  0  0  0  0  0  0  0  0  0  0
    0.7686    3.9111  -13.1371 C   0  0  0  0  0  0  0  0  0  0  0  0
    2.9099    2.6895  -10.8961 C   0  0  0  0  0  0  0  0  0  0  0  0
    3.8333    2.4378   -7.9677 C   0  0  0  0  0  0  0  0  0  0  0  0
    3.4844    2.0618   -6.2915 S   0  0  0  0  0  0  0  0  0  0  0  0
    2.9168    0.4934   -6.7434 C   0  0  0  0  0  0  0  0  0  0  0  0
    2.3414   -0.6057   -6.0971 C   0  0  0  0  0  0  0  0  0  0  0  0
    2.0478   -0.9751   -4.8115 N   0  0  0  0  0  0  0  0  0  0  0  0
    1.4443   -2.2213   -4.8601 C   0  0  0  0  0  0  0  0  0  0  0  0
    0.8528   -3.0453   -3.8675 C   0  0  0  0  0  0  0  0  0  0  0  0
    0.5658   -2.8449   -2.5264 N   0  0  0  0  0  0  0  0  0  0  0  0
   -0.0242   -3.9832   -2.0521 C   0  0  0  0  0  0  0  0  0  0  0  0
   -0.5991   -4.4260   -0.8546 C   0  0  0  0  0  0  0  0  0  0  0  0
   -0.8491   -3.7785    0.7240 S   0  0  0  0  0  0  0  0  0  0  0  0
    0.4620   -1.6220   -1.7641 C   0  0  0  0  0  0  0  0  0  0  0  0
   -0.5396   -0.6542   -2.3898 C   0  0  0  0  0  0  0  0  0  0  0  0
    2.7150   -0.3026   -3.7183 C   0  0  0  0  0  0  0  0  0  0  0  0
    3.7473   -1.2075   -3.0505 C   0  0  0  0  0  0  0  0  0  0  0  0
    4.5090    3.6679   -8.2464 C   0  0  0  0  0  0  0  0  0  0  0  0
    5.3781    3.8628   -9.3179 C   0  0  0  0  0  0  0  0  0  0  0  0
    5.6909    2.8544  -10.1475 F   0  0  0  0  0  0  0  0  0  0  0  0
    6.0126    5.0803   -9.5298 C   0  0  0  0  0  0  0  0  0  0  0  0
    6.8419    5.1751  -10.5804 F   0  0  0  0  0  0  0  0  0  0  0  0
    5.8926    6.1731   -8.6712 C   0  0  0  0  0  0  0  0  0  0  0  0
    5.0099    6.0110   -7.5673 C   0  0  0  0  0  0  0  0  0  0  0  0
    4.7543    7.0513   -6.7436 N   0  0  0  0  0  0  0  0  0  0  0  0
    3.9756    6.8547   -5.7089 C   0  0  0  0  0  0  0  0  0  0  0  0
    3.6488    7.8329   -4.8740 O   0  0  0  0  0  0  0  0  0  0  0  0
    4.1379    9.1529   -5.1032 C   0  0  0  0  0  0  0  0  0  0  0  0
    4.5136    9.7618   -3.7623 C   0  0  0  0  0  0  0  0  0  0  0  0
    3.4195    5.5639   -5.4185 C   0  0  0  0  0  0  0  0  0  0  0  0
    3.6039    4.5911   -6.2586 N   0  0  0  0  0  0  0  0  0  0  0  0
    4.3660    4.7701   -7.3529 C   0  0  0  0  0  0  0  0  0  0  0  0
    2.6177    5.3343   -4.1878 C   0  0  0  0  0  0  0  0  0  0  0  0
    6.6215    7.3676   -8.9732 C   0  0  0  0  0  0  0  0  0  0  0  0
    7.1259    8.3354   -8.1685 C   0  0  0  0  0  0  0  0  0  0  0  0
    7.5502    9.6246   -8.7874 C   0  0  0  0  0  0  0  0  0  0  0  0
    7.6673    9.8544   -9.9691 O   0  0  0  0  0  0  0  0  0  0  0  0
    7.7464   10.5578   -7.6631 C   0  0  0  0  0  0  0  0  0  0  0  0
    8.0772   11.9087   -7.7421 C   0  0  0  0  0  0  0  0  0  0  0  0
    8.1887   12.5314   -6.5226 C   0  0  0  0  0  0  0  0  0  0  0  0
    7.9817   11.8607   -5.3094 C   0  0  0  0  0  0  0  0  0  0  0  0
    7.6774   10.5237   -5.2159 C   0  0  0  0  0  0  0  0  0  0  0  0
    7.5583    9.8697   -6.4461 C   0  0  0  0  0  0  0  0  0  0  0  0
    7.2979    8.4599   -6.7386 C   0  0  0  0  0  0  0  0  0  0  0  0
    7.3951    7.4323   -5.8357 C   0  0  0  0  0  0  0  0  0  0  0  0
    7.4355    6.0678   -6.1828 C   0  0  0  0  0  0  0  0  0  0  0  0
    7.5156    4.9414   -6.3897 N   0  0  0  0  0  0  0  0  0  0  0  0
    7.4883    7.6038   -4.4417 C   0  0  0  0  0  0  0  0  0  0  0  0
    7.5032    7.6735   -3.2949 N   0  0  0  0  0  0  0  0  0  0  0  0
    8.2472   13.0977   -4.4890 C   0  0  0  0  0  0  0  0  0  0  0  0
    7.0326   13.8623   -3.9049 C   0  0  0  0  0  0  0  0  0  0  0  0
    5.8639   13.5946   -4.8202 C   0  0  0  0  0  0  0  0  0  0  0  0
    6.0870   14.2298   -5.9626 C   0  0  0  0  0  0  0  0  0  0  0  0
    7.4118   14.9404   -5.8406 C   0  0  0  0  0  0  0  0  0  0  0  0
    7.3943   15.2908   -4.3437 C   0  0  0  0  0  0  0  0  0  0  0  0
    8.5002   13.8400   -5.8391 C   0  0  0  0  0  0  0  0  0  0  0  0
   -6.1192   -5.2482    7.6638 H   0  0  0  0  0  0  0  0  0  0  0  0
   -3.2187   -0.1850    9.9482 H   0  0  0  0  0  0  0  0  0  0  0  0
   -7.4292   -2.1552   11.9573 H   0  0  0  0  0  0  0  0  0  0  0  0
   -7.0483    1.1049   12.9402 H   0  0  0  0  0  0  0  0  0  0  0  0
   -6.3519   -0.4840   14.9619 H   0  0  0  0  0  0  0  0  0  0  0  0
   -6.1968    2.0113   15.7708 H   0  0  0  0  0  0  0  0  0  0  0  0
   -3.9930    3.0792   14.7410 H   0  0  0  0  0  0  0  0  0  0  0  0
   -2.7906    1.2412   13.2989 H   0  0  0  0  0  0  0  0  0  0  0  0
   -4.0980   -1.0828   13.6278 H   0  0  0  0  0  0  0  0  0  0  0  0
   -3.7194   -0.3463   15.2019 H   0  0  0  0  0  0  0  0  0  0  0  0
   -4.8890    2.1499   11.9298 H   0  0  0  0  0  0  0  0  0  0  0  0
   -6.8070   -3.4603    5.3307 H   0  0  0  0  0  0  0  0  0  0  0  0
   -8.8419   -2.5634    6.3659 H   0  0  0  0  0  0  0  0  0  0  0  0
  -11.0547   -2.9043    7.2534 H   0  0  0  0  0  0  0  0  0  0  0  0
  -11.7529   -4.5318    7.2974 H   0  0  0  0  0  0  0  0  0  0  0  0
  -10.7365   -3.9734    8.6206 H   0  0  0  0  0  0  0  0  0  0  0  0
  -10.1993   -6.5305    7.1506 H   0  0  0  0  0  0  0  0  0  0  0  0
   -8.1489   -7.4340    6.1502 H   0  0  0  0  0  0  0  0  0  0  0  0
   -8.0049   -6.4429    3.3237 H   0  0  0  0  0  0  0  0  0  0  0  0
   -8.1594   -8.3758    1.8148 H   0  0  0  0  0  0  0  0  0  0  0  0
   -7.5347  -10.8026    1.4902 H   0  0  0  0  0  0  0  0  0  0  0  0
   -6.0901  -10.2139    0.6687 H   0  0  0  0  0  0  0  0  0  0  0  0
   -5.9328  -11.3501    2.0096 H   0  0  0  0  0  0  0  0  0  0  0  0
   -4.6504  -10.0400    3.5748 H   0  0  0  0  0  0  0  0  0  0  0  0
   -4.4991   -8.1174    5.0969 H   0  0  0  0  0  0  0  0  0  0  0  0
   -0.0399   -6.5450    3.5767 H   0  0  0  0  0  0  0  0  0  0  0  0
    1.9734   -7.4999    2.5497 H   0  0  0  0  0  0  0  0  0  0  0  0
    3.8434   -6.6656    0.5550 H   0  0  0  0  0  0  0  0  0  0  0  0
    4.8594   -5.4439    1.3271 H   0  0  0  0  0  0  0  0  0  0  0  0
    4.5269   -6.9759    2.1465 H   0  0  0  0  0  0  0  0  0  0  0  0
    3.5098   -3.5735    1.9093 H   0  0  0  0  0  0  0  0  0  0  0  0
    1.4754   -2.6143    2.8950 H   0  0  0  0  0  0  0  0  0  0  0  0
   -2.3280   -1.9597    3.7309 H   0  0  0  0  0  0  0  0  0  0  0  0
   -2.3368    0.0023    5.2140 H   0  0  0  0  0  0  0  0  0  0  0  0
   -1.2110    0.3302    8.0763 H   0  0  0  0  0  0  0  0  0  0  0  0
   -1.0524    1.4676    6.7389 H   0  0  0  0  0  0  0  0  0  0  0  0
    0.3926    0.8527    7.5608 H   0  0  0  0  0  0  0  0  0  0  0  0
    1.2217   -1.4059    7.0959 H   0  0  0  0  0  0  0  0  0  0  0  0
    1.2225   -3.3780    5.6310 H   0  0  0  0  0  0  0  0  0  0  0  0
   -1.3153   -7.9307    2.2746 H   0  0  0  0  0  0  0  0  0  0  0  0
   -2.1304  -10.2465    2.4242 H   0  0  0  0  0  0  0  0  0  0  0  0
   -3.4446  -11.2186    0.5834 H   0  0  0  0  0  0  0  0  0  0  0  0
   -4.7078  -10.9180   -1.4400 H   0  0  0  0  0  0  0  0  0  0  0  0
   -4.8886   -9.3003   -2.1381 H   0  0  0  0  0  0  0  0  0  0  0  0
   -3.7356  -10.8196   -3.7273 H   0  0  0  0  0  0  0  0  0  0  0  0
   -2.4763  -11.1360   -2.5290 H   0  0  0  0  0  0  0  0  0  0  0  0
   -2.6477   -9.5229   -3.2190 H   0  0  0  0  0  0  0  0  0  0  0  0
   -3.2027   -7.5265   -1.5331 H   0  0  0  0  0  0  0  0  0  0  0  0
    4.1164   -0.4589  -10.6324 H   0  0  0  0  0  0  0  0  0  0  0  0
    3.9451   -0.2944  -13.0829 H   0  0  0  0  0  0  0  0  0  0  0  0
    3.1353    1.7805  -14.1312 H   0  0  0  0  0  0  0  0  0  0  0  0
    2.7710    4.2121  -13.8684 H   0  0  0  0  0  0  0  0  0  0  0  0
    2.4716    4.9024  -12.2675 H   0  0  0  0  0  0  0  0  0  0  0  0
    0.2560    3.7545  -12.1904 H   0  0  0  0  0  0  0  0  0  0  0  0
    0.5556    3.0634  -13.7843 H   0  0  0  0  0  0  0  0  0  0  0  0
    0.3735    4.8116  -13.6020 H   0  0  0  0  0  0  0  0  0  0  0  0
    2.6047    3.5216  -10.2751 H   0  0  0  0  0  0  0  0  0  0  0  0
    1.4423   -1.1625   -1.6386 H   0  0  0  0  0  0  0  0  0  0  0  0
    0.1129   -1.9069   -0.7685 H   0  0  0  0  0  0  0  0  0  0  0  0
   -0.2621   -0.4053   -3.4113 H   0  0  0  0  0  0  0  0  0  0  0  0
   -1.5281   -1.1070   -2.4078 H   0  0  0  0  0  0  0  0  0  0  0  0
   -0.5882    0.2597   -1.8039 H   0  0  0  0  0  0  0  0  0  0  0  0
    3.2228    0.5611   -4.1545 H   0  0  0  0  0  0  0  0  0  0  0  0
    1.9913    0.0819   -2.9987 H   0  0  0  0  0  0  0  0  0  0  0  0
    3.2880   -2.1138   -2.6628 H   0  0  0  0  0  0  0  0  0  0  0  0
    4.5080   -1.4956   -3.7723 H   0  0  0  0  0  0  0  0  0  0  0  0
    4.2293   -0.6785   -2.2328 H   0  0  0  0  0  0  0  0  0  0  0  0
    3.3373    9.7287   -5.5826 H   0  0  0  0  0  0  0  0  0  0  0  0
    4.9922    9.1132   -5.7818 H   0  0  0  0  0  0  0  0  0  0  0  0
    4.9140   10.7596   -3.9138 H   0  0  0  0  0  0  0  0  0  0  0  0
    3.6395    9.8194   -3.1191 H   0  0  0  0  0  0  0  0  0  0  0  0
    5.2653    9.1492   -3.2706 H   0  0  0  0  0  0  0  0  0  0  0  0
    1.7682    6.0146   -4.1648 H   0  0  0  0  0  0  0  0  0  0  0  0
    2.2740    4.3047   -4.1675 H   0  0  0  0  0  0  0  0  0  0  0  0
    3.2279    5.5405   -3.3100 H   0  0  0  0  0  0  0  0  0  0  0  0
    6.7840    7.5471  -10.0335 H   0  0  0  0  0  0  0  0  0  0  0  0
    8.2330   12.3847   -8.6976 H   0  0  0  0  0  0  0  0  0  0  0  0
    7.5435   10.0175   -4.2748 H   0  0  0  0  0  0  0  0  0  0  0  0
    9.0698   13.0315   -3.7797 H   0  0  0  0  0  0  0  0  0  0  0  0
    6.8607   13.6921   -2.8452 H   0  0  0  0  0  0  0  0  0  0  0  0
    5.0387   12.9527   -4.5713 H   0  0  0  0  0  0  0  0  0  0  0  0
    5.4928   14.2169   -6.8574 H   0  0  0  0  0  0  0  0  0  0  0  0
    7.5881   15.7510   -6.5423 H   0  0  0  0  0  0  0  0  0  0  0  0
    8.3578   15.6298   -3.9662 H   0  0  0  0  0  0  0  0  0  0  0  0
    6.6236   16.0171   -4.0902 H   0  0  0  0  0  0  0  0  0  0  0  0
    9.4962   14.2402   -6.0175 H   0  0  0  0  0  0  0  0  0  0  0  0
  1  2  2  0  0  0  0
  2  3  1  0  0  0  0
  3  4  2  0  0  0  0
  3  5  1  0  0  0  0
  5  6  2  0  0  0  0
  6  7  1  0  0  0  0
  7  8  2  0  0  0  0
  8  9  1  0  0  0  0
  9 10  2  0  0  0  0
 10 11  1  0  0  0  0
 11 12  2  0  0  0  0
 12 13  1  0  0  0  0
 13 14  3  0  0  0  0
 12 15  1  0  0  0  0
 15 16  3  0  0  0  0
  8 17  1  0  0  0  0
 17 18  1  0  0  0  0
 18 19  1  0  0  0  0
 19 20  2  0  0  0  0
 20 21  1  0  0  0  0
 21 22  1  0  0  0  0
 21 23  1  0  0  0  0
  1 24  1  0  0  0  0
 24 25  2  0  0  0  0
 25 26  1  0  0  0  0
 26 27  1  0  0  0  0
 27 28  2  0  0  0  0
 28 29  1  0  0  0  0
 29 30  2  0  0  0  0
 30 31  1  0  0  0  0
 30 32  1  0  0  0  0
 32 33  2  0  0  0  0
 26 34  1  0  0  0  0
 34 35  2  0  0  0  0
 35 36  1  0  0  0  0
 36 37  2  0  0  0  0
 37 38  1  0  0  0  0
 37 39  1  0  0  0  0
 39 40  2  0  0  0  0
 25 41  1  0  0  0  0
 41 42  1  0  0  0  0
 42 43  1  0  0  0  0
 43 44  2  0  0  0  0
 44 45  1  0  0  0  0
 45 46  1  0  0  0  0
 46 47  2  0  0  0  0
 47 48  1  0  0  0  0
 48 49  2  0  0  0  0
 49 50  1  0  0  0  0
 49 51  1  0  0  0  0
 51 52  2  0  0  0  0
 45 53  1  0  0  0  0
 53 54  2  0  0  0  0
 54 55  1  0  0  0  0
 55 56  2  0  0  0  0
 56 57  1  0  0  0  0
 56 58  1  0  0  0  0
 58 59  2  0  0  0  0
 44 60  1  0  0  0  0
 60 61  1  0  0  0  0
 43 62  1  0  0  0  0
 62 63  2  0  0  0  0
 63 64  1  0  0  0  0
 64 65  2  0  0  0  0
 65 66  1  0  0  0  0
 66 67  2  0  0  0  0
 67 68  1  0  0  0  0
 68 69  1  0  0  0  0
 69 70  1  0  0  0  0
 68 71  2  0  0  0  0
 63 72  1  0  0  0  0
 72 73  1  0  0  0  0
 73 74  1  0  0  0  0
 74 75  1  0  0  0  0
 75 76  1  0  0  0  0
 76 77  1  0  0  0  0
 77 78  2  0  0  0  0
 78 79  1  0  0  0  0
 79 80  1  0  0  0  0
 77 81  1  0  0  0  0
 81 82  1  0  0  0  0
 82 83  1  0  0  0  0
 83 84  1  0  0  0  0
 84 85  1  0  0  0  0
 85 86  1  0  0  0  0
 86 87  2  0  0  0  0
 87 88  1  0  0  0  0
 88 89  2  0  0  0  0
 89 90  1  0  0  0  0
 90 91  1  0  0  0  0
 91 92  1  0  0  0  0
 90 93  2  0  0  0  0
 85 94  2  0  0  0  0
 94 95  1  0  0  0  0
 95 96  1  0  0  0  0
 96 97  1  0  0  0  0
 97 98  1  0  0  0  0
 98 99  1  0  0  0  0
 99100  1  0  0  0  0
100101  1  0  0  0  0
101102  1  0  0  0  0
102103  1  0  0  0  0
103104  1  0  0  0  0
101105  1  0  0  0  0
105106  1  0  0  0  0
 98107  1  0  0  0  0
107108  1  0  0  0  0
 94109  1  0  0  0  0
109110  2  0  0  0  0
110111  1  0  0  0  0
110112  1  0  0  0  0
112113  1  0  0  0  0
112114  2  0  0  0  0
114115  1  0  0  0  0
115116  2  0  0  0  0
116117  1  0  0  0  0
117118  1  0  0  0  0
118119  1  0  0  0  0
119120  1  0  0  0  0
117121  2  0  0  0  0
121122  1  0  0  0  0
122123  2  0  0  0  0
121124  1  0  0  0  0
114125  1  0  0  0  0
125126  2  0  0  0  0
126127  1  0  0  0  0
127128  2  0  0  0  0
127129  1  0  0  0  0
129130  2  0  0  0  0
130131  1  0  0  0  0
131132  2  0  0  0  0
132133  1  0  0  0  0
133134  2  0  0  0  0
134135  1  0  0  0  0
135136  2  0  0  0  0
136137  1  0  0  0  0
137138  3  0  0  0  0
136139  1  0  0  0  0
139140  3  0  0  0  0
132141  1  0  0  0  0
141142  1  0  0  0  0
142143  1  0  0  0  0
143144  2  0  0  0  0
144145  1  0  0  0  0
145146  1  0  0  0  0
145147  1  0  0  0  0
 11  2  1  0  0  0  0
 23 17  1  0  0  0  0
 61 24  1  0  0  0  0
104 62  1  0  0  0  0
123109  1  0  0  0  0
135126  1  0  0  0  0
147141  1  0  0  0  0
 10  5  1  0  0  0  0
 22 18  1  0  0  0  0
 33 27  1  0  0  0  0
 40 34  1  0  0  0  0
 60 41  2  0  0  0  0
 71 64  1  0  0  0  0
103 72  2  0  0  0  0
123115  1  0  0  0  0
134129  1  0  0  0  0
146142  1  0  0  0  0
 23  7  1  0  0  0  0
 52 46  1  0  0  0  0
 59 53  1  0  0  0  0
102 74  2  0  0  0  0
147131  1  0  0  0  0
100 75  2  0  0  0  0
 80 76  2  0  0  0  0
 99 81  2  0  0  0  0
 97 82  2  0  0  0  0
 96 84  2  0  0  0  0
 93 86  1  0  0  0  0
  1148  1  0  0  0  0
  6149  1  0  0  0  0
  9150  1  0  0  0  0
 17151  1  0  0  0  0
 18152  1  0  0  0  0
 19153  1  0  0  0  0
 20154  1  0  0  0  0
 21155  1  0  0  0  0
 22156  1  0  0  0  0
 22157  1  0  0  0  0
 23158  1  0  0  0  0
 28159  1  0  0  0  0
 29160  1  0  0  0  0
 31161  1  0  0  0  0
 31162  1  0  0  0  0
 31163  1  0  0  0  0
 32164  1  0  0  0  0
 33165  1  0  0  0  0
 35166  1  0  0  0  0
 36167  1  0  0  0  0
 38168  1  0  0  0  0
 38169  1  0  0  0  0
 38170  1  0  0  0  0
 39171  1  0  0  0  0
 40172  1  0  0  0  0
 47173  1  0  0  0  0
 48174  1  0  0  0  0
 50175  1  0  0  0  0
 50176  1  0  0  0  0
 50177  1  0  0  0  0
 51178  1  0  0  0  0
 52179  1  0  0  0  0
 54180  1  0  0  0  0
 55181  1  0  0  0  0
 57182  1  0  0  0  0
 57183  1  0  0  0  0
 57184  1  0  0  0  0
 58185  1  0  0  0  0
 59186  1  0  0  0  0
 65187  1  0  0  0  0
 66188  1  0  0  0  0
 67189  1  0  0  0  0
 69190  1  0  0  0  0
 69191  1  0  0  0  0
 70192  1  0  0  0  0
 70193  1  0  0  0  0
 70194  1  0  0  0  0
 71195  1  0  0  0  0
 87196  1  0  0  0  0
 88197  1  0  0  0  0
 89198  1  0  0  0  0
 91199  1  0  0  0  0
 91200  1  0  0  0  0
 92201  1  0  0  0  0
 92202  1  0  0  0  0
 92203  1  0  0  0  0
 93204  1  0  0  0  0
105205  1  0  0  0  0
105206  1  0  0  0  0
106207  1  0  0  0  0
106208  1  0  0  0  0
106209  1  0  0  0  0
107210  1  0  0  0  0
107211  1  0  0  0  0
108212  1  0  0  0  0
108213  1  0  0  0  0
108214  1  0  0  0  0
119215  1  0  0  0  0
119216  1  0  0  0  0
120217  1  0  0  0  0
120218  1  0  0  0  0
120219  1  0  0  0  0
124220  1  0  0  0  0
124221  1  0  0  0  0
124222  1  0  0  0  0
125223  1  0  0  0  0
130224  1  0  0  0  0
133225  1  0  0  0  0
141226  1  0  0  0  0
142227  1  0  0  0  0
143228  1  0  0  0  0
144229  1  0  0  0  0
145230  1  0  0  0  0
146231  1  0  0  0  0
146232  1  0  0  0  0
147233  1  0  0  0  0
M  END
