
  xtb     02082214233D
 energy: -368.818723555088 gnorm: 0.000444759720 xtb: 6.4.1 (unknown)
220245  0     0  0            999 V2000
   -3.7354    9.5204   -0.6884 C   0  0  0  0  0  0  0  0  0  0  0  0
   -2.8590   10.3359   -0.0276 C   0  0  0  0  0  0  0  0  0  0  0  0
   -2.6907   11.7427   -0.4574 C   0  0  0  0  0  0  0  0  0  0  0  0
   -3.3886   12.3528   -1.2401 O   0  0  0  0  0  0  0  0  0  0  0  0
   -1.4781   12.2249    0.2368 C   0  0  0  0  0  0  0  0  0  0  0  0
   -0.8436   13.4550    0.0798 C   0  0  0  0  0  0  0  0  0  0  0  0
    0.2866   13.6049    0.8478 C   0  0  0  0  0  0  0  0  0  0  0  0
    0.7589   12.6038    1.7060 C   0  0  0  0  0  0  0  0  0  0  0  0
    0.1396   11.3884    1.8776 C   0  0  0  0  0  0  0  0  0  0  0  0
   -1.0170   11.2212    1.1130 C   0  0  0  0  0  0  0  0  0  0  0  0
   -1.9562   10.1006    1.0690 C   0  0  0  0  0  0  0  0  0  0  0  0
   -2.1162    9.1764    2.0741 C   0  0  0  0  0  0  0  0  0  0  0  0
   -3.2187    8.3068    2.1703 C   0  0  0  0  0  0  0  0  0  0  0  0
   -4.1342    7.6315    2.3353 N   0  0  0  0  0  0  0  0  0  0  0  0
   -1.2860    9.0897    3.2043 C   0  0  0  0  0  0  0  0  0  0  0  0
   -0.6502    8.9711    4.1548 N   0  0  0  0  0  0  0  0  0  0  0  0
    1.9419   13.4286    2.1492 C   0  0  0  0  0  0  0  0  0  0  0  0
    3.3089   13.0670    1.5315 C   0  0  0  0  0  0  0  0  0  0  0  0
    4.1486   14.3024    1.7624 C   0  0  0  0  0  0  0  0  0  0  0  0
    3.7010   15.2518    0.9507 C   0  0  0  0  0  0  0  0  0  0  0  0
    2.5512   14.6738    0.1575 C   0  0  0  0  0  0  0  0  0  0  0  0
    3.0218   13.2190    0.0322 C   0  0  0  0  0  0  0  0  0  0  0  0
    1.4145   14.5465    1.1937 C   0  0  0  0  0  0  0  0  0  0  0  0
   -3.7611    8.1185   -0.7344 C   0  0  0  0  0  0  0  0  0  0  0  0
   -4.8265    7.3186   -1.1761 C   0  0  0  0  0  0  0  0  0  0  0  0
   -6.0780    7.7759   -1.4720 N   0  0  0  0  0  0  0  0  0  0  0  0
   -6.9008    7.0334   -2.3401 C   0  0  0  0  0  0  0  0  0  0  0  0
   -8.2329    6.7981   -2.0176 C   0  0  0  0  0  0  0  0  0  0  0  0
   -9.0317    6.0653   -2.8736 C   0  0  0  0  0  0  0  0  0  0  0  0
   -8.5292    5.5580   -4.0650 C   0  0  0  0  0  0  0  0  0  0  0  0
   -9.3775    4.7373   -4.9854 C   0  0  0  0  0  0  0  0  0  0  0  0
   -7.2029    5.8197   -4.3891 C   0  0  0  0  0  0  0  0  0  0  0  0
   -6.3930    6.5467   -3.5421 C   0  0  0  0  0  0  0  0  0  0  0  0
   -6.6323    8.9173   -0.8517 C   0  0  0  0  0  0  0  0  0  0  0  0
   -7.3604    9.8246   -1.6137 C   0  0  0  0  0  0  0  0  0  0  0  0
   -7.9069   10.9436   -1.0172 C   0  0  0  0  0  0  0  0  0  0  0  0
   -7.7422   11.1833    0.3418 C   0  0  0  0  0  0  0  0  0  0  0  0
   -8.3003   12.4224    0.9699 C   0  0  0  0  0  0  0  0  0  0  0  0
   -7.0314   10.2564    1.0957 C   0  0  0  0  0  0  0  0  0  0  0  0
   -6.4871    9.1281    0.5155 C   0  0  0  0  0  0  0  0  0  0  0  0
   -4.4524    5.9557   -1.2071 C   0  0  0  0  0  0  0  0  0  0  0  0
   -5.2833    4.4947   -1.6107 S   0  0  0  0  0  0  0  0  0  0  0  0
   -3.8621    3.5512   -1.1899 C   0  0  0  0  0  0  0  0  0  0  0  0
   -2.7882    4.3377   -0.7866 C   0  0  0  0  0  0  0  0  0  0  0  0
   -1.5183    3.8983   -0.4562 N   0  0  0  0  0  0  0  0  0  0  0  0
   -0.7859    4.5901    0.5287 C   0  0  0  0  0  0  0  0  0  0  0  0
    0.5805    4.7869    0.3543 C   0  0  0  0  0  0  0  0  0  0  0  0
    1.3164    5.4359    1.3251 C   0  0  0  0  0  0  0  0  0  0  0  0
    0.7157    5.9086    2.4862 C   0  0  0  0  0  0  0  0  0  0  0  0
    1.5230    6.5760    3.5551 C   0  0  0  0  0  0  0  0  0  0  0  0
   -0.6524    5.7183    2.6448 C   0  0  0  0  0  0  0  0  0  0  0  0
   -1.3999    5.0656    1.6840 C   0  0  0  0  0  0  0  0  0  0  0  0
   -0.9868    2.7158   -0.9864 C   0  0  0  0  0  0  0  0  0  0  0  0
   -1.2223    2.3574   -2.3119 C   0  0  0  0  0  0  0  0  0  0  0  0
   -0.8388    1.1177   -2.7803 C   0  0  0  0  0  0  0  0  0  0  0  0
   -0.1817    0.2111   -1.9556 C   0  0  0  0  0  0  0  0  0  0  0  0
    0.1497   -1.1644   -2.4479 C   0  0  0  0  0  0  0  0  0  0  0  0
    0.1338    0.6113   -0.6634 C   0  0  0  0  0  0  0  0  0  0  0  0
   -0.2606    1.8424   -0.1778 C   0  0  0  0  0  0  0  0  0  0  0  0
   -3.1512    5.7076   -0.7959 C   0  0  0  0  0  0  0  0  0  0  0  0
   -2.3222    7.1601   -0.3680 S   0  0  0  0  0  0  0  0  0  0  0  0
   -3.9309    2.1259   -1.2875 C   0  0  0  0  0  0  0  0  0  0  0  0
   -4.4871    1.3615   -2.2939 C   0  0  0  0  0  0  0  0  0  0  0  0
   -5.1044    1.8607   -3.5250 C   0  0  0  0  0  0  0  0  0  0  0  0
   -6.2741    1.2669   -3.9921 C   0  0  0  0  0  0  0  0  0  0  0  0
   -6.8344    1.6850   -5.1835 C   0  0  0  0  0  0  0  0  0  0  0  0
   -6.2293    2.6806   -5.9302 C   0  0  0  0  0  0  0  0  0  0  0  0
   -5.0607    3.2826   -5.4823 C   0  0  0  0  0  0  0  0  0  0  0  0
   -4.3501    4.3142   -6.3126 C   0  0  0  0  0  0  0  0  0  0  0  0
   -3.2188    3.6651   -7.1123 C   0  0  0  0  0  0  0  0  0  0  0  0
   -4.5156    2.8710   -4.2764 C   0  0  0  0  0  0  0  0  0  0  0  0
   -4.2995   -0.0158   -2.0472 C   0  0  0  0  0  0  0  0  0  0  0  0
   -4.6345   -1.4445   -2.9967 S   0  0  0  0  0  0  0  0  0  0  0  0
   -3.7965   -2.4002   -1.8188 C   0  0  0  0  0  0  0  0  0  0  0  0
   -3.4213   -3.7376   -1.5947 C   0  0  0  0  0  0  0  0  0  0  0  0
   -3.7641   -4.9432   -2.2460 C   0  0  0  0  0  0  0  0  0  0  0  0
   -3.2907   -6.1880   -1.7028 C   0  0  0  0  0  0  0  0  0  0  0  0
   -3.7433   -7.2355   -2.3727 N   0  0  0  0  0  0  0  0  0  0  0  0
   -4.6786   -6.7064   -3.5843 S   0  0  0  0  0  0  0  0  0  0  0  0
   -4.5421   -5.1175   -3.3023 N   0  0  0  0  0  0  0  0  0  0  0  0
   -2.3688   -6.1608   -0.6324 C   0  0  0  0  0  0  0  0  0  0  0  0
   -1.5651   -7.1638   -0.0654 C   0  0  0  0  0  0  0  0  0  0  0  0
   -1.3347   -8.8737   -0.1880 S   0  0  0  0  0  0  0  0  0  0  0  0
    0.0193   -8.7429    0.9059 C   0  0  0  0  0  0  0  0  0  0  0  0
    0.9399   -9.6909    1.3968 C   0  0  0  0  0  0  0  0  0  0  0  0
    0.9515  -11.1061    1.0269 C   0  0  0  0  0  0  0  0  0  0  0  0
   -0.2360  -11.8322    0.9955 C   0  0  0  0  0  0  0  0  0  0  0  0
   -0.2085  -13.1772    0.6827 C   0  0  0  0  0  0  0  0  0  0  0  0
    0.9918  -13.8042    0.3949 C   0  0  0  0  0  0  0  0  0  0  0  0
    2.1825  -13.0886    0.3930 C   0  0  0  0  0  0  0  0  0  0  0  0
    3.4921  -13.7585    0.0873 C   0  0  0  0  0  0  0  0  0  0  0  0
    4.3882  -13.8235    1.3252 C   0  0  0  0  0  0  0  0  0  0  0  0
    2.1485  -11.7377    0.7046 C   0  0  0  0  0  0  0  0  0  0  0  0
    1.8842   -9.0927    2.2052 C   0  0  0  0  0  0  0  0  0  0  0  0
    1.6739   -7.3616    2.3359 S   0  0  0  0  0  0  0  0  0  0  0  0
    0.2666   -7.4359    1.3324 C   0  0  0  0  0  0  0  0  0  0  0  0
   -0.6605   -6.5322    0.7932 C   0  0  0  0  0  0  0  0  0  0  0  0
   -0.9061   -5.1834    0.8153 N   0  0  0  0  0  0  0  0  0  0  0  0
   -1.9632   -4.9352   -0.0398 C   0  0  0  0  0  0  0  0  0  0  0  0
   -2.6237   -3.7400   -0.4183 C   0  0  0  0  0  0  0  0  0  0  0  0
   -2.5824   -2.4560    0.0976 N   0  0  0  0  0  0  0  0  0  0  0  0
   -3.2922   -1.6508   -0.7540 C   0  0  0  0  0  0  0  0  0  0  0  0
   -3.6017   -0.2910   -0.8727 C   0  0  0  0  0  0  0  0  0  0  0  0
   -3.2767    1.1467    0.0193 S   0  0  0  0  0  0  0  0  0  0  0  0
   -2.3940   -2.0459    1.4712 C   0  0  0  0  0  0  0  0  0  0  0  0
   -3.7351   -1.8535    2.1792 C   0  0  0  0  0  0  0  0  0  0  0  0
    0.0777   -4.2641    1.3421 C   0  0  0  0  0  0  0  0  0  0  0  0
    0.0951   -4.2484    2.8705 C   0  0  0  0  0  0  0  0  0  0  0  0
    2.9873   -9.7185    2.8926 C   0  0  0  0  0  0  0  0  0  0  0  0
    4.2863   -9.1769    2.7936 C   0  0  0  0  0  0  0  0  0  0  0  0
    4.7266   -8.0583    2.1996 N   0  0  0  0  0  0  0  0  0  0  0  0
    6.0124   -8.0749    2.4047 N   0  0  0  0  0  0  0  0  0  0  0  0
    6.8746   -7.0603    1.8712 C   0  0  0  0  0  0  0  0  0  0  0  0
    7.5918   -7.5847    0.6306 C   0  0  0  0  0  0  0  0  0  0  0  0
    6.4926   -9.0902    3.0664 N   0  0  0  0  0  0  0  0  0  0  0  0
    5.4207   -9.8461    3.3324 C   0  0  0  0  0  0  0  0  0  0  0  0
    5.2986  -11.0792    4.0093 C   0  0  0  0  0  0  0  0  0  0  0  0
    3.9973  -11.5271    4.2042 C   0  0  0  0  0  0  0  0  0  0  0  0
    2.8760  -10.8734    3.6586 C   0  0  0  0  0  0  0  0  0  0  0  0
    1.3185  -11.5400    3.9728 Cl  0  0  0  0  0  0  0  0  0  0  0  0
    3.7484  -12.9957    5.0657 Cl  0  0  0  0  0  0  0  0  0  0  0  0
    6.4533  -11.7904    4.4887 C   0  0  0  0  0  0  0  0  0  0  0  0
    7.6021  -11.9120    3.7814 C   0  0  0  0  0  0  0  0  0  0  0  0
    7.7277  -11.6243    2.3248 C   0  0  0  0  0  0  0  0  0  0  0  0
    6.8333  -11.3346    1.5573 O   0  0  0  0  0  0  0  0  0  0  0  0
    9.1350  -11.8957    1.9881 C   0  0  0  0  0  0  0  0  0  0  0  0
    9.7987  -12.3900    3.1104 C   0  0  0  0  0  0  0  0  0  0  0  0
   11.1547  -12.7408    3.0329 C   0  0  0  0  0  0  0  0  0  0  0  0
   11.8121  -12.5827    1.8413 C   0  0  0  0  0  0  0  0  0  0  0  0
   11.1684  -12.0804    0.6889 C   0  0  0  0  0  0  0  0  0  0  0  0
   11.8540  -11.9149   -0.5315 C   0  0  0  0  0  0  0  0  0  0  0  0
   11.2074  -11.4275   -1.6341 C   0  0  0  0  0  0  0  0  0  0  0  0
    9.8474  -11.0853   -1.5686 C   0  0  0  0  0  0  0  0  0  0  0  0
    9.1483  -11.2330   -0.4025 C   0  0  0  0  0  0  0  0  0  0  0  0
    9.7887  -11.7306    0.7510 C   0  0  0  0  0  0  0  0  0  0  0  0
    8.8769  -12.4385    4.2403 C   0  0  0  0  0  0  0  0  0  0  0  0
    9.1802  -12.8570    5.5071 C   0  0  0  0  0  0  0  0  0  0  0  0
    8.2878  -12.8555    6.6016 C   0  0  0  0  0  0  0  0  0  0  0  0
    7.6360  -12.8767    7.5464 N   0  0  0  0  0  0  0  0  0  0  0  0
   10.4391  -13.3528    5.9098 C   0  0  0  0  0  0  0  0  0  0  0  0
   11.4319  -13.7667    6.3108 N   0  0  0  0  0  0  0  0  0  0  0  0
   -4.4416   10.0362   -1.3313 H   0  0  0  0  0  0  0  0  0  0  0  0
   -1.2389   14.2011   -0.5918 H   0  0  0  0  0  0  0  0  0  0  0  0
    0.5134   10.6216    2.5360 H   0  0  0  0  0  0  0  0  0  0  0  0
    1.9989   13.6395    3.2155 H   0  0  0  0  0  0  0  0  0  0  0  0
    3.7254   12.1218    1.8692 H   0  0  0  0  0  0  0  0  0  0  0  0
    4.9186   14.3740    2.5082 H   0  0  0  0  0  0  0  0  0  0  0  0
    4.0226   16.2746    0.8829 H   0  0  0  0  0  0  0  0  0  0  0  0
    2.2785   15.1927   -0.7576 H   0  0  0  0  0  0  0  0  0  0  0  0
    2.2611   12.5380   -0.3447 H   0  0  0  0  0  0  0  0  0  0  0  0
    3.9237   13.1285   -0.5713 H   0  0  0  0  0  0  0  0  0  0  0  0
    1.1216   15.5025    1.6238 H   0  0  0  0  0  0  0  0  0  0  0  0
   -8.6313    7.1834   -1.0909 H   0  0  0  0  0  0  0  0  0  0  0  0
  -10.0614    5.8793   -2.6053 H   0  0  0  0  0  0  0  0  0  0  0  0
  -10.4148    4.7314   -4.6615 H   0  0  0  0  0  0  0  0  0  0  0  0
   -9.0116    3.7109   -5.0042 H   0  0  0  0  0  0  0  0  0  0  0  0
   -9.3287    5.1266   -6.0010 H   0  0  0  0  0  0  0  0  0  0  0  0
   -6.8023    5.4478   -5.3186 H   0  0  0  0  0  0  0  0  0  0  0  0
   -5.3662    6.7510   -3.8087 H   0  0  0  0  0  0  0  0  0  0  0  0
   -7.4862    9.6511   -2.6726 H   0  0  0  0  0  0  0  0  0  0  0  0
   -8.4625   11.6476   -1.6192 H   0  0  0  0  0  0  0  0  0  0  0  0
   -7.6082   13.2523    0.8236 H   0  0  0  0  0  0  0  0  0  0  0  0
   -9.2502   12.6948    0.5149 H   0  0  0  0  0  0  0  0  0  0  0  0
   -8.4446   12.2866    2.0389 H   0  0  0  0  0  0  0  0  0  0  0  0
   -6.9079   10.4125    2.1574 H   0  0  0  0  0  0  0  0  0  0  0  0
   -5.9448    8.4143    1.1173 H   0  0  0  0  0  0  0  0  0  0  0  0
    1.0584    4.4226   -0.5436 H   0  0  0  0  0  0  0  0  0  0  0  0
    2.3772    5.5796    1.1770 H   0  0  0  0  0  0  0  0  0  0  0  0
    1.7529    5.8626    4.3471 H   0  0  0  0  0  0  0  0  0  0  0  0
    0.9655    7.3980    3.9996 H   0  0  0  0  0  0  0  0  0  0  0  0
    2.4612    6.9540    3.1555 H   0  0  0  0  0  0  0  0  0  0  0  0
   -1.1386    6.0783    3.5396 H   0  0  0  0  0  0  0  0  0  0  0  0
   -2.4593    4.9146    1.8326 H   0  0  0  0  0  0  0  0  0  0  0  0
   -1.7237    3.0533   -2.9665 H   0  0  0  0  0  0  0  0  0  0  0  0
   -1.0635    0.8434   -3.8010 H   0  0  0  0  0  0  0  0  0  0  0  0
    0.5569   -1.1273   -3.4563 H   0  0  0  0  0  0  0  0  0  0  0  0
    0.8709   -1.6506   -1.7948 H   0  0  0  0  0  0  0  0  0  0  0  0
   -0.7531   -1.7767   -2.4777 H   0  0  0  0  0  0  0  0  0  0  0  0
    0.6747   -0.0623   -0.0131 H   0  0  0  0  0  0  0  0  0  0  0  0
   -0.0457    2.1192    0.8435 H   0  0  0  0  0  0  0  0  0  0  0  0
   -6.7444    0.4849   -3.4157 H   0  0  0  0  0  0  0  0  0  0  0  0
   -7.7428    1.2205   -5.5391 H   0  0  0  0  0  0  0  0  0  0  0  0
   -6.6643    2.9895   -6.8704 H   0  0  0  0  0  0  0  0  0  0  0  0
   -5.0496    4.7867   -7.0054 H   0  0  0  0  0  0  0  0  0  0  0  0
   -3.9338    5.0891   -5.6648 H   0  0  0  0  0  0  0  0  0  0  0  0
   -2.4990    3.1993   -6.4430 H   0  0  0  0  0  0  0  0  0  0  0  0
   -3.6164    2.8975   -7.7726 H   0  0  0  0  0  0  0  0  0  0  0  0
   -2.7024    4.4089   -7.7149 H   0  0  0  0  0  0  0  0  0  0  0  0
   -3.6036    3.3317   -3.9277 H   0  0  0  0  0  0  0  0  0  0  0  0
   -1.1683  -11.3467    1.2411 H   0  0  0  0  0  0  0  0  0  0  0  0
   -1.1284  -13.7430    0.6704 H   0  0  0  0  0  0  0  0  0  0  0  0
    1.0032  -14.8595    0.1623 H   0  0  0  0  0  0  0  0  0  0  0  0
    4.0130  -13.2034   -0.6967 H   0  0  0  0  0  0  0  0  0  0  0  0
    3.3060  -14.7700   -0.2793 H   0  0  0  0  0  0  0  0  0  0  0  0
    3.8566  -14.2839    2.1553 H   0  0  0  0  0  0  0  0  0  0  0  0
    5.2788  -14.4121    1.1151 H   0  0  0  0  0  0  0  0  0  0  0  0
    4.7043  -12.8270    1.6244 H   0  0  0  0  0  0  0  0  0  0  0  0
    3.0655  -11.1658    0.6880 H   0  0  0  0  0  0  0  0  0  0  0  0
   -1.8346   -1.1045    1.4737 H   0  0  0  0  0  0  0  0  0  0  0  0
   -1.8309   -2.8067    1.9998 H   0  0  0  0  0  0  0  0  0  0  0  0
   -3.5635   -1.5835    3.2175 H   0  0  0  0  0  0  0  0  0  0  0  0
   -4.3128   -2.7750    2.1465 H   0  0  0  0  0  0  0  0  0  0  0  0
   -4.3127   -1.0626    1.7091 H   0  0  0  0  0  0  0  0  0  0  0  0
   -0.1118   -3.2724    0.9292 H   0  0  0  0  0  0  0  0  0  0  0  0
    1.0629   -4.5909    0.9889 H   0  0  0  0  0  0  0  0  0  0  0  0
   -0.8972   -4.0802    3.2829 H   0  0  0  0  0  0  0  0  0  0  0  0
    0.7585   -3.4632    3.2221 H   0  0  0  0  0  0  0  0  0  0  0  0
    0.4572   -5.1998    3.2494 H   0  0  0  0  0  0  0  0  0  0  0  0
    7.6007   -6.7931    2.6424 H   0  0  0  0  0  0  0  0  0  0  0  0
    6.2477   -6.2008    1.6289 H   0  0  0  0  0  0  0  0  0  0  0  0
    8.2658   -6.8265    0.2425 H   0  0  0  0  0  0  0  0  0  0  0  0
    6.8699   -7.8427   -0.1403 H   0  0  0  0  0  0  0  0  0  0  0  0
    8.1659   -8.4730    0.8826 H   0  0  0  0  0  0  0  0  0  0  0  0
    6.3625  -12.2429    5.4673 H   0  0  0  0  0  0  0  0  0  0  0  0
   11.6763  -13.1297    3.8915 H   0  0  0  0  0  0  0  0  0  0  0  0
   12.8568  -12.8484    1.7680 H   0  0  0  0  0  0  0  0  0  0  0  0
   12.9002  -12.1805   -0.5795 H   0  0  0  0  0  0  0  0  0  0  0  0
   11.7399  -11.3041   -2.5655 H   0  0  0  0  0  0  0  0  0  0  0  0
    9.3552  -10.7048   -2.4513 H   0  0  0  0  0  0  0  0  0  0  0  0
    8.1011  -10.9821   -0.3436 H   0  0  0  0  0  0  0  0  0  0  0  0
  1  2  2  0  0  0  0
  2  3  1  0  0  0  0
  3  4  2  0  0  0  0
  3  5  1  0  0  0  0
  5  6  2  0  0  0  0
  6  7  1  0  0  0  0
  7  8  2  0  0  0  0
  8  9  1  0  0  0  0
  9 10  2  0  0  0  0
 10 11  1  0  0  0  0
 11 12  2  0  0  0  0
 12 13  1  0  0  0  0
 13 14  3  0  0  0  0
 12 15  1  0  0  0  0
 15 16  3  0  0  0  0
  8 17  1  0  0  0  0
 17 18  1  0  0  0  0
 18 19  1  0  0  0  0
 19 20  2  0  0  0  0
 20 21  1  0  0  0  0
 21 22  1  0  0  0  0
 21 23  1  0  0  0  0
  1 24  1  0  0  0  0
 24 25  2  0  0  0  0
 25 26  1  0  0  0  0
 26 27  1  0  0  0  0
 27 28  2  0  0  0  0
 28 29  1  0  0  0  0
 29 30  2  0  0  0  0
 30 31  1  0  0  0  0
 30 32  1  0  0  0  0
 32 33  2  0  0  0  0
 26 34  1  0  0  0  0
 34 35  2  0  0  0  0
 35 36  1  0  0  0  0
 36 37  2  0  0  0  0
 37 38  1  0  0  0  0
 37 39  1  0  0  0  0
 39 40  2  0  0  0  0
 25 41  1  0  0  0  0
 41 42  1  0  0  0  0
 42 43  1  0  0  0  0
 43 44  2  0  0  0  0
 44 45  1  0  0  0  0
 45 46  1  0  0  0  0
 46 47  2  0  0  0  0
 47 48  1  0  0  0  0
 48 49  2  0  0  0  0
 49 50  1  0  0  0  0
 49 51  1  0  0  0  0
 51 52  2  0  0  0  0
 45 53  1  0  0  0  0
 53 54  2  0  0  0  0
 54 55  1  0  0  0  0
 55 56  2  0  0  0  0
 56 57  1  0  0  0  0
 56 58  1  0  0  0  0
 58 59  2  0  0  0  0
 44 60  1  0  0  0  0
 60 61  1  0  0  0  0
 43 62  1  0  0  0  0
 62 63  2  0  0  0  0
 63 64  1  0  0  0  0
 64 65  2  0  0  0  0
 65 66  1  0  0  0  0
 66 67  2  0  0  0  0
 67 68  1  0  0  0  0
 68 69  1  0  0  0  0
 69 70  1  0  0  0  0
 68 71  2  0  0  0  0
 63 72  1  0  0  0  0
 72 73  1  0  0  0  0
 73 74  1  0  0  0  0
 74 75  1  0  0  0  0
 75 76  1  0  0  0  0
 76 77  1  0  0  0  0
 77 78  2  0  0  0  0
 78 79  1  0  0  0  0
 79 80  1  0  0  0  0
 77 81  1  0  0  0  0
 81 82  1  0  0  0  0
 82 83  1  0  0  0  0
 83 84  1  0  0  0  0
 84 85  1  0  0  0  0
 85 86  1  0  0  0  0
 86 87  2  0  0  0  0
 87 88  1  0  0  0  0
 88 89  2  0  0  0  0
 89 90  1  0  0  0  0
 90 91  1  0  0  0  0
 91 92  1  0  0  0  0
 90 93  2  0  0  0  0
 85 94  2  0  0  0  0
 94 95  1  0  0  0  0
 95 96  1  0  0  0  0
 96 97  1  0  0  0  0
 97 98  1  0  0  0  0
 98 99  1  0  0  0  0
 99100  1  0  0  0  0
100101  1  0  0  0  0
101102  1  0  0  0  0
102103  1  0  0  0  0
103104  1  0  0  0  0
101105  1  0  0  0  0
105106  1  0  0  0  0
 98107  1  0  0  0  0
107108  1  0  0  0  0
 94109  1  0  0  0  0
109110  1  0  0  0  0
110111  2  0  0  0  0
111112  1  0  0  0  0
112113  1  0  0  0  0
113114  1  0  0  0  0
112115  1  0  0  0  0
115116  2  0  0  0  0
116117  1  0  0  0  0
117118  2  0  0  0  0
118119  1  0  0  0  0
119120  1  0  0  0  0
118121  1  0  0  0  0
117122  1  0  0  0  0
122123  2  0  0  0  0
123124  1  0  0  0  0
124125  2  0  0  0  0
124126  1  0  0  0  0
126127  2  0  0  0  0
127128  1  0  0  0  0
128129  2  0  0  0  0
129130  1  0  0  0  0
130131  2  0  0  0  0
131132  1  0  0  0  0
132133  2  0  0  0  0
133134  1  0  0  0  0
134135  2  0  0  0  0
127136  1  0  0  0  0
136137  2  0  0  0  0
137138  1  0  0  0  0
138139  3  0  0  0  0
137140  1  0  0  0  0
140141  3  0  0  0  0
 11  2  1  0  0  0  0
 23 17  1  0  0  0  0
 61 24  1  0  0  0  0
104 62  1  0  0  0  0
119109  2  0  0  0  0
136123  1  0  0  0  0
 10  5  1  0  0  0  0
 22 18  1  0  0  0  0
 33 27  1  0  0  0  0
 40 34  1  0  0  0  0
 60 41  2  0  0  0  0
 71 64  1  0  0  0  0
103 72  2  0  0  0  0
116110  1  0  0  0  0
135126  1  0  0  0  0
 23  7  1  0  0  0  0
 52 46  1  0  0  0  0
 59 53  1  0  0  0  0
102 74  2  0  0  0  0
135130  1  0  0  0  0
100 75  2  0  0  0  0
 80 76  2  0  0  0  0
 99 81  2  0  0  0  0
 97 82  2  0  0  0  0
 96 84  2  0  0  0  0
 93 86  1  0  0  0  0
  1142  1  0  0  0  0
  6143  1  0  0  0  0
  9144  1  0  0  0  0
 17145  1  0  0  0  0
 18146  1  0  0  0  0
 19147  1  0  0  0  0
 20148  1  0  0  0  0
 21149  1  0  0  0  0
 22150  1  0  0  0  0
 22151  1  0  0  0  0
 23152  1  0  0  0  0
 28153  1  0  0  0  0
 29154  1  0  0  0  0
 31155  1  0  0  0  0
 31156  1  0  0  0  0
 31157  1  0  0  0  0
 32158  1  0  0  0  0
 33159  1  0  0  0  0
 35160  1  0  0  0  0
 36161  1  0  0  0  0
 38162  1  0  0  0  0
 38163  1  0  0  0  0
 38164  1  0  0  0  0
 39165  1  0  0  0  0
 40166  1  0  0  0  0
 47167  1  0  0  0  0
 48168  1  0  0  0  0
 50169  1  0  0  0  0
 50170  1  0  0  0  0
 50171  1  0  0  0  0
 51172  1  0  0  0  0
 52173  1  0  0  0  0
 54174  1  0  0  0  0
 55175  1  0  0  0  0
 57176  1  0  0  0  0
 57177  1  0  0  0  0
 57178  1  0  0  0  0
 58179  1  0  0  0  0
 59180  1  0  0  0  0
 65181  1  0  0  0  0
 66182  1  0  0  0  0
 67183  1  0  0  0  0
 69184  1  0  0  0  0
 69185  1  0  0  0  0
 70186  1  0  0  0  0
 70187  1  0  0  0  0
 70188  1  0  0  0  0
 71189  1  0  0  0  0
 87190  1  0  0  0  0
 88191  1  0  0  0  0
 89192  1  0  0  0  0
 91193  1  0  0  0  0
 91194  1  0  0  0  0
 92195  1  0  0  0  0
 92196  1  0  0  0  0
 92197  1  0  0  0  0
 93198  1  0  0  0  0
105199  1  0  0  0  0
105200  1  0  0  0  0
106201  1  0  0  0  0
106202  1  0  0  0  0
106203  1  0  0  0  0
107204  1  0  0  0  0
107205  1  0  0  0  0
108206  1  0  0  0  0
108207  1  0  0  0  0
108208  1  0  0  0  0
113209  1  0  0  0  0
113210  1  0  0  0  0
114211  1  0  0  0  0
114212  1  0  0  0  0
114213  1  0  0  0  0
122214  1  0  0  0  0
128215  1  0  0  0  0
129216  1  0  0  0  0
131217  1  0  0  0  0
132218  1  0  0  0  0
133219  1  0  0  0  0
134220  1  0  0  0  0
M  END
