300

C          7.56760        6.52510        7.95190
C          7.73740        7.87980        7.76020
C          6.62980        8.82420        7.54510
O          5.44170        8.56620        7.47700
C          7.24130       10.16980        7.55930
C          6.59150       11.38840        7.39550
C          7.42880       12.47870        7.42930
C          8.81010       12.36570        7.62410
C          9.46320       11.16740        7.79480
C          8.63040       10.04800        7.75480
C          8.95820        8.62750        7.86120
C         10.22340        8.09060        7.87030
C         11.40970        8.84480        7.84080
N         12.41460        9.40140        7.79800
C         10.49150        6.70880        7.81830
N         10.78510        5.60050        7.74140
C          9.02280       13.85800        7.56040
C          9.24120       14.61480        8.89360
C          8.55440       13.80450        9.96450
C          7.24580       13.91200        9.77710
C          7.02430       14.79710        8.57560
C          8.22100       15.75110        8.71790
C          7.48230       13.98410        7.33970
C          6.50430        5.75950        7.46720
C          5.63680        5.96400        6.37350
N          5.73340        6.92780        5.41080
C          6.94280        7.54380        5.06450
C          8.13710        6.82460        5.02280
C          9.31970        7.46170        4.71400
C          9.35410        8.82710        4.43830
C         10.65600        9.50840        4.15700
C          8.15520        9.52670        4.43870
C          6.96170        8.89950        4.74340
C          4.57370        7.28900        4.69140
C          4.61480        7.37960        3.30410
C          3.47410        7.71730        2.60300
C          2.27610        7.97110        3.26130
C          1.03430        8.29930        2.49100
C          2.25320        7.89530        4.64910
C          3.38620        7.56020        5.36360
C          4.68360        4.92220        6.30390
S          3.39290        4.55100        5.21530
C          3.07760        3.02630        6.04490
C          3.96360        2.81690        7.09570
N          4.00020        1.73090        7.96420
C          4.13850        2.01410        9.33190
C          3.45660        3.09750        9.88260
C          3.59410        3.39960       11.22180
C          4.40020        2.62990       12.05170
C          4.51630        2.94650       13.51070
C          5.07750        1.55190       11.49470
C          4.95990        1.24700       10.15340
C          4.10750        0.42710        7.47600
C          4.69970        0.17850        6.23920
C          4.73860       -1.10550        5.72860
C          4.20990       -2.17300        6.43810
C          4.22450       -3.56490        5.88770
C          3.65320       -1.92210        7.68940
C          3.59180       -0.64600        8.20460
C          4.85080        3.91190        7.23720
S          6.18770        4.21810        8.28210
C          1.98640        2.26880        5.53340
C          1.01660        2.78280        4.69450
C          0.09700        1.81570        4.29390
S         -1.29330        1.83480        3.24980
C         -1.46790        0.12670        3.48590
C         -2.33640       -0.88460        2.97300
C         -3.37930       -0.80380        2.05520
C         -3.94750       -1.98610        1.64690
C         -5.00980       -2.18460        0.58120
C         -4.62680       -1.48640       -0.71310
C         -3.68420       -2.06030       -1.55930
C         -3.37490       -1.47850       -2.77350
C         -3.99260       -0.29950       -3.16780
C         -3.67920        0.31110       -4.50800
O         -3.52310       -0.71400       -5.46800
C         -3.44180       -0.23820       -6.77110
O         -3.43780       -1.34140       -7.61520
C         -3.67360       -1.00070       -8.96140
C         -4.89500        0.30220       -2.30200
C         -5.20470       -0.28050       -1.08550
C         -6.40900       -1.81340        1.04040
C         -6.67440       -1.36010        2.32420
C         -7.97080       -1.06570        2.70880
C         -9.02680       -1.23060        1.82380
C        -10.43510       -0.92760        2.25950
O        -11.25010       -0.68800        1.13930
C        -12.57800       -0.38030        1.47520
O        -13.35070       -0.26430        0.34110
C        -12.98040        0.81580       -0.49520
C         -8.76320       -1.69740        0.54330
C         -7.46900       -1.98330        0.15630
C         -4.95260       -3.68090        0.42410
C         -4.11860       -4.25180        1.36530
C         -3.48360       -3.22810        2.14300
C         -2.48030       -3.30130        3.10530
C         -1.90970       -2.11850        3.51780
C         -0.71200       -1.91570        4.43910
C          0.43480       -2.74900        3.89940
C          1.41360       -2.20830        3.07860
C          2.39000       -3.01680        2.52530
C          2.39600       -4.38640        2.75300
C          3.43890       -5.26320        2.10770
O          4.62830       -5.37620        2.88960
C          4.57620       -6.36110        3.87770
O          4.42570       -7.65240        3.37690
C          5.54240       -8.10970        2.64070
C          1.42760       -4.92330        3.59320
C          0.46800       -4.11260        4.16980
C         -0.95560       -2.19190        5.90850
C         -2.23060       -2.19670        6.45550
C         -2.40290       -2.32500        7.82280
C         -1.30890       -2.46380        8.66640
C         -1.48630       -2.51180       10.16400
O         -1.48620       -1.22030       10.74930
C         -0.26730       -0.55900       10.66980
O         -0.34520        0.54350       11.51240
C          0.79100        1.36550       11.43270
C         -0.03550       -2.47650        8.11010
C          0.14260       -2.32900        6.74920
C         -0.51270       -0.42740        4.31570
C          0.36400        0.53920        4.80760
S          1.73640        0.55800        5.85030
S         -3.85220       -5.95000        1.10780
C         -4.78830       -5.86650       -0.36240
C         -4.90890       -6.69950       -1.48160
C         -5.53750       -6.06240       -2.52740
S         -6.09900       -4.45110       -2.08950
C         -5.34370       -4.59400       -0.55010
C         -5.50570       -6.36780       -3.91630
C         -5.85700       -5.49100       -4.90460
C         -5.34190       -5.82130       -6.17550
C         -5.37070       -5.03220       -7.33640
C         -6.00120       -3.70760       -7.35430
C         -5.77790       -2.78450       -6.33270
C         -6.39500       -1.55460       -6.35510
C         -7.21660       -1.16690       -7.41270
S         -7.84030        0.48790       -7.34080
C         -9.45260        0.46760       -8.21790
C         -9.36310        1.05630       -9.61190
C         -7.39980       -2.08200       -8.44310
F         -8.16140       -1.77920       -9.52030
C         -6.82460       -3.33630       -8.41200
C         -4.70180       -5.53600       -8.44330
C         -4.05380       -6.80070       -8.44120
C         -4.05070       -7.60670       -7.27800
C         -3.40690       -8.92380       -7.27180
C         -2.49480       -9.28880       -6.28220
C         -1.90280      -10.53200       -6.29850
C         -2.20490      -11.47240       -7.28460
S         -1.40650      -13.03830       -7.15980
C         -1.31920      -13.65340       -8.88950
C         -0.21480      -14.68780       -8.98050
C         -3.14070      -11.10510       -8.24820
C         -3.71880       -9.85240       -8.26050
F         -3.53310      -11.97430       -9.20660
C         -4.65560       -7.06730       -6.15930
S         -4.65420       -7.76310       -4.55100
C         -3.36010       -7.01790       -9.64200
C         -3.42670       -5.96090      -10.53320
S         -4.41850       -4.65670       -9.91460
C         -2.73130       -5.97640      -11.76070
C         -2.55450       -4.99250      -12.69240
C         -3.04680       -3.60630      -12.60540
O         -3.77850       -3.12360      -11.76100
C         -2.46470       -2.88990      -13.75100
C         -2.61790       -1.53780      -14.05210
C         -1.94570       -1.13850      -15.18160
C         -1.18140       -2.02100      -15.95750
C         -1.02840       -3.35750      -15.67500
C         -1.70020       -3.78550      -14.52480
C         -1.76030       -5.10740      -13.90430
C         -1.17360       -6.24170      -14.40300
C         -1.23300       -7.52880      -13.82790
N         -1.22370       -8.61000      -13.43900
C         -0.41510       -6.29280      -15.59180
N          0.21470       -6.41410      -16.54420
C         -0.77490       -0.94110      -16.92900
C          0.65470       -0.37990      -16.77430
C          0.60430        0.94420      -17.50180
C         -0.12030        1.77990      -16.76900
C         -0.57160        1.03470      -15.53350
C          0.63930        0.11660      -15.32270
C         -1.62790        0.04230      -16.06490
H          8.29590        5.99030        8.54980
H          5.52350       11.43330        7.24750
H         10.52650       11.09460        7.95250
H          9.68180       14.21340        6.77030
H         10.27290       14.89380        9.09030
H          9.07510       13.20720       10.68990
H          6.45500       13.42210       10.31430
H          6.03720       15.24290        8.48300
H          8.14770       16.39140        9.59570
H          8.39820       16.35990        7.83220
H          7.13620       14.42120        6.40460
H          8.13650        5.76620        5.23660
H         10.23740        6.89200        4.69430
H         10.49890       10.54400        3.86690
H         11.19170        8.99570        3.35960
H         11.29080        9.49150        5.04310
H          8.15280       10.58360        4.21490
H          6.03810        9.45850        4.74970
H          5.53950        7.17920        2.78270
H          3.51320        7.77850        1.52500
H          1.27590        8.80940        1.56150
H          0.36760        8.92710        3.07730
H          0.50000        7.38170        2.24180
H          1.33600        8.10770        5.17890
H          3.37630        7.53260        6.44180
H          2.81950        3.70270        9.25360
H          3.06260        4.24630       11.63070
H          3.66790        2.52690       14.05270
H          4.51730        4.02200       13.67310
H          5.42740        2.52570       13.92870
H          5.72130        0.94790       12.11770
H          5.51400        0.42110        9.73330
H          5.11980        0.99840        5.67510
H          5.18630       -1.27830        4.76100
H          3.21730       -3.98110        5.88690
H          4.85080       -4.21040        6.50330
H          4.60420       -3.58160        4.86980
H          3.25150       -2.74760        8.25970
H          3.12650       -0.46310        9.16210
H          0.98820        3.81380        4.39190
H         -3.69320        0.14700        1.65190
H         -3.18990       -2.97690       -1.27160
H         -2.66660       -1.94600       -3.43900
H         -4.48940        0.99340       -4.81120
H         -2.75130        0.90730       -4.44340
H         -2.51700        0.36910       -6.90970
H         -4.31100        0.42050       -6.99650
H         -2.88260       -0.34600       -9.34760
H         -3.68740       -1.93030       -9.52490
H         -4.63840       -0.49240       -9.07430
H         -5.37230        1.23020       -2.58270
H         -5.91980        0.19840       -0.43310
H         -5.86840       -1.22830        3.03020
H         -8.16060       -0.70530        3.70970
H        -10.44270       -0.04980        2.92730
H        -10.83430       -1.78150        2.83620
H        -13.02500       -1.19170        2.07240
H        -12.59560        0.55790        2.07520
H        -13.67650        0.80220       -1.33040
H        -11.95750        0.69620       -0.85950
H        -13.06400        1.76740        0.04280
H         -9.58200       -1.82670       -0.14570
H         -7.27560       -2.33700       -0.84600
H         -2.14440       -4.25880        3.47070
H          1.41300       -1.15090        2.86040
H          3.14770       -2.58070        1.89110
H          3.76450       -4.82370        1.16110
H          3.03300       -6.26440        1.92070
H          5.52160       -6.25460        4.43120
H          3.72650       -6.21010        4.55730
H          5.28240       -9.09950        2.27270
H          5.75930       -7.44540        1.79920
H          6.42780       -8.17230        3.28320
H          1.41170       -5.98690        3.78490
H         -0.26530       -4.54350        4.83630
H         -3.09090       -2.08750        5.81120
H         -3.39790       -2.30730        8.24200
H         -0.69230       -3.12480       10.61880
H         -2.46030       -2.92930       10.42670
H          0.56220       -1.23300       10.98890
H         -0.05240       -0.23160        9.62780
H          0.61600        2.19780       12.10940
H          0.94030        1.74390       10.41390
H          1.69890        0.82990       11.73910
H          0.82780       -2.59120        8.74890
H          1.14150       -2.30790        6.33830
H         -4.49200       -7.68710       -1.56110
H         -6.42240       -4.59910       -4.70640
H         -5.08780       -3.00490       -5.53520
H         -6.23450       -0.85920       -5.54660
H        -10.10810        1.06710       -7.58520
H         -9.81110       -0.55850       -8.22750
H        -10.35290        1.07480      -10.06380
H         -8.97930        2.07340       -9.56920
H         -8.70790        0.46150      -10.24200
H         -7.02920       -4.01200       -9.22760
H         -2.22450       -8.58080       -5.51480
H         -1.18540      -10.80400       -5.54010
H         -1.10960      -12.79700       -9.52820
H         -2.28420      -14.08410       -9.15170
H         -0.41650      -15.52180       -8.31200
H          0.74280      -14.25040       -8.70700
H         -0.15010      -15.06450       -9.99890
H         -4.44490       -9.62580       -9.02610
H         -2.78030       -7.90130       -9.84510
H         -2.23640       -6.92200      -11.94830
H         -3.21980       -0.89750      -13.42630
H         -0.43870       -4.02000      -16.28570
H         -1.05810       -1.10390      -17.96700
H          1.44630       -1.06660      -17.06110
H          1.03980        1.11420      -18.46880
H         -0.41110        2.78760      -17.00160
H         -0.89680        1.63770      -14.68990
H          0.47840       -0.66850      -14.58610
H          1.53940        0.67430      -15.06940
H         -2.48160        0.53510      -16.52610
