280

C          1.83090       -4.68410       -4.66000
C          0.69370       -5.42550       -4.43220
C         -0.51740       -4.99600       -3.72810
O         -0.80700       -3.87140       -3.35270
C         -1.34590       -6.19730       -3.54950
C         -2.57040       -6.27840       -2.89120
C         -3.07090       -7.55470       -2.80570
C         -2.40870       -8.66580       -3.34490
C         -1.21260       -8.59350       -4.02120
C         -0.68380       -7.30390       -4.11840
C          0.53540       -6.82370       -4.76860
C          1.33800       -7.56840       -5.59810
C          2.38530       -7.05710       -6.38770
N          3.21610       -6.71340       -7.10470
C          1.17820       -8.94790       -5.83580
N          1.12150      -10.07150       -6.06830
C         -3.47920       -9.62400       -2.88600
C         -4.48630      -10.13790       -3.94440
C         -4.56230       -9.07830       -5.01540
C         -5.18760       -8.02750       -4.50130
C         -5.54520       -8.35740       -3.07320
C         -5.80410       -9.86700       -3.20100
C         -4.21400       -8.38520       -2.28300
C          2.14930       -3.38150       -4.26920
C          3.39170       -2.74980       -4.53570
N          4.47470       -3.32330       -5.15440
C          5.28650       -2.51010       -5.96620
C          4.69980       -1.59810       -6.84070
C          5.49000       -0.79740       -7.63860
C          6.87710       -0.88760       -7.59610
C          7.72100       -0.00130       -8.45890
C          7.45230       -1.80580       -6.72680
C          6.67320       -2.60790       -5.91640
C          4.88470       -4.63990       -4.87780
C          5.44150       -5.43140       -5.87880
C          5.84480       -6.72020       -5.59170
C          5.69230       -7.25690       -4.31840
C          6.08830       -8.67380       -4.04040
C          5.15110       -6.45230       -3.32240
C          4.76310       -5.15500       -3.58990
C          3.38920       -1.41910       -4.07390
S          4.57030       -0.13850       -3.99520
C          3.45090        0.85270       -3.08250
C          2.24930        0.21550       -2.84590
N          1.24930        0.73630       -2.02270
C         -0.08440        0.65190       -2.42690
C         -1.13000        0.60220       -1.50770
C         -2.44050        0.56840       -1.94110
C         -2.75130        0.54010       -3.29430
C         -4.17470        0.56270       -3.76240
C         -1.70280        0.53340       -4.20580
C         -0.39080        0.61100       -3.78630
C          1.62440        1.01910       -0.69980
C          2.57080        0.21510       -0.06920
C          2.97640        0.49310        1.21920
C          2.44730        1.56780        1.91980
C          2.91170        1.87300        3.30840
C          1.49400        2.36190        1.29080
C          1.09000        2.09900       -0.00280
C          2.21350       -1.06930       -3.42790
S          1.03290       -2.31680       -3.40610
C          3.67870        2.19950       -2.60610
C          4.31550        2.61700       -1.46920
C          3.89580        3.89820       -1.07750
S          3.97090        4.75330        0.44060
C          2.65900        5.77780       -0.07460
C          1.53840        6.33590        0.63520
C          1.29240        6.43670        2.00870
C         -0.00650        6.24620        2.42050
C         -0.59490        5.99650        3.81160
C         -1.10040        7.35700        4.27610
C         -0.17510        8.35750        4.54470
C         -0.59370        9.60460        4.96480
C         -1.94460        9.88390        5.13120
C         -2.40150       11.25520        5.53800
C         -2.63800       12.12480        4.30150
C         -2.86370        8.87840        4.86630
C         -2.44990        7.62800        4.44340
C          0.21660        5.36560        4.92140
C         -0.35120        5.37190        6.19460
C          0.26420        4.73140        7.24980
C          1.47680        4.07620        7.07380
C          2.16230        3.41110        8.23130
C          2.96490        4.43050        9.04150
C          2.04710        4.08630        5.81110
C          1.41800        4.70210        4.74040
C         -1.71180        5.05290        3.43250
C         -2.01540        5.20360        2.08670
C         -1.02890        6.02390        1.45770
C         -0.82730        6.28010        0.10160
C          0.47520        6.40760       -0.30200
C          1.04370        6.33040       -1.71420
C          1.35830        7.76850       -2.10970
C          0.33310        8.70640       -2.11090
C          0.58150       10.01640       -2.46990
C          1.85720       10.42550       -2.83890
C          2.13320       11.85990       -3.18680
C          2.50060       12.65310       -1.93120
C          2.87710        9.48460       -2.83660
C          2.63360        8.17080       -2.47780
C          0.20670        5.65730       -2.77580
C         -0.60380        4.56950       -2.48460
C         -1.34070        3.94860       -3.47620
C         -1.28160        4.39130       -4.78960
C         -2.06250        3.71710       -5.88100
C         -1.13290        2.99950       -6.86010
C         -0.45760        5.47050       -5.08270
C          0.27990        6.09120       -4.09490
C          2.30290        5.56680       -1.39790
C          2.97110        4.47880       -1.95380
S          2.64030        3.44700       -3.29510
S         -2.98950        3.90620        1.50170
C         -2.85250        3.08610        3.05550
C         -2.20320        3.88440        3.99060
C         -3.02100        1.68270        3.13840
C         -2.75220        0.88600        4.25550
N         -2.66470        1.33960        5.56370
C         -1.55870        0.91860        6.32320
C         -0.30000        0.86610        5.73140
C          0.78970        0.42610        6.45510
C          0.65790        0.04060        7.78180
C          1.83190       -0.47250        8.55750
C         -0.60050        0.10980        8.36870
C         -1.70030        0.53730        7.65370
C         -3.64310        2.18110        6.09810
C         -4.94650        2.15790        5.60710
C         -5.89930        3.01690        6.11640
C         -5.59010        3.91990        7.12600
C         -6.63350        4.83650        7.68830
C         -4.28950        3.93450        7.61560
C         -3.32580        3.08510        7.11250
C         -2.51590       -0.45310        3.88840
S         -1.89320       -1.80530        4.76320
C         -1.90440       -2.76830        3.28610
C         -2.29750       -2.00260        2.14930
N         -2.26460       -2.49930        0.86690
C         -3.34920       -2.36000       -0.00450
C         -3.16980       -2.47130       -1.38210
C         -4.26240       -2.42730       -2.22450
C         -5.54820       -2.23720       -1.73390
C         -6.73600       -2.19240       -2.64670
C         -5.71240       -2.09280       -0.36050
C         -4.63490       -2.16400        0.49800
C         -1.11510       -3.20910        0.44970
C          0.14510       -2.66860        0.67320
C          1.27240       -3.36500        0.27820
C          1.17050       -4.60830       -0.32960
C          2.38330       -5.38360       -0.74360
C         -0.09680       -5.14050       -0.54330
C         -1.22930       -4.44840       -0.17420
C         -2.66590       -0.70720        2.52410
S         -3.15600        0.72460        1.66730
C         -1.72770       -4.14460        3.24150
C         -1.36080       -5.02540        4.24420
C         -0.82300       -4.65790        5.55220
O         -0.71330       -3.54380        6.03790
C         -0.38790       -5.92210        6.18160
C          0.20860       -6.12370        7.40970
C          0.53500       -7.41880        7.78410
C          0.25870       -8.47340        6.92440
Cl         0.67650      -10.07650        7.40320
C         -0.34630       -8.28380        5.68470
C         -0.67130       -6.99120        5.31510
C         -1.31850       -6.45690        4.11290
C         -1.84180       -7.22350        3.09720
C         -1.73280       -8.62570        3.02440
N         -1.67990       -9.76550        2.88740
C         -2.59690       -6.75140        2.00810
N         -3.25120       -6.48340        1.10060
H          2.62360       -5.18990       -5.19700
H         -3.04920       -5.39690       -2.49480
H         -0.71820       -9.45710       -4.43410
H         -3.15720      -10.40800       -2.20370
H         -4.30320      -11.15300       -4.28680
H         -4.11470       -9.17650       -5.98730
H         -5.36610       -7.07160       -4.95830
H         -6.32550       -7.75140       -2.62070
H         -5.87290      -10.37710       -2.24150
H         -6.68220      -10.09510       -3.80390
H         -4.36400       -8.35150       -1.20600
H          3.62310       -1.52990       -6.89570
H          5.02300       -0.09500       -8.31360
H          7.31650        0.05190       -9.46780
H          7.73560        1.01010       -8.05210
H          8.74430       -0.36440       -8.50810
H          8.52800       -1.89150       -6.67640
H          7.13520       -3.31020       -5.23870
H          5.54300       -5.03770       -6.87770
H          6.26450       -7.32870       -6.37810
H          6.12930       -8.86650       -2.97110
H          7.06010       -8.89480       -4.47720
H          5.36250       -9.35570       -4.48450
H          5.04000       -6.84120       -2.32020
H          4.35920       -4.53080       -2.80680
H         -0.92090        0.59010       -0.44890
H         -3.23580        0.55640       -1.20980
H         -4.30210       -0.05600       -4.64810
H         -4.46810        1.58180       -4.02240
H         -4.84140        0.20860       -2.98130
H         -1.91780        0.48420       -5.26330
H          0.40660        0.64780       -4.51420
H          2.98480       -0.63190       -0.59620
H          3.71260       -0.14130        1.69280
H          3.55030        2.75690        3.29750
H          2.06570        2.07390        3.96190
H          3.48540        1.04290        3.71460
H          1.06660        3.20550        1.81620
H          0.36270        2.73250       -0.48450
H          4.97520        1.99240       -0.89540
H          2.11280        6.52110        2.70400
H          0.87900        8.15380        4.42680
H          0.13840       10.37280        5.16950
H         -1.64580       11.72600        6.16990
H         -3.32900       11.18320        6.10970
H         -3.39640       11.67610        3.66370
H         -1.72030       12.21920        3.72500
H         -2.97070       13.11860        4.59180
H         -3.91900        9.07280        4.99610
H         -3.18360        6.85810        4.25160
H         -1.29410        5.87580        6.35230
H         -0.20210        4.73700        8.22510
H          1.41710        2.94000        8.87580
H          2.83290        2.63240        7.86460
H          3.72420        4.89600        8.41670
H          3.45590        3.94740        9.88310
H          2.31120        5.21200        9.42240
H          2.99640        3.59360        5.65820
H          1.86870        4.64920        3.76200
H         -1.64280        6.21410       -0.60200
H         -0.66620        8.40380       -1.83500
H         -0.22770       10.73290       -2.46740
H          2.95660       11.91630       -3.90170
H          1.24910       12.30540       -3.64760
H          1.68750       12.61620       -1.20960
H          2.69730       13.69310       -2.18140
H          3.38940       12.23310       -1.46540
H          3.87600        9.77980       -3.12540
H          3.44220        7.45450       -2.49550
H         -0.67270        4.20470       -1.47080
H         -1.96810        3.10940       -3.21740
H         -2.64840        4.46260       -6.42560
H         -2.75200        2.99550       -5.44130
H         -1.71100        2.47640       -7.61900
H         -0.51690        2.27880       -6.32880
H         -0.47510        3.70860       -7.35650
H         -0.39480        5.83610       -6.09760
H          0.91550        6.92540       -4.35300
H         -1.98070        3.57560        4.99140
H         -0.18560        1.16920        4.69980
H          1.75810        0.38070        5.97890
H          1.81820       -1.56260        8.56190
H          2.76830       -0.14850        8.10980
H          1.79660       -0.13240        9.59050
H         -0.72380       -0.19210        9.39880
H         -2.67580        0.56730        8.11600
H         -5.21160        1.45990        4.82690
H         -6.90520        2.98200        5.72300
H         -6.18750        5.76900        8.02730
H         -7.39620        5.05850        6.94550
H         -7.12250        4.36760        8.54320
H         -4.02270        4.63170        8.39710
H         -2.31580        3.12510        7.49440
H         -2.18320       -2.60390       -1.79750
H         -4.10180       -2.53830       -3.28650
H         -6.43340       -2.31340       -3.68360
H         -7.43840       -2.98620       -2.39460
H         -7.26150       -1.24290       -2.54590
H         -6.70340       -1.94500        0.04440
H         -4.79150       -2.09450        1.56450
H          0.24180       -1.70300        1.14890
H          2.24640       -2.93050        0.45130
H          2.34090       -5.61490       -1.80790
H          2.42930       -6.32880       -0.20300
H          3.29330       -4.82470       -0.53840
H         -0.19600       -6.11580       -0.99840
H         -2.20570       -4.87760       -0.33520
H         -1.92230       -4.59130        2.27450
H          0.41020       -5.28560        8.05850
H          1.00140       -7.61560        8.73640
H         -0.54260       -9.13150        5.04930
