207

C          6.61870       -1.99160        5.09400
C          7.08590       -0.94980        5.86340
C          6.68980        0.45610        5.76200
O          6.03390        0.99050        4.88310
C          7.23560        1.12400        6.95900
C          7.09290        2.46330        7.31240
C          7.70500        2.79800        8.49670
C          8.41450        1.86980        9.26850
C          8.57170        0.54720        8.92570
C          7.94860        0.18390        7.72870
C          7.90560       -1.10640        7.04020
C          8.54320       -2.25090        7.45800
C          8.64400       -3.44460        6.71890
N          8.81120       -4.44210        6.17140
C          9.21210       -2.38870        8.68910
N          9.74140       -2.59060        9.68890
C          8.75780        2.89000       10.32570
C          7.93680        2.83310       11.63130
C          8.14520        4.19670       12.24930
C          7.47430        5.07770       11.51820
C          6.80090        4.32400       10.39410
C          6.50490        2.99770       11.10590
C          7.96690        3.92610        9.46430
C          5.72540       -1.99810        4.02480
C          5.17280       -3.18380        3.47440
N          5.29000       -4.43850        4.00940
C          5.18830       -5.55520        3.15710
C          5.89900       -5.59080        1.96140
C          5.80220       -6.68970        1.13140
C          5.00480       -7.77520        1.47070
C          4.88650       -8.95750        0.56100
C          4.30470       -7.73280        2.67120
C          4.39070       -6.63980        3.50880
C          5.36920       -4.67090        5.39690
C          6.17740       -5.69620        5.87990
C          6.28130       -5.91100        7.23990
C          5.59890       -5.11060        8.14820
C          5.77840       -5.31050        9.62110
C          4.76710       -4.11200        7.65350
C          4.63840       -3.89770        6.29610
C          4.41110       -2.89430        2.32930
S          3.47370       -3.85420        1.22460
C          2.91470       -2.39400        0.41610
C          3.49200       -1.24240        0.93600
N          3.30080        0.03450        0.43630
C          3.30390        1.10530        1.34720
C          4.02130        2.26700        1.08380
C          4.06260        3.27920        2.02190
C          3.40080        3.16020        3.23710
C          3.50540        4.22670        4.28250
C          2.66420        2.00740        3.47950
C          2.60840        0.99150        2.54780
C          3.26930        0.26750       -0.94200
C          2.47740        1.28680       -1.46530
C          2.40570        1.47900       -2.83130
C          3.10780        0.66570       -3.71080
C          3.01310        0.85110       -5.19450
C          3.91520       -0.33500       -3.17960
C          4.00450       -0.52900       -1.81760
C          4.33380       -1.53810        2.03430
S          5.19290       -0.55360        3.16060
C          1.86500       -2.47180       -0.54410
C          1.54580       -3.51440       -1.39460
C          2.40800       -4.66590       -1.66110
C          1.87830       -5.94980       -1.72120
C          2.70680       -7.01590       -2.01620
C          4.05370       -6.81130       -2.25500
C          4.59960       -5.53280       -2.20780
C          6.05980       -5.32820       -2.51270
C          6.69910       -4.16540       -1.75830
C          3.76270       -4.47020       -1.91170
C          0.31570       -3.28800       -2.04390
S         -0.59180       -4.19930       -3.22750
C         -1.78980       -2.94710       -3.24830
C         -3.03350       -2.66300       -3.84360
C         -3.91580       -3.41050       -4.65770
C         -5.22320       -2.87920       -4.95530
N         -5.96130       -3.72500       -5.65570
S         -5.09480       -5.06530       -5.92830
N         -3.74100       -4.62230       -5.15920
C         -5.54260       -1.56170       -4.55380
C         -6.64780       -0.72030       -4.77570
S         -8.23160       -0.78580       -5.47160
C         -8.45520        0.90380       -5.07150
C         -9.54080        1.78240       -5.22090
C        -10.83530        1.32070       -5.72620
C        -12.01010        1.58690       -5.02470
C        -13.21040        1.07360       -5.47470
C        -13.25230        0.28650       -6.61370
C        -12.09050        0.00400       -7.31980
C        -12.10970       -0.90470       -8.51410
C        -11.74740       -2.33060       -8.09290
C        -10.88790        0.52590       -6.86570
C         -9.23800        3.04410       -4.71860
S         -7.63480        3.11620       -4.00350
C         -7.34470        1.47220       -4.43840
C         -6.31700        0.54160       -4.26570
N         -5.05850        0.51450       -3.71600
C         -4.58970       -0.77810       -3.85170
C         -3.41800       -1.38630       -3.35900
N         -2.47830       -0.93110       -2.45170
C         -1.49020       -1.88110       -2.39330
C         -0.29010       -2.07900       -1.70260
S          0.64520       -1.20060       -0.55010
C         -2.72840       -0.07010       -1.31310
C         -3.02310       -0.88670       -0.05510
C         -4.25050        1.71700       -3.66850
C         -4.12530        2.35490       -5.05180
C         -9.99610        4.25340       -4.76960
C        -11.04740        4.48530       -5.65460
C        -11.73950        5.68740       -5.68970
C        -11.41890        6.77960       -4.88570
C        -10.38500        6.57210       -3.93590
N         -9.98730        7.40090       -2.97440
S         -8.79870        6.71040       -2.14600
N         -8.75170        5.31000       -2.93550
C         -9.67210        5.32740       -3.89640
C        -12.13280        8.01200       -4.98810
C        -11.61010        9.25080       -4.76410
C        -10.16050        9.57000       -4.76240
O         -9.23360        8.84690       -5.05330
C        -10.07940       11.02220       -4.48680
C         -8.94970       11.79950       -4.33270
C         -9.14790       13.15050       -4.09160
F         -8.07770       13.94630       -3.92250
C        -10.41310       13.71400       -4.01730
C        -11.53930       12.92270       -4.18450
C        -11.37400       11.56450       -4.41980
C        -12.34700       10.49210       -4.62040
C        -13.70890       10.64590       -4.61620
C        -14.36790       11.88290       -4.45570
N        -14.96630       12.85520       -4.33410
C        -14.65090        9.60770       -4.77480
N        -15.48320        8.82470       -4.89110
H          6.96190       -2.97560        5.38520
H          6.54640        3.14750        6.68220
H          9.12810       -0.15230        9.52680
H          9.81930        3.05780       10.49760
H          8.14370        1.97260       12.26180
H          8.78380        4.38190       13.09300
H          7.44080        6.14570       11.62930
H          5.97210        4.82300        9.89860
H          6.18250        2.19930       10.44000
H          5.78170        3.11510       11.91150
H          8.50230        4.78410        9.06160
H          6.53890       -4.75970        1.70190
H          6.36400       -6.70970        0.21030
H          5.78050       -9.07070       -0.04750
H          4.03590       -8.82060       -0.10680
H          4.72740       -9.87080        1.12980
H          3.68020       -8.56790        2.95300
H          3.84070       -6.61710        4.43800
H          6.73640       -6.30610        5.18770
H          6.92530       -6.69760        7.60230
H          6.74170       -4.90620        9.93480
H          4.99690       -4.80540       10.18330
H          5.76690       -6.36940        9.87110
H          4.20680       -3.49440        8.34090
H          3.98520       -3.12030        5.92740
H          4.55880        2.36230        0.15170
H          4.63780        4.16960        1.81260
H          4.24810        3.93020        5.02330
H          2.55600        4.36460        4.79640
H          3.81520        5.17410        3.84820
H          2.13280        1.90160        4.41410
H          2.03310        0.09800        2.74460
H          1.91260        1.91550       -0.79300
H          1.78080        2.27050       -3.22040
H          2.35360        1.67860       -5.44270
H          3.99680        1.05240       -5.61700
H          2.62890       -0.05320       -5.66570
H          4.48560       -0.96590       -3.84670
H          4.65400       -1.29260       -1.41510
H          0.82800       -6.10920       -1.53010
H          2.29550       -8.01390       -2.06640
H          4.69000       -7.65180       -2.49350
H          6.59710       -6.25060       -2.27860
H          6.17120       -5.16100       -3.58930
H          7.78130       -4.20290       -1.86230
H          6.44920       -4.21680       -0.70110
H          6.36130       -3.20840       -2.14840
H          4.14580       -3.46280       -1.89640
H        -11.97270        2.18500       -4.12620
H        -14.11920        1.28080       -4.92920
H        -14.19540       -0.11530       -6.95450
H        -13.10170       -0.90150       -8.96950
H        -11.38960       -0.55610       -9.25720
H        -12.45970       -2.69940       -7.35810
H        -11.75960       -2.99570       -8.95300
H        -10.75530       -2.35370       -7.64780
H         -9.97890        0.32030       -7.41200
H         -1.84470        0.55550       -1.15120
H         -3.59050        0.56010       -1.52120
H         -3.24260       -0.21510        0.77000
H         -2.17110       -1.50230        0.21840
H         -3.88310       -1.53230       -0.22040
H         -4.71460        2.42600       -2.97530
H         -3.25220        1.45880       -3.31900
H         -5.09250        2.68750       -5.41720
H         -3.70990        1.63950       -5.75850
H         -3.46420        3.21510       -4.99540
H        -11.32160        3.71080       -6.35290
H        -12.53200        5.80310       -6.41480
H        -13.17350        7.92420       -5.27400
H         -7.96030       11.37490       -4.39170
H        -10.50680       14.77210       -3.83030
H        -12.51650       13.37300       -4.12960
