268

C         -3.26170      -12.06980        2.58860
C         -3.30080      -13.13410        1.72230
C         -2.57340      -14.38090        2.05110
O         -2.00900      -14.64560        3.09140
C         -2.63560      -15.21040        0.82870
C         -2.07410      -16.46930        0.63290
C         -2.35060      -17.02550       -0.59390
C         -3.13560      -16.38010       -1.55730
C         -3.69360      -15.13610       -1.37870
C         -3.41480      -14.55110       -0.14200
C         -3.88910      -13.28830        0.42410
C         -4.90360      -12.50920       -0.09200
C         -5.61800      -11.57960        0.68040
N         -6.27090      -10.85270        1.28690
C         -5.39100      -12.60410       -1.40600
N         -5.78460      -12.59120       -2.48620
C         -3.05990      -17.54400       -2.51560
C         -2.11260      -17.44690       -3.73550
C         -1.00720      -16.49750       -3.34890
C         -0.25650      -17.10020       -2.43680
C         -0.83870      -18.46950       -2.19210
C         -1.37500      -18.78880       -3.59740
C         -2.17820      -18.26040       -1.44480
C         -3.46820      -10.70090        2.36060
C         -3.37570       -9.91700        1.19430
N         -2.89620      -10.34840       -0.01980
C         -1.85770      -11.29480       -0.08190
C         -1.79670      -12.19570       -1.14310
C         -0.79760      -13.14870       -1.18680
C          0.15710      -13.23540       -0.18170
C          1.19710      -14.31010       -0.20140
C          0.11220      -12.30730        0.85220
C         -0.87290      -11.34370        0.90130
C         -3.23120       -9.64530       -1.19830
C         -4.54900       -9.27340       -1.45300
C         -4.86610       -8.60500       -2.61750
C         -3.88980       -8.28970       -3.55570
C         -4.25830       -7.57490       -4.81850
C         -2.57840       -8.66150       -3.29120
C         -2.24620       -9.32840       -2.12810
C         -3.73250       -8.57920        1.46280
S         -3.77890       -7.13760        0.50660
C         -4.27270       -6.20330        1.90890
C         -4.32770       -6.96110        3.07090
N         -4.56630       -6.46960        4.34170
C         -5.28730       -7.25710        5.25290
C         -4.96750       -7.23910        6.60760
C         -5.67840       -8.01790        7.49910
C         -6.71240       -8.84040        7.06990
C         -7.46540       -9.70610        8.03340
C         -7.01900       -8.85850        5.71470
C         -6.32350       -8.07790        4.81430
C         -4.10590       -5.19480        4.69980
C         -4.86550       -4.36840        5.52460
C         -4.45600       -3.07570        5.77970
C         -3.28630       -2.56570        5.22740
C         -2.90520       -1.13310        5.44220
C         -2.50050       -3.41630        4.46190
C         -2.89310       -4.71620        4.20920
C         -4.03900       -8.31820        2.79180
S         -3.87990       -9.72320        3.77370
C         -4.46820       -4.79030        1.78940
C         -5.46530       -4.00970        2.34160
C         -6.71210       -4.53740        2.89000
C         -7.27380       -5.70890        2.38420
C         -8.45980       -6.19050        2.90240
C         -9.10490       -5.51300        3.92250
C         -8.57580       -4.33080        4.42220
C         -9.29450       -3.54290        5.47930
C        -10.11450       -2.42180        4.83810
C         -7.38690       -3.85140        3.89480
C         -5.15350       -2.63580        2.21700
S         -5.94370       -1.17380        2.75690
C         -4.67530       -0.23700        2.04110
C         -4.31940        1.10840        1.83620
C         -5.00140        2.30750        2.13400
C         -4.47440        3.54820        1.63800
N         -5.24520        4.58170        1.93970
S         -6.52160        4.04180        2.77840
N         -6.14040        2.46790        2.78970
C         -3.23100        3.54380        0.97100
C         -2.43530        4.59210        0.47750
S         -2.48530        6.31410        0.30920
C         -0.85470        6.28540       -0.31420
C          0.02810        7.29950       -0.75140
C         -0.32500        8.71070       -0.88910
C          0.19770        9.47660       -1.92970
C         -0.15530       10.80590       -2.05650
C         -1.02640       11.38950       -1.15280
C         -1.57330       10.63790       -0.12200
C         -2.56980       11.23270        0.83070
C         -3.99450       10.88670        0.39380
C         -1.22450        9.30090       -0.00800
C          1.25290        6.76870       -1.09820
S          1.29670        5.01830       -0.98200
C         -0.32150        4.99980       -0.38300
C         -1.23160        4.02840        0.05610
N         -1.25780        2.67220        0.24570
C         -2.49070        2.34380        0.78130
C         -3.09850        1.10410        1.10760
N         -2.73420       -0.21320        0.86360
C         -3.69960       -1.01350        1.42000
C         -3.97020       -2.38380        1.52500
S         -3.20240       -3.84380        1.02300
C         -1.95750       -0.75040       -0.23280
C         -2.64050       -0.47540       -1.57090
C         -0.01930        1.92850        0.24000
C          0.45760        1.60220       -1.17450
C          2.47640        7.47400       -1.34850
C          3.03570        8.45620       -0.54990
N          2.51850        8.90350        0.65590
C          1.85410        8.00910        1.50650
C          2.28770        6.69090        1.62440
C          1.56050        5.77970        2.36570
C          0.39590        6.15370        3.02130
C         -0.44000        5.15570        3.76260
C          0.01220        7.48930        2.96180
C          0.72740        8.40850        2.22240
C          2.63680       10.26000        0.98360
C          2.83640       10.65540        2.30410
C          2.96380       11.99360        2.61640
C          2.90750       12.97230        1.63100
C          3.07730       14.42100        1.97310
C          2.71250       12.56940        0.31630
C          2.57500       11.23520       -0.00890
C          4.26280        8.90630       -1.10080
S          5.41150       10.11560       -0.64720
C          6.42430        9.69370       -2.01740
C          5.87990        8.68890       -2.79310
N          6.42160        8.22270       -3.98150
C          6.32080        6.86320       -4.29810
C          6.18840        6.45710       -5.62400
C          6.07700        5.11650       -5.93120
C          6.08340        4.14620       -4.93570
C          5.92620        2.69520       -5.27450
C          6.21950        4.55840       -3.61650
C          6.34540        5.89540       -3.29610
C          7.12560        9.10510       -4.81670
C          8.33360        8.72650       -5.39530
C          9.07010        9.64000       -6.12310
C          8.62930       10.94640       -6.29380
C          9.45460       11.95010       -7.03820
C          7.39520       11.29960       -5.76100
C          6.64730       10.39420       -5.03690
C          4.64280        8.24700       -2.25690
S          3.49150        7.04440       -2.71740
C          7.70280       10.33790       -2.27880
C          8.82030        9.53380       -2.41620
C         10.04540       10.05610       -2.81250
C         10.16730       11.39860       -3.10790
C         11.44950       11.91750       -3.60070
O         12.42740       11.21440       -3.76280
N         11.50080       13.27350       -3.88230
C         12.77130       13.79900       -4.37160
C         12.88610       13.65040       -5.88320
C         10.44480       14.16200       -3.78380
O         10.57890       15.32670       -4.10440
C          9.17180       13.61950       -3.28060
C          8.08480       14.45910       -3.15090
C          6.86390       13.95830       -2.69880
C          6.72730       12.62880       -2.39000
C          7.81310       11.73910       -2.50800
C          9.05750       12.25290       -2.95510
H         -2.98480      -12.32990        3.60650
H         -1.49920      -16.94650        1.41170
H         -4.30370      -14.65150       -2.12350
H         -4.01440      -18.00050       -2.77160
H         -2.61060      -17.24400       -4.68010
H         -0.91840      -15.49920       -3.73690
H          0.58700      -16.70810       -1.90070
H         -0.17390      -19.19680       -1.73320
H         -2.03730      -19.65300       -3.62330
H         -0.58160      -18.91160       -4.33350
H         -2.55620      -19.18600       -1.01410
H         -2.53420      -12.14460       -1.93120
H         -0.77270      -13.85310       -2.00420
H          1.51020      -14.52600       -1.22060
H          2.06630      -14.02190        0.38470
H          0.78370      -15.22210        0.23090
H          0.86010      -12.33770        1.63040
H         -0.88090      -10.62380        1.70580
H         -5.32460       -9.51250       -0.74230
H         -5.89340       -8.32960       -2.80400
H         -3.37260       -7.30880       -5.38980
H         -4.89180       -8.21000       -5.43700
H         -4.81690       -6.66800       -4.59320
H         -1.80010       -8.42240       -4.00140
H         -1.21940       -9.60220       -1.93390
H         -4.15770       -6.61510        6.95630
H         -5.41690       -7.99190        8.54730
H         -8.52520       -9.72520        7.78780
H         -7.09310      -10.72980        7.98360
H         -7.34540       -9.35030        9.05370
H         -7.81820       -9.49070        5.35670
H         -6.58700       -8.09800        3.76840
H         -5.79050       -4.74000        5.93880
H         -5.06870       -2.43850        6.40130
H         -1.88720       -0.94580        5.10900
H         -3.57520       -0.48060        4.88090
H         -2.98670       -0.86500        6.49410
H         -1.56840       -3.05730        4.04860
H         -2.26450       -5.36260        3.61370
H         -6.79020       -6.23090        1.57210
H         -8.88680       -7.09960        2.50510
H        -10.02910       -5.90000        4.32670
H         -9.95670       -4.19940        6.04700
H         -8.57040       -3.10570        6.17010
H        -10.63440       -1.84590        5.60020
H         -9.46540       -1.75260        4.27800
H        -10.85090       -2.83710        4.15370
H         -6.96910       -2.93720        4.28740
H          0.86420        9.02250       -2.64800
H          0.24930       11.39260       -2.86890
H         -1.28990       12.43240       -1.25420
H         -2.39900       10.84000        1.83550
H         -2.45170       12.31760        0.86290
H         -4.13000        9.80790        0.36850
H         -4.71860       11.31270        1.08430
H         -4.19010       11.27990       -0.60140
H         -1.64860        8.71250        0.79100
H         -0.94720       -0.35230       -0.23340
H         -1.89060       -1.82910       -0.06900
H         -3.63230       -0.92160       -1.58360
H         -2.74500        0.59560       -1.73390
H         -2.05800       -0.90330       -2.38240
H          0.74080        2.55340        0.72380
H         -0.14440        1.03330        0.85090
H         -0.31160        1.09440       -1.74890
H          1.34100        0.97090       -1.12850
H          0.72010        2.51840       -1.69630
H          3.18900        6.37720        1.11760
H          1.90510        4.75660        2.42700
H          0.05310        4.18730        3.80560
H         -0.63410        5.49480        4.77880
H         -1.40300        5.03040        3.26620
H         -0.87730        7.80670        3.48680
H          0.40520        9.43740        2.16860
H          2.89440        9.90710        3.08080
H          3.11880       12.28330        3.64580
H          4.12900       14.70050        1.89960
H          2.74620       14.62170        2.98920
H          2.51400       15.04980        1.28720
H          2.65800       13.31230       -0.46660
H          2.40160       10.94210       -1.03310
H          6.17130        7.20060       -6.40720
H          5.97380        4.81810       -6.96460
H          6.31860        2.48330       -6.26630
H          4.87000        2.42290       -5.26420
H          6.44150        2.06930       -4.54940
H          6.23640        3.82150       -2.82630
H          6.47180        6.19420       -2.26540
H          8.70270        7.72230       -5.24870
H         10.01920        9.33920       -6.54200
H          9.11590       12.02900       -8.07180
H         10.50140       11.65710       -7.04640
H          9.36580       12.93430       -6.58150
H          7.02090       12.30330       -5.90360
H          5.69600       10.68820       -4.61800
H          8.73240        8.47450       -2.22490
H         10.91020        9.41920       -2.91890
H         12.81670       14.85200       -4.08890
H         13.56760       13.24020       -3.87630
H         12.84410       12.59930       -6.15830
H         13.83310       14.06220       -6.22050
H         12.07660       14.18390       -6.37610
H          8.19940       15.50090       -3.41010
H          6.01940       14.62390       -2.60190
H          5.77280       12.25670       -2.05210
