
  xtb     02222213183D
 energy: -377.580692391587 gnorm: 0.000278749382 xtb: 6.4.1 (unknown)
227254  0     0  0            999 V2000
   -4.9898    6.9656   -0.9438 C   0  0  0  0  0  0  0  0  0  0  0  0
   -5.7578    6.6167    0.1397 C   0  0  0  0  0  0  0  0  0  0  0  0
   -6.5265    7.6450    0.8728 C   0  0  0  0  0  0  0  0  0  0  0  0
   -6.4912    8.8457    0.7024 O   0  0  0  0  0  0  0  0  0  0  0  0
   -7.3827    6.8988    1.8199 C   0  0  0  0  0  0  0  0  0  0  0  0
   -8.3145    7.4252    2.7117 C   0  0  0  0  0  0  0  0  0  0  0  0
   -8.9271    6.4845    3.5055 C   0  0  0  0  0  0  0  0  0  0  0  0
   -8.6309    5.1183    3.4245 C   0  0  0  0  0  0  0  0  0  0  0  0
   -7.7177    4.5845    2.5473 C   0  0  0  0  0  0  0  0  0  0  0  0
   -7.0908    5.5244    1.7264 C   0  0  0  0  0  0  0  0  0  0  0  0
   -6.0287    5.3414    0.7379 C   0  0  0  0  0  0  0  0  0  0  0  0
   -5.2610    4.2044    0.6031 C   0  0  0  0  0  0  0  0  0  0  0  0
   -5.5881    2.9531    1.1536 C   0  0  0  0  0  0  0  0  0  0  0  0
   -5.8216    1.8897    1.5231 N   0  0  0  0  0  0  0  0  0  0  0  0
   -4.0067    4.1759   -0.0295 C   0  0  0  0  0  0  0  0  0  0  0  0
   -2.9474    4.0913   -0.4697 N   0  0  0  0  0  0  0  0  0  0  0  0
   -9.5865    4.7610    4.5366 C   0  0  0  0  0  0  0  0  0  0  0  0
  -10.9326    4.1307    4.1241 C   0  0  0  0  0  0  0  0  0  0  0  0
  -11.8180    4.3422    5.3305 C   0  0  0  0  0  0  0  0  0  0  0  0
  -12.1061    5.6357    5.3975 C   0  0  0  0  0  0  0  0  0  0  0  0
  -11.4193    6.3205    4.2377 C   0  0  0  0  0  0  0  0  0  0  0  0
  -11.4978    5.2055    3.1874 C   0  0  0  0  0  0  0  0  0  0  0  0
   -9.9248    6.2842    4.6213 C   0  0  0  0  0  0  0  0  0  0  0  0
   -4.5339    6.1717   -2.0045 C   0  0  0  0  0  0  0  0  0  0  0  0
   -5.0052    4.9597   -2.5488 C   0  0  0  0  0  0  0  0  0  0  0  0
   -6.1899    4.3387   -2.2532 N   0  0  0  0  0  0  0  0  0  0  0  0
   -6.3743    2.9844   -2.6435 C   0  0  0  0  0  0  0  0  0  0  0  0
   -7.4094    2.6562   -3.5108 C   0  0  0  0  0  0  0  0  0  0  0  0
   -7.5925    1.3449   -3.9043 C   0  0  0  0  0  0  0  0  0  0  0  0
   -6.7597    0.3356   -3.4387 C   0  0  0  0  0  0  0  0  0  0  0  0
   -6.9586   -1.0886   -3.8529 C   0  0  0  0  0  0  0  0  0  0  0  0
   -5.7376    0.6731   -2.5593 C   0  0  0  0  0  0  0  0  0  0  0  0
   -5.5395    1.9808   -2.1633 C   0  0  0  0  0  0  0  0  0  0  0  0
   -7.3306    5.0110   -1.7877 C   0  0  0  0  0  0  0  0  0  0  0  0
   -7.6215    6.3218   -2.1560 C   0  0  0  0  0  0  0  0  0  0  0  0
   -8.7399    6.9529   -1.6510 C   0  0  0  0  0  0  0  0  0  0  0  0
   -9.6093    6.2983   -0.7855 C   0  0  0  0  0  0  0  0  0  0  0  0
  -10.7908    7.0111   -0.2065 C   0  0  0  0  0  0  0  0  0  0  0  0
   -9.3393    4.9741   -0.4617 C   0  0  0  0  0  0  0  0  0  0  0  0
   -8.2158    4.3362   -0.9477 C   0  0  0  0  0  0  0  0  0  0  0  0
   -4.0808    4.4493   -3.4854 C   0  0  0  0  0  0  0  0  0  0  0  0
   -3.9995    2.9891   -4.4174 S   0  0  0  0  0  0  0  0  0  0  0  0
   -2.3651    3.3852   -4.9200 C   0  0  0  0  0  0  0  0  0  0  0  0
   -1.9689    4.6491   -4.5015 C   0  0  0  0  0  0  0  0  0  0  0  0
   -0.7629    5.2299   -4.8466 N   0  0  0  0  0  0  0  0  0  0  0  0
   -0.0913    6.0295   -3.9088 C   0  0  0  0  0  0  0  0  0  0  0  0
    0.5748    7.1833   -4.3108 C   0  0  0  0  0  0  0  0  0  0  0  0
    1.2206    7.9700   -3.3779 C   0  0  0  0  0  0  0  0  0  0  0  0
    1.2115    7.6383   -2.0286 C   0  0  0  0  0  0  0  0  0  0  0  0
    1.8832    8.5134   -1.0149 C   0  0  0  0  0  0  0  0  0  0  0  0
    0.5426    6.4846   -1.6374 C   0  0  0  0  0  0  0  0  0  0  0  0
   -0.0971    5.6818   -2.5600 C   0  0  0  0  0  0  0  0  0  0  0  0
   -0.2581    5.0522   -6.1420 C   0  0  0  0  0  0  0  0  0  0  0  0
   -1.1225    4.9793   -7.2325 C   0  0  0  0  0  0  0  0  0  0  0  0
   -0.6276    4.7631   -8.5016 C   0  0  0  0  0  0  0  0  0  0  0  0
    0.7379    4.6269   -8.7263 C   0  0  0  0  0  0  0  0  0  0  0  0
    1.2588    4.3708  -10.1074 C   0  0  0  0  0  0  0  0  0  0  0  0
    1.5950    4.7212   -7.6376 C   0  0  0  0  0  0  0  0  0  0  0  0
    1.1112    4.9269   -6.3602 C   0  0  0  0  0  0  0  0  0  0  0  0
   -2.9557    5.2417   -3.6823 C   0  0  0  0  0  0  0  0  0  0  0  0
   -3.0483    6.7147   -2.7978 S   0  0  0  0  0  0  0  0  0  0  0  0
   -1.5309    2.3417   -5.4149 C   0  0  0  0  0  0  0  0  0  0  0  0
   -1.9155    1.1827   -6.0642 C   0  0  0  0  0  0  0  0  0  0  0  0
   -3.2337    1.0094   -6.6712 C   0  0  0  0  0  0  0  0  0  0  0  0
   -3.9460   -0.1736   -6.4970 C   0  0  0  0  0  0  0  0  0  0  0  0
   -5.2065   -0.3044   -7.0472 C   0  0  0  0  0  0  0  0  0  0  0  0
   -5.7655    0.7331   -7.7718 C   0  0  0  0  0  0  0  0  0  0  0  0
   -5.0637    1.9161   -7.9672 C   0  0  0  0  0  0  0  0  0  0  0  0
   -5.6367    3.0250   -8.8027 C   0  0  0  0  0  0  0  0  0  0  0  0
   -5.1916    2.8801  -10.2591 C   0  0  0  0  0  0  0  0  0  0  0  0
   -3.7982    2.0396   -7.4179 C   0  0  0  0  0  0  0  0  0  0  0  0
   -0.9003    0.2058   -6.0140 C   0  0  0  0  0  0  0  0  0  0  0  0
   -0.8200   -1.4578   -6.5485 S   0  0  0  0  0  0  0  0  0  0  0  0
    0.7032   -1.6238   -5.7382 C   0  0  0  0  0  0  0  0  0  0  0  0
    1.5649   -2.6473   -5.3093 C   0  0  0  0  0  0  0  0  0  0  0  0
    1.4677   -4.0532   -5.4178 C   0  0  0  0  0  0  0  0  0  0  0  0
    2.2651   -4.8765   -4.5482 C   0  0  0  0  0  0  0  0  0  0  0  0
    1.9917   -6.1642   -4.6821 N   0  0  0  0  0  0  0  0  0  0  0  0
    0.8431   -6.3317   -5.8117 S   0  0  0  0  0  0  0  0  0  0  0  0
    0.6403   -4.7647   -6.1660 N   0  0  0  0  0  0  0  0  0  0  0  0
    3.2062   -4.2585   -3.6962 C   0  0  0  0  0  0  0  0  0  0  0  0
    4.0322   -4.7514   -2.6695 C   0  0  0  0  0  0  0  0  0  0  0  0
    4.2651   -6.2151   -1.7773 S   0  0  0  0  0  0  0  0  0  0  0  0
    5.3120   -5.3526   -0.6756 C   0  0  0  0  0  0  0  0  0  0  0  0
    5.9336   -5.7151    0.5362 C   0  0  0  0  0  0  0  0  0  0  0  0
    5.9615   -7.0702    1.0820 C   0  0  0  0  0  0  0  0  0  0  0  0
    7.1281   -7.5746    1.6538 C   0  0  0  0  0  0  0  0  0  0  0  0
    7.1461   -8.8566    2.1661 C   0  0  0  0  0  0  0  0  0  0  0  0
    6.0108   -9.6465    2.1091 C   0  0  0  0  0  0  0  0  0  0  0  0
    4.8434   -9.1649    1.5307 C   0  0  0  0  0  0  0  0  0  0  0  0
    3.5940   -9.9973    1.5081 C   0  0  0  0  0  0  0  0  0  0  0  0
    2.7550   -9.7234    2.7578 C   0  0  0  0  0  0  0  0  0  0  0  0
    4.8302   -7.8764    1.0202 C   0  0  0  0  0  0  0  0  0  0  0  0
    6.5775   -4.6294    1.1037 C   0  0  0  0  0  0  0  0  0  0  0  0
    6.5066   -3.1888    0.1043 S   0  0  0  0  0  0  0  0  0  0  0  0
    5.5088   -4.0169   -1.0378 C   0  0  0  0  0  0  0  0  0  0  0  0
    4.7747   -3.6728   -2.1790 C   0  0  0  0  0  0  0  0  0  0  0  0
    4.4589   -2.5317   -2.8776 N   0  0  0  0  0  0  0  0  0  0  0  0
    3.4435   -2.8600   -3.7607 C   0  0  0  0  0  0  0  0  0  0  0  0
    2.5369   -2.0366   -4.4707 C   0  0  0  0  0  0  0  0  0  0  0  0
    2.2799   -0.6760   -4.4062 N   0  0  0  0  0  0  0  0  0  0  0  0
    1.1503   -0.4400   -5.1459 C   0  0  0  0  0  0  0  0  0  0  0  0
    0.2408    0.6115   -5.3215 C   0  0  0  0  0  0  0  0  0  0  0  0
    0.1123    2.2496   -4.7886 S   0  0  0  0  0  0  0  0  0  0  0  0
    2.6693    0.2816   -3.3919 C   0  0  0  0  0  0  0  0  0  0  0  0
    2.1941   -0.1389   -2.0041 C   0  0  0  0  0  0  0  0  0  0  0  0
    5.4131   -1.4552   -3.0369 C   0  0  0  0  0  0  0  0  0  0  0  0
    6.8130   -1.9828   -3.3469 C   0  0  0  0  0  0  0  0  0  0  0  0
    7.1454   -4.5014    2.4160 C   0  0  0  0  0  0  0  0  0  0  0  0
    8.2455   -3.6532    2.6735 C   0  0  0  0  0  0  0  0  0  0  0  0
    8.9821   -2.9069    1.8386 N   0  0  0  0  0  0  0  0  0  0  0  0
    9.8585   -2.3311    2.6118 N   0  0  0  0  0  0  0  0  0  0  0  0
   10.8108   -1.3882    2.1003 C   0  0  0  0  0  0  0  0  0  0  0  0
   10.3218    0.0368    2.3411 C   0  0  0  0  0  0  0  0  0  0  0  0
    9.7964   -2.6128    3.8838 N   0  0  0  0  0  0  0  0  0  0  0  0
    8.7675   -3.4627    3.9852 C   0  0  0  0  0  0  0  0  0  0  0  0
    8.2253   -4.1118    5.1181 C   0  0  0  0  0  0  0  0  0  0  0  0
    7.1126   -4.8990    4.8433 C   0  0  0  0  0  0  0  0  0  0  0  0
    6.5967   -5.0829    3.5540 C   0  0  0  0  0  0  0  0  0  0  0  0
    5.4612   -5.7972    3.4566 F   0  0  0  0  0  0  0  0  0  0  0  0
    6.3962   -5.4196    5.8509 F   0  0  0  0  0  0  0  0  0  0  0  0
    8.7333   -3.8329    6.4309 C   0  0  0  0  0  0  0  0  0  0  0  0
    8.7583   -4.7016    7.4706 C   0  0  0  0  0  0  0  0  0  0  0  0
    8.5700   -6.1772    7.3584 C   0  0  0  0  0  0  0  0  0  0  0  0
    8.5666   -6.8382    6.3446 O   0  0  0  0  0  0  0  0  0  0  0  0
    8.5276   -6.6762    8.7442 C   0  0  0  0  0  0  0  0  0  0  0  0
    8.2537   -7.9788    9.1544 C   0  0  0  0  0  0  0  0  0  0  0  0
    8.2529   -8.1479   10.5176 C   0  0  0  0  0  0  0  0  0  0  0  0
    8.5119   -7.0985   11.4108 C   0  0  0  0  0  0  0  0  0  0  0  0
    8.7940   -5.8122   11.0203 C   0  0  0  0  0  0  0  0  0  0  0  0
    8.8001   -5.6171    9.6348 C   0  0  0  0  0  0  0  0  0  0  0  0
    9.0308   -4.3981    8.8664 C   0  0  0  0  0  0  0  0  0  0  0  0
    9.4105   -3.1874    9.3819 C   0  0  0  0  0  0  0  0  0  0  0  0
    9.6175   -2.0067    8.6372 C   0  0  0  0  0  0  0  0  0  0  0  0
    9.8033   -1.0007    8.1151 N   0  0  0  0  0  0  0  0  0  0  0  0
    9.6779   -2.9487   10.7468 C   0  0  0  0  0  0  0  0  0  0  0  0
    9.9208   -2.6801   11.8364 N   0  0  0  0  0  0  0  0  0  0  0  0
    8.3391   -7.9803   12.6218 C   0  0  0  0  0  0  0  0  0  0  0  0
    9.6163   -8.4583   13.3554 C   0  0  0  0  0  0  0  0  0  0  0  0
   10.7212   -8.4688   12.3283 C   0  0  0  0  0  0  0  0  0  0  0  0
   10.4785   -9.4615   11.4828 C   0  0  0  0  0  0  0  0  0  0  0  0
    9.2051  -10.1405   11.9231 C   0  0  0  0  0  0  0  0  0  0  0  0
    9.3159   -9.9630   13.4458 C   0  0  0  0  0  0  0  0  0  0  0  0
    8.0523   -9.1492   11.6273 C   0  0  0  0  0  0  0  0  0  0  0  0
   -4.7177    8.0160   -0.9923 H   0  0  0  0  0  0  0  0  0  0  0  0
   -8.4951    8.4880    2.7603 H   0  0  0  0  0  0  0  0  0  0  0  0
   -7.4965    3.5313    2.4959 H   0  0  0  0  0  0  0  0  0  0  0  0
   -9.1391    4.2802    5.4045 H   0  0  0  0  0  0  0  0  0  0  0  0
  -10.8618    3.1164    3.7404 H   0  0  0  0  0  0  0  0  0  0  0  0
  -12.0872    3.5645    6.0210 H   0  0  0  0  0  0  0  0  0  0  0  0
  -12.6638    6.1539    6.1555 H   0  0  0  0  0  0  0  0  0  0  0  0
  -11.7956    7.3009    3.9572 H   0  0  0  0  0  0  0  0  0  0  0  0
  -10.8831    5.3867    2.3087 H   0  0  0  0  0  0  0  0  0  0  0  0
  -12.5226    4.9944    2.8851 H   0  0  0  0  0  0  0  0  0  0  0  0
   -9.7115    6.8131    5.5486 H   0  0  0  0  0  0  0  0  0  0  0  0
   -8.0608    3.4354   -3.8794 H   0  0  0  0  0  0  0  0  0  0  0  0
   -8.3926    1.1054   -4.5892 H   0  0  0  0  0  0  0  0  0  0  0  0
   -7.3562   -1.6684   -3.0199 H   0  0  0  0  0  0  0  0  0  0  0  0
   -6.0104   -1.5338   -4.1462 H   0  0  0  0  0  0  0  0  0  0  0  0
   -7.6551   -1.1584   -4.6843 H   0  0  0  0  0  0  0  0  0  0  0  0
   -5.0852   -0.0977   -2.1779 H   0  0  0  0  0  0  0  0  0  0  0  0
   -4.7316    2.2250   -1.4911 H   0  0  0  0  0  0  0  0  0  0  0  0
   -6.9727    6.8460   -2.8410 H   0  0  0  0  0  0  0  0  0  0  0  0
   -8.9409    7.9750   -1.9354 H   0  0  0  0  0  0  0  0  0  0  0  0
  -11.6103    6.3212   -0.0181 H   0  0  0  0  0  0  0  0  0  0  0  0
  -10.5111    7.4742    0.7409 H   0  0  0  0  0  0  0  0  0  0  0  0
  -11.1346    7.7970   -0.8744 H   0  0  0  0  0  0  0  0  0  0  0  0
  -10.0087    4.4336    0.1917 H   0  0  0  0  0  0  0  0  0  0  0  0
   -8.0124    3.3112   -0.6729 H   0  0  0  0  0  0  0  0  0  0  0  0
    0.5783    7.4617   -5.3545 H   0  0  0  0  0  0  0  0  0  0  0  0
    1.7316    8.8645   -3.7043 H   0  0  0  0  0  0  0  0  0  0  0  0
    1.1517    9.1797   -0.5565 H   0  0  0  0  0  0  0  0  0  0  0  0
    2.3314    7.9159   -0.2238 H   0  0  0  0  0  0  0  0  0  0  0  0
    2.6545    9.1248   -1.4771 H   0  0  0  0  0  0  0  0  0  0  0  0
    0.5235    6.2060   -0.5940 H   0  0  0  0  0  0  0  0  0  0  0  0
   -0.6033    4.7847   -2.2365 H   0  0  0  0  0  0  0  0  0  0  0  0
   -2.1846    5.1043   -7.0766 H   0  0  0  0  0  0  0  0  0  0  0  0
   -1.3117    4.7080   -9.3367 H   0  0  0  0  0  0  0  0  0  0  0  0
    2.3225    4.5866  -10.1687 H   0  0  0  0  0  0  0  0  0  0  0  0
    1.1067    3.3250  -10.3770 H   0  0  0  0  0  0  0  0  0  0  0  0
    0.7325    4.9825  -10.8377 H   0  0  0  0  0  0  0  0  0  0  0  0
    2.6605    4.6221   -7.7882 H   0  0  0  0  0  0  0  0  0  0  0  0
    1.7890    4.9844   -5.5217 H   0  0  0  0  0  0  0  0  0  0  0  0
   -3.5168   -0.9776   -5.9191 H   0  0  0  0  0  0  0  0  0  0  0  0
   -5.7580   -1.2227   -6.9101 H   0  0  0  0  0  0  0  0  0  0  0  0
   -6.7543    0.6242   -8.1942 H   0  0  0  0  0  0  0  0  0  0  0  0
   -5.2995    3.9895   -8.4171 H   0  0  0  0  0  0  0  0  0  0  0  0
   -6.7271    3.0005   -8.7539 H   0  0  0  0  0  0  0  0  0  0  0  0
   -5.5989    3.6862  -10.8652 H   0  0  0  0  0  0  0  0  0  0  0  0
   -5.5344    1.9315  -10.6661 H   0  0  0  0  0  0  0  0  0  0  0  0
   -4.1063    2.9069  -10.3264 H   0  0  0  0  0  0  0  0  0  0  0  0
   -3.2303    2.9455   -7.5754 H   0  0  0  0  0  0  0  0  0  0  0  0
    8.0196   -6.9645    1.6849 H   0  0  0  0  0  0  0  0  0  0  0  0
    8.0503   -9.2405    2.6147 H   0  0  0  0  0  0  0  0  0  0  0  0
    6.0313  -10.6474    2.5160 H   0  0  0  0  0  0  0  0  0  0  0  0
    3.0071   -9.7574    0.6193 H   0  0  0  0  0  0  0  0  0  0  0  0
    3.8541  -11.0571    1.4720 H   0  0  0  0  0  0  0  0  0  0  0  0
    2.4861   -8.6709    2.8077 H   0  0  0  0  0  0  0  0  0  0  0  0
    1.8436  -10.3169    2.7433 H   0  0  0  0  0  0  0  0  0  0  0  0
    3.3192   -9.9719    3.6537 H   0  0  0  0  0  0  0  0  0  0  0  0
    3.9203   -7.4849    0.5903 H   0  0  0  0  0  0  0  0  0  0  0  0
    2.1978    1.2286   -3.6651 H   0  0  0  0  0  0  0  0  0  0  0  0
    3.7467    0.4423   -3.3934 H   0  0  0  0  0  0  0  0  0  0  0  0
    2.4596    0.6255   -1.2794 H   0  0  0  0  0  0  0  0  0  0  0  0
    2.6480   -1.0798   -1.7041 H   0  0  0  0  0  0  0  0  0  0  0  0
    1.1134   -0.2592   -2.0004 H   0  0  0  0  0  0  0  0  0  0  0  0
    5.0877   -0.8465   -3.8801 H   0  0  0  0  0  0  0  0  0  0  0  0
    5.4412   -0.8488   -2.1249 H   0  0  0  0  0  0  0  0  0  0  0  0
    7.2258   -2.5235   -2.5006 H   0  0  0  0  0  0  0  0  0  0  0  0
    7.4702   -1.1474   -3.5735 H   0  0  0  0  0  0  0  0  0  0  0  0
    6.7830   -2.6470   -4.2080 H   0  0  0  0  0  0  0  0  0  0  0  0
   11.7578   -1.5547    2.6175 H   0  0  0  0  0  0  0  0  0  0  0  0
   10.9208   -1.5877    1.0332 H   0  0  0  0  0  0  0  0  0  0  0  0
   10.1870    0.2078    3.4061 H   0  0  0  0  0  0  0  0  0  0  0  0
    9.3743    0.2011    1.8337 H   0  0  0  0  0  0  0  0  0  0  0  0
   11.0513    0.7460    1.9611 H   0  0  0  0  0  0  0  0  0  0  0  0
    9.1141   -2.8273    6.5525 H   0  0  0  0  0  0  0  0  0  0  0  0
    8.0504   -8.7540    8.4324 H   0  0  0  0  0  0  0  0  0  0  0  0
    8.9865   -5.0161   11.7199 H   0  0  0  0  0  0  0  0  0  0  0  0
    7.5479   -7.6918   13.3110 H   0  0  0  0  0  0  0  0  0  0  0  0
    9.8277   -7.9325   14.2825 H   0  0  0  0  0  0  0  0  0  0  0  0
   11.5090   -7.7395   12.2896 H   0  0  0  0  0  0  0  0  0  0  0  0
   11.0231   -9.7275   10.5958 H   0  0  0  0  0  0  0  0  0  0  0  0
    9.0426  -11.1471   11.5467 H   0  0  0  0  0  0  0  0  0  0  0  0
   10.1383  -10.5315   13.8773 H   0  0  0  0  0  0  0  0  0  0  0  0
    8.3928  -10.1900   13.9774 H   0  0  0  0  0  0  0  0  0  0  0  0
    7.0746   -9.6255   11.6685 H   0  0  0  0  0  0  0  0  0  0  0  0
  1  2  2  0  0  0  0
  2  3  1  0  0  0  0
  3  4  2  0  0  0  0
  3  5  1  0  0  0  0
  5  6  2  0  0  0  0
  6  7  1  0  0  0  0
  7  8  2  0  0  0  0
  8  9  1  0  0  0  0
  9 10  2  0  0  0  0
 10 11  1  0  0  0  0
 11 12  2  0  0  0  0
 12 13  1  0  0  0  0
 13 14  3  0  0  0  0
 12 15  1  0  0  0  0
 15 16  3  0  0  0  0
  8 17  1  0  0  0  0
 17 18  1  0  0  0  0
 18 19  1  0  0  0  0
 19 20  2  0  0  0  0
 20 21  1  0  0  0  0
 21 22  1  0  0  0  0
 21 23  1  0  0  0  0
  1 24  1  0  0  0  0
 24 25  2  0  0  0  0
 25 26  1  0  0  0  0
 26 27  1  0  0  0  0
 27 28  2  0  0  0  0
 28 29  1  0  0  0  0
 29 30  2  0  0  0  0
 30 31  1  0  0  0  0
 30 32  1  0  0  0  0
 32 33  2  0  0  0  0
 26 34  1  0  0  0  0
 34 35  2  0  0  0  0
 35 36  1  0  0  0  0
 36 37  2  0  0  0  0
 37 38  1  0  0  0  0
 37 39  1  0  0  0  0
 39 40  2  0  0  0  0
 25 41  1  0  0  0  0
 41 42  1  0  0  0  0
 42 43  1  0  0  0  0
 43 44  2  0  0  0  0
 44 45  1  0  0  0  0
 45 46  1  0  0  0  0
 46 47  2  0  0  0  0
 47 48  1  0  0  0  0
 48 49  2  0  0  0  0
 49 50  1  0  0  0  0
 49 51  1  0  0  0  0
 51 52  2  0  0  0  0
 45 53  1  0  0  0  0
 53 54  2  0  0  0  0
 54 55  1  0  0  0  0
 55 56  2  0  0  0  0
 56 57  1  0  0  0  0
 56 58  1  0  0  0  0
 58 59  2  0  0  0  0
 44 60  1  0  0  0  0
 60 61  1  0  0  0  0
 43 62  1  0  0  0  0
 62 63  2  0  0  0  0
 63 64  1  0  0  0  0
 64 65  2  0  0  0  0
 65 66  1  0  0  0  0
 66 67  2  0  0  0  0
 67 68  1  0  0  0  0
 68 69  1  0  0  0  0
 69 70  1  0  0  0  0
 68 71  2  0  0  0  0
 63 72  1  0  0  0  0
 72 73  1  0  0  0  0
 73 74  1  0  0  0  0
 74 75  1  0  0  0  0
 75 76  1  0  0  0  0
 76 77  1  0  0  0  0
 77 78  2  0  0  0  0
 78 79  1  0  0  0  0
 79 80  1  0  0  0  0
 77 81  1  0  0  0  0
 81 82  1  0  0  0  0
 82 83  1  0  0  0  0
 83 84  1  0  0  0  0
 84 85  1  0  0  0  0
 85 86  1  0  0  0  0
 86 87  2  0  0  0  0
 87 88  1  0  0  0  0
 88 89  2  0  0  0  0
 89 90  1  0  0  0  0
 90 91  1  0  0  0  0
 91 92  1  0  0  0  0
 90 93  2  0  0  0  0
 85 94  2  0  0  0  0
 94 95  1  0  0  0  0
 95 96  1  0  0  0  0
 96 97  1  0  0  0  0
 97 98  1  0  0  0  0
 98 99  1  0  0  0  0
 99100  1  0  0  0  0
100101  1  0  0  0  0
101102  1  0  0  0  0
102103  1  0  0  0  0
103104  1  0  0  0  0
101105  1  0  0  0  0
105106  1  0  0  0  0
 98107  1  0  0  0  0
107108  1  0  0  0  0
 94109  1  0  0  0  0
109110  1  0  0  0  0
110111  2  0  0  0  0
111112  1  0  0  0  0
112113  1  0  0  0  0
113114  1  0  0  0  0
112115  1  0  0  0  0
115116  2  0  0  0  0
116117  1  0  0  0  0
117118  2  0  0  0  0
118119  1  0  0  0  0
119120  1  0  0  0  0
118121  1  0  0  0  0
117122  1  0  0  0  0
122123  2  0  0  0  0
123124  1  0  0  0  0
124125  2  0  0  0  0
124126  1  0  0  0  0
126127  2  0  0  0  0
127128  1  0  0  0  0
128129  2  0  0  0  0
129130  1  0  0  0  0
130131  2  0  0  0  0
131132  1  0  0  0  0
132133  2  0  0  0  0
133134  1  0  0  0  0
134135  3  0  0  0  0
133136  1  0  0  0  0
136137  3  0  0  0  0
129138  1  0  0  0  0
138139  1  0  0  0  0
139140  1  0  0  0  0
140141  2  0  0  0  0
141142  1  0  0  0  0
142143  1  0  0  0  0
142144  1  0  0  0  0
 11  2  1  0  0  0  0
 23 17  1  0  0  0  0
 61 24  1  0  0  0  0
104 62  1  0  0  0  0
119109  2  0  0  0  0
132123  1  0  0  0  0
144138  1  0  0  0  0
 10  5  1  0  0  0  0
 22 18  1  0  0  0  0
 33 27  1  0  0  0  0
 40 34  1  0  0  0  0
 60 41  2  0  0  0  0
 71 64  1  0  0  0  0
103 72  2  0  0  0  0
116110  1  0  0  0  0
131126  1  0  0  0  0
143139  1  0  0  0  0
 23  7  1  0  0  0  0
 52 46  1  0  0  0  0
 59 53  1  0  0  0  0
102 74  2  0  0  0  0
144128  1  0  0  0  0
100 75  2  0  0  0  0
 80 76  2  0  0  0  0
 99 81  2  0  0  0  0
 97 82  2  0  0  0  0
 96 84  2  0  0  0  0
 93 86  1  0  0  0  0
  1145  1  0  0  0  0
  6146  1  0  0  0  0
  9147  1  0  0  0  0
 17148  1  0  0  0  0
 18149  1  0  0  0  0
 19150  1  0  0  0  0
 20151  1  0  0  0  0
 21152  1  0  0  0  0
 22153  1  0  0  0  0
 22154  1  0  0  0  0
 23155  1  0  0  0  0
 28156  1  0  0  0  0
 29157  1  0  0  0  0
 31158  1  0  0  0  0
 31159  1  0  0  0  0
 31160  1  0  0  0  0
 32161  1  0  0  0  0
 33162  1  0  0  0  0
 35163  1  0  0  0  0
 36164  1  0  0  0  0
 38165  1  0  0  0  0
 38166  1  0  0  0  0
 38167  1  0  0  0  0
 39168  1  0  0  0  0
 40169  1  0  0  0  0
 47170  1  0  0  0  0
 48171  1  0  0  0  0
 50172  1  0  0  0  0
 50173  1  0  0  0  0
 50174  1  0  0  0  0
 51175  1  0  0  0  0
 52176  1  0  0  0  0
 54177  1  0  0  0  0
 55178  1  0  0  0  0
 57179  1  0  0  0  0
 57180  1  0  0  0  0
 57181  1  0  0  0  0
 58182  1  0  0  0  0
 59183  1  0  0  0  0
 65184  1  0  0  0  0
 66185  1  0  0  0  0
 67186  1  0  0  0  0
 69187  1  0  0  0  0
 69188  1  0  0  0  0
 70189  1  0  0  0  0
 70190  1  0  0  0  0
 70191  1  0  0  0  0
 71192  1  0  0  0  0
 87193  1  0  0  0  0
 88194  1  0  0  0  0
 89195  1  0  0  0  0
 91196  1  0  0  0  0
 91197  1  0  0  0  0
 92198  1  0  0  0  0
 92199  1  0  0  0  0
 92200  1  0  0  0  0
 93201  1  0  0  0  0
105202  1  0  0  0  0
105203  1  0  0  0  0
106204  1  0  0  0  0
106205  1  0  0  0  0
106206  1  0  0  0  0
107207  1  0  0  0  0
107208  1  0  0  0  0
108209  1  0  0  0  0
108210  1  0  0  0  0
108211  1  0  0  0  0
113212  1  0  0  0  0
113213  1  0  0  0  0
114214  1  0  0  0  0
114215  1  0  0  0  0
114216  1  0  0  0  0
122217  1  0  0  0  0
127218  1  0  0  0  0
130219  1  0  0  0  0
138220  1  0  0  0  0
139221  1  0  0  0  0
140222  1  0  0  0  0
141223  1  0  0  0  0
142224  1  0  0  0  0
143225  1  0  0  0  0
143226  1  0  0  0  0
144227  1  0  0  0  0
M  END
