204

C          4.07180       -3.59800        7.08850
C          3.14180       -4.04590        8.00270
C          1.86460       -3.40890        8.32100
O          1.38250       -2.40230        7.82590
C          1.25770       -4.21040        9.39870
C          0.02760       -3.99280       10.01410
C         -0.28620       -4.92060       10.97810
C          0.56510       -5.98170       11.30990
C          1.78570       -6.20200       10.71510
C          2.12190       -5.27290        9.72660
C          3.29930       -5.19630        8.85900
C          4.33600       -6.09990        8.85470
C          5.40380       -6.12370        7.93780
N          6.28790       -6.25050        7.21300
C          4.46380       -7.17260        9.75900
N          4.64850       -8.05870       10.46680
C         -0.38780       -6.52790       12.34480
C         -1.21130       -7.76770       11.93660
C         -2.36220       -7.77680       12.91670
C         -3.16900       -6.77180       12.60120
C         -2.57660       -6.06620       11.40280
C         -1.93650       -7.26040       10.68340
C         -1.33760       -5.34410       11.97380
C          3.98160       -2.57920        6.14420
C          5.00740       -2.30560        5.19890
N          6.28860       -2.77620        5.26050
C          6.99710       -2.97140        4.05700
C          8.29330       -2.48900        3.91190
C          8.97060       -2.67920        2.72380
C          8.37890       -3.34800        1.65870
C          9.10220       -3.52210        0.35960
C          7.08720       -3.83630        1.81900
C          6.40010       -3.65630        3.00230
C          6.97420       -2.95160        6.47750
C          6.75920       -2.08880        7.54910
C          7.43530       -2.28200        8.73710
C          8.34890       -3.31920        8.88350
C          9.06660       -3.54730       10.17780
C          8.57890       -4.15500        7.79680
C          7.90120       -3.98270        6.60690
C          4.52250       -1.48600        4.16510
S          5.19820       -0.85800        2.69330
C          3.67470       -0.06020        2.31740
C          2.74010       -0.19550        3.33690
N          1.50030        0.41870        3.37520
C          1.35390        1.79190        3.15400
C          2.43090        2.67120        3.23880
C          2.24040        4.02790        3.05980
C          0.98020        4.55250        2.80590
C          0.77200        6.02360        2.61390
C         -0.08950        3.66640        2.70880
C          0.08970        2.30790        2.86740
C          0.48820       -0.29150        4.06050
C         -0.18390        0.26570        5.14280
C         -1.09470       -0.49140        5.85100
C         -1.35370       -1.81210        5.50580
C         -2.28050       -2.65040        6.33000
C         -0.69900       -2.34980        4.40490
C          0.21080       -1.60150        3.68480
C          3.21860       -1.04810        4.36010
S          2.51670       -1.64890        5.81790
C          3.49210        0.46840        1.01280
C          4.46420        0.66630        0.06310
C          3.94410        0.98490       -1.20210
C          4.62900        1.24630       -2.41900
C          3.89130        1.51940       -3.62630
N          4.68920        1.74710       -4.65910
S          6.22470        1.62760       -4.16690
N          5.93850        1.28160       -2.61360
C          2.47230        1.52020       -3.61370
C          1.56870        1.79060       -4.65870
C          0.26220        1.77330       -4.25470
S          0.10950        1.29380       -2.57560
C          1.82700        1.26330       -2.39540
C          2.54170        1.01750       -1.21780
S          1.88370        0.71450        0.35470
C         -0.88810        2.11750       -5.03500
C         -1.95020        2.94690       -4.69440
N         -2.07170        3.67420       -3.52830
C         -3.34760        3.94310       -3.00560
C         -4.35740        2.98660       -3.05770
C         -5.61130        3.27540       -2.55550
C         -5.88730        4.50910       -1.98040
C         -7.25620        4.82760       -1.46300
C         -4.86610        5.45070       -1.91520
C         -3.61180        5.17890       -2.42170
C         -0.93140        4.08380       -2.81790
C         -0.88650        3.95200       -1.43220
C          0.29180        4.18570       -0.75170
C          1.44540        4.56850       -1.42360
C          2.74060        4.74320       -0.69170
C          1.36900        4.78120       -2.79590
C          0.19810        4.54720       -3.48900
C         -2.88350        3.01590       -5.75900
S         -4.34860        3.89350       -5.99420
C         -4.53880        3.19450       -7.61230
C         -3.42370        2.39960       -7.97540
N         -3.15020        1.88400       -9.20280
C         -3.65240        2.41040      -10.40060
C         -4.01260        1.54300      -11.43060
C         -4.51590        2.04110      -12.61750
C         -4.66300        3.40710      -12.81770
C         -5.20650        3.95130      -14.09970
C         -4.27220        4.26800      -11.79320
C         -3.77770        3.78480      -10.60020
C         -2.26840        0.78040       -9.30520
C         -1.19750        0.83200      -10.18950
C         -0.33980       -0.24610      -10.29240
C         -0.53230       -1.38960       -9.52650
C          0.41450       -2.54550       -9.61820
C         -1.61790       -1.43310       -8.65790
C         -2.48190       -0.36300       -8.54280
C         -2.53000        2.28470       -6.88480
S         -1.00040        1.49990       -6.67290
C         -5.71530        3.50690       -8.28470
C         -6.27960        2.78610       -9.32390
C         -6.05490        1.35610       -9.52270
O         -5.38790        0.60720       -8.83460
C         -6.94940        0.96640      -10.64220
C         -7.12770       -0.27890      -11.21080
Cl        -6.14950       -1.60610      -10.76290
C         -8.12520       -0.43020      -12.18360
Cl        -8.34960       -1.94330      -12.95100
C         -8.95680        0.64100      -12.49780
Cl       -10.23410        0.41090      -13.61470
C         -8.77360        1.90400      -11.91010
Cl        -9.93790        3.12390      -12.22620
C         -7.71520        2.08270      -11.03130
C         -7.21080        3.25260      -10.31080
C         -7.34920        4.57340      -10.66780
C         -7.88910        5.07020      -11.86770
N         -8.18980        5.57620      -12.85480
C         -6.74300        5.62620       -9.95010
N         -6.27500        6.53460       -9.42570
H          5.00750       -4.14160        7.06320
H         -0.59420       -3.15780        9.73020
H          2.42970       -7.02140       10.98680
H         -0.00290       -6.58820       13.36100
H         -0.63740       -8.68590       11.84660
H         -2.43940       -8.45620       13.74520
H         -4.05450       -6.44370       13.11350
H         -3.24720       -5.43440       10.82620
H         -2.67940       -7.96980       10.32220
H         -1.27110       -6.98300        9.86790
H         -1.58640       -4.61560       12.74340
H          8.76040       -1.96190        4.73050
H          9.97460       -2.29440        2.62010
H          8.88020       -4.49200       -0.08000
H         10.17690       -3.43290        0.49640
H          8.78430       -2.75410       -0.34630
H          6.61470       -4.36900        1.00670
H          5.40130       -4.05010        3.12140
H          6.05840       -1.27280        7.44960
H          7.25340       -1.60860        9.56250
H          8.73510       -4.48280       10.62810
H          8.87480       -2.73960       10.87970
H         10.14010       -3.62220       10.01250
H          9.28520       -4.96590        7.88910
H          8.07530       -4.65210        5.77940
H          3.41820        2.29710        3.46480
H          3.08940        4.69240        3.13850
H         -0.09520        6.36430        3.17650
H          0.59400        6.24610        1.56100
H          1.64440        6.58460        2.93940
H         -1.07910        4.04990        2.50370
H         -0.74930        1.63430        2.78050
H          0.03000        1.28200        5.43920
H         -1.59450       -0.05580        6.70350
H         -3.04000       -2.03780        6.81000
H         -1.70830       -3.15500        7.10940
H         -2.76720       -3.41060        5.72310
H         -0.89540       -3.37170        4.11370
H          0.72710       -2.02940        2.83730
H          5.51580        0.56970        0.26390
H          1.87840        2.04390       -5.65610
H         -4.15340        2.01500       -3.48370
H         -6.38660        2.52470       -2.60610
H         -7.20350        5.51030       -0.61800
H         -7.77650        3.92330       -1.15600
H         -7.84570        5.30670       -2.24550
H         -5.05970        6.41540       -1.46910
H         -2.82840        5.92080       -2.37280
H         -1.76290        3.61150       -0.90150
H          0.32590        4.01730        0.31330
H          2.97820        5.80160       -0.58310
H          2.68500        4.29950        0.29980
H          3.55560        4.27420       -1.24150
H          2.24590        5.11170       -3.33380
H          0.16160        4.69430       -4.55840
H         -3.90110        0.47860      -11.28970
H         -4.80320        1.35190      -13.39810
H         -6.05920        4.60220      -13.91110
H         -4.44720        4.54440      -14.60830
H         -5.52040        3.14780      -14.76070
H         -4.35950        5.33530      -11.93570
H         -3.47970        4.47270       -9.82330
H         -1.04060        1.71750      -10.78810
H          0.49410       -0.19590      -10.97710
H         -0.11860       -3.48990       -9.53560
H          1.13650       -2.49650       -8.80260
H          0.96220       -2.52850      -10.55700
H         -1.79200       -2.32150       -8.06890
H         -3.34120       -0.40670       -7.89260
H         -6.25460        4.36630       -7.90570
