
  xtb     02142220223D
 energy: -425.351860949321 gnorm: 0.000276032727 xtb: 6.4.1 (unknown)
262290  0     0  0            999 V2000
   -2.5791    5.9774   -1.7169 C   0  0  0  0  0  0  0  0  0  0  0  0
   -2.8987    7.3104   -1.8322 C   0  0  0  0  0  0  0  0  0  0  0  0
   -1.9754    8.4412   -1.7189 C   0  0  0  0  0  0  0  0  0  0  0  0
   -0.7562    8.4144   -1.6897 O   0  0  0  0  0  0  0  0  0  0  0  0
   -2.8143    9.6508   -1.6319 C   0  0  0  0  0  0  0  0  0  0  0  0
   -2.3789   10.9628   -1.4628 C   0  0  0  0  0  0  0  0  0  0  0  0
   -3.3965   11.8837   -1.3897 C   0  0  0  0  0  0  0  0  0  0  0  0
   -4.7474   11.5262   -1.4827 C   0  0  0  0  0  0  0  0  0  0  0  0
   -5.1895   10.2361   -1.6603 C   0  0  0  0  0  0  0  0  0  0  0  0
   -4.1703    9.2824   -1.7326 C   0  0  0  0  0  0  0  0  0  0  0  0
   -4.2429    7.8330   -1.9203 C   0  0  0  0  0  0  0  0  0  0  0  0
   -5.3902    7.1205   -2.1720 C   0  0  0  0  0  0  0  0  0  0  0  0
   -6.6867    7.6706   -2.1763 C   0  0  0  0  0  0  0  0  0  0  0  0
   -7.7726    8.0463   -2.1760 N   0  0  0  0  0  0  0  0  0  0  0  0
   -5.4358    5.7537   -2.5093 C   0  0  0  0  0  0  0  0  0  0  0  0
   -5.5502    4.6559   -2.8305 N   0  0  0  0  0  0  0  0  0  0  0  0
   -5.2187   12.9495   -1.3114 C   0  0  0  0  0  0  0  0  0  0  0  0
   -5.7684   13.3312    0.0793 C   0  0  0  0  0  0  0  0  0  0  0  0
   -5.6931   14.8408    0.0967 C   0  0  0  0  0  0  0  0  0  0  0  0
   -4.4132   15.1800    0.1836 C   0  0  0  0  0  0  0  0  0  0  0  0
   -3.6021   13.9052    0.2263 C   0  0  0  0  0  0  0  0  0  0  0  0
   -4.5773   12.9975    0.9869 C   0  0  0  0  0  0  0  0  0  0  0  0
   -3.7116   13.3483   -1.2090 C   0  0  0  0  0  0  0  0  0  0  0  0
   -1.3443    5.3522   -1.5424 C   0  0  0  0  0  0  0  0  0  0  0  0
   -1.1999    3.9637   -1.3005 C   0  0  0  0  0  0  0  0  0  0  0  0
   -2.2161    3.0567   -1.1284 N   0  0  0  0  0  0  0  0  0  0  0  0
   -1.9926    1.7184   -1.5055 C   0  0  0  0  0  0  0  0  0  0  0  0
   -2.3899    0.6674   -0.6825 C   0  0  0  0  0  0  0  0  0  0  0  0
   -2.0926   -0.6359   -1.0269 C   0  0  0  0  0  0  0  0  0  0  0  0
   -1.4070   -0.9328   -2.2003 C   0  0  0  0  0  0  0  0  0  0  0  0
   -1.0039   -2.3367   -2.5276 C   0  0  0  0  0  0  0  0  0  0  0  0
   -1.0700    0.1188   -3.0445 C   0  0  0  0  0  0  0  0  0  0  0  0
   -1.3567    1.4269   -2.7094 C   0  0  0  0  0  0  0  0  0  0  0  0
   -3.4036    3.3567   -0.4306 C   0  0  0  0  0  0  0  0  0  0  0  0
   -4.6095    2.8071   -0.8587 C   0  0  0  0  0  0  0  0  0  0  0  0
   -5.7713    3.0682   -0.1623 C   0  0  0  0  0  0  0  0  0  0  0  0
   -5.7655    3.8763    0.9690 C   0  0  0  0  0  0  0  0  0  0  0  0
   -7.0427    4.1478    1.6981 C   0  0  0  0  0  0  0  0  0  0  0  0
   -4.5560    4.4177    1.3889 C   0  0  0  0  0  0  0  0  0  0  0  0
   -3.3830    4.1604    0.7057 C   0  0  0  0  0  0  0  0  0  0  0  0
    0.1601    3.6095   -1.2531 C   0  0  0  0  0  0  0  0  0  0  0  0
    0.9918    2.1430   -0.8621 S   0  0  0  0  0  0  0  0  0  0  0  0
    2.5428    2.9643   -1.0255 C   0  0  0  0  0  0  0  0  0  0  0  0
    2.4084    4.3088   -1.3253 C   0  0  0  0  0  0  0  0  0  0  0  0
    3.4511    5.2018   -1.4539 N   0  0  0  0  0  0  0  0  0  0  0  0
    3.3134    6.3029   -2.3149 C   0  0  0  0  0  0  0  0  0  0  0  0
    3.8177    7.5462   -1.9465 C   0  0  0  0  0  0  0  0  0  0  0  0
    3.6575    8.6336   -2.7810 C   0  0  0  0  0  0  0  0  0  0  0  0
    2.9911    8.5164   -3.9945 C   0  0  0  0  0  0  0  0  0  0  0  0
    2.7768    9.7096   -4.8742 C   0  0  0  0  0  0  0  0  0  0  0  0
    2.5025    7.2689   -4.3601 C   0  0  0  0  0  0  0  0  0  0  0  0
    2.6625    6.1718   -3.5381 C   0  0  0  0  0  0  0  0  0  0  0  0
    4.6443    5.0100   -0.7435 C   0  0  0  0  0  0  0  0  0  0  0  0
    4.6239    4.5431    0.5691 C   0  0  0  0  0  0  0  0  0  0  0  0
    5.8051    4.2831    1.2332 C   0  0  0  0  0  0  0  0  0  0  0  0
    7.0346    4.5015    0.6227 C   0  0  0  0  0  0  0  0  0  0  0  0
    8.3094    4.1631    1.3336 C   0  0  0  0  0  0  0  0  0  0  0  0
    7.0455    5.0206   -0.6655 C   0  0  0  0  0  0  0  0  0  0  0  0
    5.8707    5.2701   -1.3468 C   0  0  0  0  0  0  0  0  0  0  0  0
    1.0390    4.6650   -1.4550 C   0  0  0  0  0  0  0  0  0  0  0  0
    0.2197    6.1703   -1.6681 S   0  0  0  0  0  0  0  0  0  0  0  0
    3.7009    2.1680   -0.7286 C   0  0  0  0  0  0  0  0  0  0  0  0
    4.8555    1.9058   -1.4367 C   0  0  0  0  0  0  0  0  0  0  0  0
    5.2074    2.5008   -2.7225 C   0  0  0  0  0  0  0  0  0  0  0  0
    4.2385    2.8557   -3.6576 C   0  0  0  0  0  0  0  0  0  0  0  0
    4.6113    3.4463   -4.8492 C   0  0  0  0  0  0  0  0  0  0  0  0
    5.9465    3.6805   -5.1275 C   0  0  0  0  0  0  0  0  0  0  0  0
    6.9291    3.3115   -4.2179 C   0  0  0  0  0  0  0  0  0  0  0  0
    8.3854    3.4986   -4.5312 C   0  0  0  0  0  0  0  0  0  0  0  0
    8.9716    2.2088   -5.1083 C   0  0  0  0  0  0  0  0  0  0  0  0
    6.5481    2.7213   -3.0238 C   0  0  0  0  0  0  0  0  0  0  0  0
    5.6468    0.9339   -0.7725 C   0  0  0  0  0  0  0  0  0  0  0  0
    7.0335   -0.0266   -1.2610 S   0  0  0  0  0  0  0  0  0  0  0  0
    6.7937   -1.0740    0.1096 C   0  0  0  0  0  0  0  0  0  0  0  0
    7.1465   -2.3617    0.5678 C   0  0  0  0  0  0  0  0  0  0  0  0
    7.8568   -3.4329   -0.0267 C   0  0  0  0  0  0  0  0  0  0  0  0
    7.5564   -4.7911    0.3749 C   0  0  0  0  0  0  0  0  0  0  0  0
    8.1881   -5.6825   -0.3707 N   0  0  0  0  0  0  0  0  0  0  0  0
    9.0936   -4.9019   -1.4638 S   0  0  0  0  0  0  0  0  0  0  0  0
    8.7008   -3.3893   -1.0431 N   0  0  0  0  0  0  0  0  0  0  0  0
    6.6452   -5.0177    1.4320 C   0  0  0  0  0  0  0  0  0  0  0  0
    5.8598   -6.1211    1.8554 C   0  0  0  0  0  0  0  0  0  0  0  0
    5.3311   -7.6471    1.2163 S   0  0  0  0  0  0  0  0  0  0  0  0
    3.8737   -7.5609    2.1918 C   0  0  0  0  0  0  0  0  0  0  0  0
    2.5850   -8.1447    2.0668 C   0  0  0  0  0  0  0  0  0  0  0  0
    2.2508   -9.3602    1.3360 C   0  0  0  0  0  0  0  0  0  0  0  0
    3.0898   -9.8740    0.3490 C   0  0  0  0  0  0  0  0  0  0  0  0
    2.7468  -11.0318   -0.3219 C   0  0  0  0  0  0  0  0  0  0  0  0
    1.5767  -11.7017   -0.0140 C   0  0  0  0  0  0  0  0  0  0  0  0
    0.7409  -11.2279    0.9907 C   0  0  0  0  0  0  0  0  0  0  0  0
   -0.4829  -12.0048    1.3843 C   0  0  0  0  0  0  0  0  0  0  0  0
   -0.1036  -13.1802    2.2869 C   0  0  0  0  0  0  0  0  0  0  0  0
    1.0892  -10.0653    1.6561 C   0  0  0  0  0  0  0  0  0  0  0  0
    1.6489   -7.4050    2.7798 C   0  0  0  0  0  0  0  0  0  0  0  0
    2.3867   -6.1725    3.7995 S   0  0  0  0  0  0  0  0  0  0  0  0
    3.9161   -6.4762    3.0686 C   0  0  0  0  0  0  0  0  0  0  0  0
    5.0455   -5.6717    2.8966 C   0  0  0  0  0  0  0  0  0  0  0  0
    5.3268   -4.3503    3.2035 N   0  0  0  0  0  0  0  0  0  0  0  0
    6.2110   -3.9224    2.2124 C   0  0  0  0  0  0  0  0  0  0  0  0
    6.3359   -2.6129    1.7083 C   0  0  0  0  0  0  0  0  0  0  0  0
    5.5387   -1.5141    1.9519 N   0  0  0  0  0  0  0  0  0  0  0  0
    5.7705   -0.6216    0.9462 C   0  0  0  0  0  0  0  0  0  0  0  0
    5.1041    0.4956    0.4302 C   0  0  0  0  0  0  0  0  0  0  0  0
    3.6090    1.2732    0.7794 S   0  0  0  0  0  0  0  0  0  0  0  0
    4.3617   -1.3813    2.7789 C   0  0  0  0  0  0  0  0  0  0  0  0
    3.1628   -2.1245    2.1941 C   0  0  0  0  0  0  0  0  0  0  0  0
    5.4974   -3.9221    4.5849 C   0  0  0  0  0  0  0  0  0  0  0  0
    4.2021   -3.9173    5.3849 C   0  0  0  0  0  0  0  0  0  0  0  0
    0.2537   -7.1956    2.5529 C   0  0  0  0  0  0  0  0  0  0  0  0
   -0.3894   -7.0807    1.3252 C   0  0  0  0  0  0  0  0  0  0  0  0
    0.1136   -7.4483    0.0817 N   0  0  0  0  0  0  0  0  0  0  0  0
   -0.8088   -8.0334   -0.8028 C   0  0  0  0  0  0  0  0  0  0  0  0
   -0.8813   -7.6656   -2.1439 C   0  0  0  0  0  0  0  0  0  0  0  0
   -1.8118   -8.2566   -2.9728 C   0  0  0  0  0  0  0  0  0  0  0  0
   -2.6995   -9.2156   -2.4966 C   0  0  0  0  0  0  0  0  0  0  0  0
   -3.7147   -9.8301   -3.4111 C   0  0  0  0  0  0  0  0  0  0  0  0
   -2.6312   -9.5647   -1.1551 C   0  0  0  0  0  0  0  0  0  0  0  0
   -1.7004   -8.9846   -0.3165 C   0  0  0  0  0  0  0  0  0  0  0  0
    1.3351   -6.9462   -0.3777 C   0  0  0  0  0  0  0  0  0  0  0  0
    1.8702   -5.7630    0.1252 C   0  0  0  0  0  0  0  0  0  0  0  0
    3.0802   -5.2878   -0.3459 C   0  0  0  0  0  0  0  0  0  0  0  0
    3.7812   -5.9615   -1.3352 C   0  0  0  0  0  0  0  0  0  0  0  0
    5.0915   -5.4554   -1.8515 C   0  0  0  0  0  0  0  0  0  0  0  0
    3.2380   -7.1405   -1.8364 C   0  0  0  0  0  0  0  0  0  0  0  0
    2.0396   -7.6322   -1.3666 C   0  0  0  0  0  0  0  0  0  0  0  0
   -1.6223   -6.3995    1.4475 C   0  0  0  0  0  0  0  0  0  0  0  0
   -2.6356   -5.6758    0.2499 S   0  0  0  0  0  0  0  0  0  0  0  0
   -3.4713   -4.7568    1.5073 C   0  0  0  0  0  0  0  0  0  0  0  0
   -2.9319   -5.0093    2.7970 C   0  0  0  0  0  0  0  0  0  0  0  0
   -3.2603   -4.3112    3.9333 N   0  0  0  0  0  0  0  0  0  0  0  0
   -3.1646   -4.9508    5.1785 C   0  0  0  0  0  0  0  0  0  0  0  0
   -3.5658   -6.2790    5.3107 C   0  0  0  0  0  0  0  0  0  0  0  0
   -3.4731   -6.9115    6.5325 C   0  0  0  0  0  0  0  0  0  0  0  0
   -2.9903   -6.2434    7.6530 C   0  0  0  0  0  0  0  0  0  0  0  0
   -2.9107   -6.9437    8.9741 C   0  0  0  0  0  0  0  0  0  0  0  0
   -2.6004   -4.9178    7.5127 C   0  0  0  0  0  0  0  0  0  0  0  0
   -2.6803   -4.2740    6.2936 C   0  0  0  0  0  0  0  0  0  0  0  0
   -3.5009   -2.9220    3.8762 C   0  0  0  0  0  0  0  0  0  0  0  0
   -4.5002   -2.3417    4.6513 C   0  0  0  0  0  0  0  0  0  0  0  0
   -4.7731   -0.9927    4.5260 C   0  0  0  0  0  0  0  0  0  0  0  0
   -4.0658   -0.1919    3.6363 C   0  0  0  0  0  0  0  0  0  0  0  0
   -4.4259    1.2492    3.4476 C   0  0  0  0  0  0  0  0  0  0  0  0
   -3.0287   -0.7715    2.9124 C   0  0  0  0  0  0  0  0  0  0  0  0
   -2.7414   -2.1157    3.0307 C   0  0  0  0  0  0  0  0  0  0  0  0
   -1.9072   -5.9626    2.7354 C   0  0  0  0  0  0  0  0  0  0  0  0
   -0.6994   -6.4957    3.8665 S   0  0  0  0  0  0  0  0  0  0  0  0
   -4.4980   -3.8429    1.2874 C   0  0  0  0  0  0  0  0  0  0  0  0
   -4.9042   -3.2153    0.1281 C   0  0  0  0  0  0  0  0  0  0  0  0
   -4.3364   -3.4140   -1.2050 C   0  0  0  0  0  0  0  0  0  0  0  0
   -3.6092   -4.3188   -1.5809 O   0  0  0  0  0  0  0  0  0  0  0  0
   -4.8103   -2.2797   -2.0224 C   0  0  0  0  0  0  0  0  0  0  0  0
   -4.5243   -1.9776   -3.3390 C   0  0  0  0  0  0  0  0  0  0  0  0
   -5.0909   -0.8406   -3.8934 C   0  0  0  0  0  0  0  0  0  0  0  0
   -5.9310   -0.0571   -3.1174 C   0  0  0  0  0  0  0  0  0  0  0  0
   -6.4917    1.0241   -3.6776 F   0  0  0  0  0  0  0  0  0  0  0  0
   -6.2309   -0.3415   -1.7907 C   0  0  0  0  0  0  0  0  0  0  0  0
   -5.6503   -1.4689   -1.2393 C   0  0  0  0  0  0  0  0  0  0  0  0
   -5.7684   -2.0631    0.0927 C   0  0  0  0  0  0  0  0  0  0  0  0
   -6.5550   -1.5792    1.1117 C   0  0  0  0  0  0  0  0  0  0  0  0
   -6.8406   -2.2706    2.3041 C   0  0  0  0  0  0  0  0  0  0  0  0
   -7.1619   -2.7952    3.2753 N   0  0  0  0  0  0  0  0  0  0  0  0
   -7.1895   -0.3245    1.0946 C   0  0  0  0  0  0  0  0  0  0  0  0
   -7.6834    0.7098    1.1806 N   0  0  0  0  0  0  0  0  0  0  0  0
   -3.4167    5.2921   -1.7261 H   0  0  0  0  0  0  0  0  0  0  0  0
   -1.3268   11.1931   -1.3983 H   0  0  0  0  0  0  0  0  0  0  0  0
   -6.2327    9.9784   -1.7339 H   0  0  0  0  0  0  0  0  0  0  0  0
   -5.8109   13.3561   -2.1291 H   0  0  0  0  0  0  0  0  0  0  0  0
   -6.7280   12.8859    0.3274 H   0  0  0  0  0  0  0  0  0  0  0  0
   -6.5458   15.4855   -0.0094 H   0  0  0  0  0  0  0  0  0  0  0  0
   -3.9834   16.1645    0.1644 H   0  0  0  0  0  0  0  0  0  0  0  0
   -2.5878   13.9831    0.6090 H   0  0  0  0  0  0  0  0  0  0  0  0
   -4.7348   13.3297    2.0118 H   0  0  0  0  0  0  0  0  0  0  0  0
   -4.2983   11.9455    0.9835 H   0  0  0  0  0  0  0  0  0  0  0  0
   -3.2995   14.0209   -1.9592 H   0  0  0  0  0  0  0  0  0  0  0  0
   -2.9186    0.8827    0.2344 H   0  0  0  0  0  0  0  0  0  0  0  0
   -2.3810   -1.4381   -0.3617 H   0  0  0  0  0  0  0  0  0  0  0  0
   -0.0744   -2.5805   -2.0107 H   0  0  0  0  0  0  0  0  0  0  0  0
   -1.7536   -3.0566   -2.2095 H   0  0  0  0  0  0  0  0  0  0  0  0
   -0.8316   -2.4516   -3.5951 H   0  0  0  0  0  0  0  0  0  0  0  0
   -0.5635   -0.0882   -3.9761 H   0  0  0  0  0  0  0  0  0  0  0  0
   -1.0825    2.2329   -3.3744 H   0  0  0  0  0  0  0  0  0  0  0  0
   -4.6257    2.1908   -1.7436 H   0  0  0  0  0  0  0  0  0  0  0  0
   -6.7059    2.6544   -0.5057 H   0  0  0  0  0  0  0  0  0  0  0  0
   -7.6619    4.8349    1.1212 H   0  0  0  0  0  0  0  0  0  0  0  0
   -6.8533    4.5906    2.6730 H   0  0  0  0  0  0  0  0  0  0  0  0
   -7.6030    3.2240    1.8251 H   0  0  0  0  0  0  0  0  0  0  0  0
   -4.5269    5.0426    2.2703 H   0  0  0  0  0  0  0  0  0  0  0  0
   -2.4479    4.5823    1.0461 H   0  0  0  0  0  0  0  0  0  0  0  0
    4.3263    7.6541   -0.9997 H   0  0  0  0  0  0  0  0  0  0  0  0
    4.0461    9.5950   -2.4772 H   0  0  0  0  0  0  0  0  0  0  0  0
    1.8054   10.1550   -4.6567 H   0  0  0  0  0  0  0  0  0  0  0  0
    3.5410   10.4639   -4.7024 H   0  0  0  0  0  0  0  0  0  0  0  0
    2.7882    9.4262   -5.9245 H   0  0  0  0  0  0  0  0  0  0  0  0
    1.9889    7.1539   -5.3038 H   0  0  0  0  0  0  0  0  0  0  0  0
    2.2854    5.2067   -3.8411 H   0  0  0  0  0  0  0  0  0  0  0  0
    3.6774    4.3850    1.0656 H   0  0  0  0  0  0  0  0  0  0  0  0
    5.7721    3.9049    2.2453 H   0  0  0  0  0  0  0  0  0  0  0  0
    8.2405    4.4072    2.3918 H   0  0  0  0  0  0  0  0  0  0  0  0
    8.5090    3.0938    1.2494 H   0  0  0  0  0  0  0  0  0  0  0  0
    9.1505    4.6995    0.9017 H   0  0  0  0  0  0  0  0  0  0  0  0
    7.9891    5.2179   -1.1535 H   0  0  0  0  0  0  0  0  0  0  0  0
    5.8950    5.6507   -2.3570 H   0  0  0  0  0  0  0  0  0  0  0  0
    3.1985    2.6484   -3.4563 H   0  0  0  0  0  0  0  0  0  0  0  0
    3.8568    3.7246   -5.5705 H   0  0  0  0  0  0  0  0  0  0  0  0
    6.2280    4.1492   -6.0595 H   0  0  0  0  0  0  0  0  0  0  0  0
    8.9274    3.7618   -3.6205 H   0  0  0  0  0  0  0  0  0  0  0  0
    8.5107    4.3091   -5.2520 H   0  0  0  0  0  0  0  0  0  0  0  0
    8.4513    1.9342   -6.0233 H   0  0  0  0  0  0  0  0  0  0  0  0
   10.0276    2.3374   -5.3343 H   0  0  0  0  0  0  0  0  0  0  0  0
    8.8636    1.3941   -4.3959 H   0  0  0  0  0  0  0  0  0  0  0  0
    7.3046    2.4512   -2.3021 H   0  0  0  0  0  0  0  0  0  0  0  0
    3.9997   -9.3582    0.0892 H   0  0  0  0  0  0  0  0  0  0  0  0
    3.3990  -11.4129   -1.0938 H   0  0  0  0  0  0  0  0  0  0  0  0
    1.3125  -12.6033   -0.5475 H   0  0  0  0  0  0  0  0  0  0  0  0
   -0.9814  -12.3815    0.4886 H   0  0  0  0  0  0  0  0  0  0  0  0
   -1.1820  -11.3581    1.9173 H   0  0  0  0  0  0  0  0  0  0  0  0
    0.3807  -12.8193    3.1918 H   0  0  0  0  0  0  0  0  0  0  0  0
    0.5857  -13.8471    1.7743 H   0  0  0  0  0  0  0  0  0  0  0  0
   -0.9890  -13.7455    2.5685 H   0  0  0  0  0  0  0  0  0  0  0  0
    0.4567   -9.7059    2.4552 H   0  0  0  0  0  0  0  0  0  0  0  0
    4.1352   -0.3128    2.8275 H   0  0  0  0  0  0  0  0  0  0  0  0
    4.5673   -1.7252    3.7894 H   0  0  0  0  0  0  0  0  0  0  0  0
    2.9680   -1.7819    1.1803 H   0  0  0  0  0  0  0  0  0  0  0  0
    3.3437   -3.1962    2.1778 H   0  0  0  0  0  0  0  0  0  0  0  0
    2.2806   -1.9270    2.7971 H   0  0  0  0  0  0  0  0  0  0  0  0
    5.9542   -2.9302    4.5683 H   0  0  0  0  0  0  0  0  0  0  0  0
    6.2157   -4.5951    5.0747 H   0  0  0  0  0  0  0  0  0  0  0  0
    3.4127   -3.3879    4.8594 H   0  0  0  0  0  0  0  0  0  0  0  0
    3.8633   -4.9321    5.5712 H   0  0  0  0  0  0  0  0  0  0  0  0
    4.3733   -3.4347    6.3438 H   0  0  0  0  0  0  0  0  0  0  0  0
   -0.2179   -6.9057   -2.5277 H   0  0  0  0  0  0  0  0  0  0  0  0
   -1.8615   -7.9577   -4.0097 H   0  0  0  0  0  0  0  0  0  0  0  0
   -4.2025  -10.6790   -2.9386 H   0  0  0  0  0  0  0  0  0  0  0  0
   -3.2476  -10.1632   -4.3363 H   0  0  0  0  0  0  0  0  0  0  0  0
   -4.4776   -9.0955   -3.6692 H   0  0  0  0  0  0  0  0  0  0  0  0
   -3.3139  -10.3023   -0.7580 H   0  0  0  0  0  0  0  0  0  0  0  0
   -1.6585   -9.2649    0.7250 H   0  0  0  0  0  0  0  0  0  0  0  0
    1.3318   -5.2045    0.8778 H   0  0  0  0  0  0  0  0  0  0  0  0
    3.4819   -4.3679    0.0557 H   0  0  0  0  0  0  0  0  0  0  0  0
    5.0968   -5.4445   -2.9403 H   0  0  0  0  0  0  0  0  0  0  0  0
    5.2920   -4.4486   -1.4903 H   0  0  0  0  0  0  0  0  0  0  0  0
    5.8999   -6.1084   -1.5214 H   0  0  0  0  0  0  0  0  0  0  0  0
    3.7712   -7.6850   -2.6019 H   0  0  0  0  0  0  0  0  0  0  0  0
    1.6380   -8.5547   -1.7572 H   0  0  0  0  0  0  0  0  0  0  0  0
   -3.9610   -6.8043    4.4536 H   0  0  0  0  0  0  0  0  0  0  0  0
   -3.7896   -7.9403    6.6232 H   0  0  0  0  0  0  0  0  0  0  0  0
   -2.3665   -7.8817    8.8762 H   0  0  0  0  0  0  0  0  0  0  0  0
   -2.4109   -6.3245    9.7143 H   0  0  0  0  0  0  0  0  0  0  0  0
   -3.9112   -7.1769    9.3377 H   0  0  0  0  0  0  0  0  0  0  0  0
   -2.2206   -4.3795    8.3689 H   0  0  0  0  0  0  0  0  0  0  0  0
   -2.3617   -3.2467    6.1983 H   0  0  0  0  0  0  0  0  0  0  0  0
   -5.0790   -2.9550    5.3242 H   0  0  0  0  0  0  0  0  0  0  0  0
   -5.5698   -0.5608    5.1126 H   0  0  0  0  0  0  0  0  0  0  0  0
   -4.7165    1.7032    4.3921 H   0  0  0  0  0  0  0  0  0  0  0  0
   -3.5965    1.8111    3.0241 H   0  0  0  0  0  0  0  0  0  0  0  0
   -5.2723    1.3376    2.7644 H   0  0  0  0  0  0  0  0  0  0  0  0
   -2.4307   -0.1626    2.2504 H   0  0  0  0  0  0  0  0  0  0  0  0
   -1.9352   -2.5508    2.4577 H   0  0  0  0  0  0  0  0  0  0  0  0
   -4.9858   -3.5048    2.1925 H   0  0  0  0  0  0  0  0  0  0  0  0
   -3.8776   -2.6192   -3.9162 H   0  0  0  0  0  0  0  0  0  0  0  0
   -4.9003   -0.5563   -4.9160 H   0  0  0  0  0  0  0  0  0  0  0  0
   -6.8943    0.3064   -1.2431 H   0  0  0  0  0  0  0  0  0  0  0  0
  1  2  2  0  0  0  0
  2  3  1  0  0  0  0
  3  4  2  0  0  0  0
  3  5  1  0  0  0  0
  5  6  2  0  0  0  0
  6  7  1  0  0  0  0
  7  8  2  0  0  0  0
  8  9  1  0  0  0  0
  9 10  2  0  0  0  0
 10 11  1  0  0  0  0
 11 12  2  0  0  0  0
 12 13  1  0  0  0  0
 13 14  3  0  0  0  0
 12 15  1  0  0  0  0
 15 16  3  0  0  0  0
  8 17  1  0  0  0  0
 17 18  1  0  0  0  0
 18 19  1  0  0  0  0
 19 20  2  0  0  0  0
 20 21  1  0  0  0  0
 21 22  1  0  0  0  0
 21 23  1  0  0  0  0
  1 24  1  0  0  0  0
 24 25  2  0  0  0  0
 25 26  1  0  0  0  0
 26 27  1  0  0  0  0
 27 28  2  0  0  0  0
 28 29  1  0  0  0  0
 29 30  2  0  0  0  0
 30 31  1  0  0  0  0
 30 32  1  0  0  0  0
 32 33  2  0  0  0  0
 26 34  1  0  0  0  0
 34 35  2  0  0  0  0
 35 36  1  0  0  0  0
 36 37  2  0  0  0  0
 37 38  1  0  0  0  0
 37 39  1  0  0  0  0
 39 40  2  0  0  0  0
 25 41  1  0  0  0  0
 41 42  1  0  0  0  0
 42 43  1  0  0  0  0
 43 44  2  0  0  0  0
 44 45  1  0  0  0  0
 45 46  1  0  0  0  0
 46 47  2  0  0  0  0
 47 48  1  0  0  0  0
 48 49  2  0  0  0  0
 49 50  1  0  0  0  0
 49 51  1  0  0  0  0
 51 52  2  0  0  0  0
 45 53  1  0  0  0  0
 53 54  2  0  0  0  0
 54 55  1  0  0  0  0
 55 56  2  0  0  0  0
 56 57  1  0  0  0  0
 56 58  1  0  0  0  0
 58 59  2  0  0  0  0
 44 60  1  0  0  0  0
 60 61  1  0  0  0  0
 43 62  1  0  0  0  0
 62 63  2  0  0  0  0
 63 64  1  0  0  0  0
 64 65  2  0  0  0  0
 65 66  1  0  0  0  0
 66 67  2  0  0  0  0
 67 68  1  0  0  0  0
 68 69  1  0  0  0  0
 69 70  1  0  0  0  0
 68 71  2  0  0  0  0
 63 72  1  0  0  0  0
 72 73  1  0  0  0  0
 73 74  1  0  0  0  0
 74 75  1  0  0  0  0
 75 76  1  0  0  0  0
 76 77  1  0  0  0  0
 77 78  2  0  0  0  0
 78 79  1  0  0  0  0
 79 80  1  0  0  0  0
 77 81  1  0  0  0  0
 81 82  1  0  0  0  0
 82 83  1  0  0  0  0
 83 84  1  0  0  0  0
 84 85  1  0  0  0  0
 85 86  1  0  0  0  0
 86 87  2  0  0  0  0
 87 88  1  0  0  0  0
 88 89  2  0  0  0  0
 89 90  1  0  0  0  0
 90 91  1  0  0  0  0
 91 92  1  0  0  0  0
 90 93  2  0  0  0  0
 85 94  2  0  0  0  0
 94 95  1  0  0  0  0
 95 96  1  0  0  0  0
 96 97  1  0  0  0  0
 97 98  1  0  0  0  0
 98 99  1  0  0  0  0
 99100  1  0  0  0  0
100101  1  0  0  0  0
101102  1  0  0  0  0
102103  1  0  0  0  0
103104  1  0  0  0  0
101105  1  0  0  0  0
105106  1  0  0  0  0
 98107  1  0  0  0  0
107108  1  0  0  0  0
 94109  1  0  0  0  0
109110  2  0  0  0  0
110111  1  0  0  0  0
111112  1  0  0  0  0
112113  2  0  0  0  0
113114  1  0  0  0  0
114115  2  0  0  0  0
115116  1  0  0  0  0
115117  1  0  0  0  0
117118  2  0  0  0  0
111119  1  0  0  0  0
119120  2  0  0  0  0
120121  1  0  0  0  0
121122  2  0  0  0  0
122123  1  0  0  0  0
122124  1  0  0  0  0
124125  2  0  0  0  0
110126  1  0  0  0  0
126127  1  0  0  0  0
127128  1  0  0  0  0
128129  2  0  0  0  0
129130  1  0  0  0  0
130131  1  0  0  0  0
131132  2  0  0  0  0
132133  1  0  0  0  0
133134  2  0  0  0  0
134135  1  0  0  0  0
134136  1  0  0  0  0
136137  2  0  0  0  0
130138  1  0  0  0  0
138139  2  0  0  0  0
139140  1  0  0  0  0
140141  2  0  0  0  0
141142  1  0  0  0  0
141143  1  0  0  0  0
143144  2  0  0  0  0
129145  1  0  0  0  0
145146  1  0  0  0  0
128147  1  0  0  0  0
147148  2  0  0  0  0
148149  1  0  0  0  0
149150  2  0  0  0  0
149151  1  0  0  0  0
151152  2  0  0  0  0
152153  1  0  0  0  0
153154  2  0  0  0  0
154155  1  0  0  0  0
154156  1  0  0  0  0
156157  2  0  0  0  0
157158  1  0  0  0  0
158159  2  0  0  0  0
159160  1  0  0  0  0
160161  3  0  0  0  0
159162  1  0  0  0  0
162163  3  0  0  0  0
 11  2  1  0  0  0  0
 23 17  1  0  0  0  0
 61 24  1  0  0  0  0
104 62  1  0  0  0  0
146109  1  0  0  0  0
158148  1  0  0  0  0
 10  5  1  0  0  0  0
 22 18  1  0  0  0  0
 33 27  1  0  0  0  0
 40 34  1  0  0  0  0
 60 41  2  0  0  0  0
 71 64  1  0  0  0  0
103 72  2  0  0  0  0
118112  1  0  0  0  0
125119  1  0  0  0  0
145126  2  0  0  0  0
157151  1  0  0  0  0
 23  7  1  0  0  0  0
 52 46  1  0  0  0  0
 59 53  1  0  0  0  0
102 74  2  0  0  0  0
137131  1  0  0  0  0
144138  1  0  0  0  0
100 75  2  0  0  0  0
 80 76  2  0  0  0  0
 99 81  2  0  0  0  0
 97 82  2  0  0  0  0
 96 84  2  0  0  0  0
 93 86  1  0  0  0  0
  1164  1  0  0  0  0
  6165  1  0  0  0  0
  9166  1  0  0  0  0
 17167  1  0  0  0  0
 18168  1  0  0  0  0
 19169  1  0  0  0  0
 20170  1  0  0  0  0
 21171  1  0  0  0  0
 22172  1  0  0  0  0
 22173  1  0  0  0  0
 23174  1  0  0  0  0
 28175  1  0  0  0  0
 29176  1  0  0  0  0
 31177  1  0  0  0  0
 31178  1  0  0  0  0
 31179  1  0  0  0  0
 32180  1  0  0  0  0
 33181  1  0  0  0  0
 35182  1  0  0  0  0
 36183  1  0  0  0  0
 38184  1  0  0  0  0
 38185  1  0  0  0  0
 38186  1  0  0  0  0
 39187  1  0  0  0  0
 40188  1  0  0  0  0
 47189  1  0  0  0  0
 48190  1  0  0  0  0
 50191  1  0  0  0  0
 50192  1  0  0  0  0
 50193  1  0  0  0  0
 51194  1  0  0  0  0
 52195  1  0  0  0  0
 54196  1  0  0  0  0
 55197  1  0  0  0  0
 57198  1  0  0  0  0
 57199  1  0  0  0  0
 57200  1  0  0  0  0
 58201  1  0  0  0  0
 59202  1  0  0  0  0
 65203  1  0  0  0  0
 66204  1  0  0  0  0
 67205  1  0  0  0  0
 69206  1  0  0  0  0
 69207  1  0  0  0  0
 70208  1  0  0  0  0
 70209  1  0  0  0  0
 70210  1  0  0  0  0
 71211  1  0  0  0  0
 87212  1  0  0  0  0
 88213  1  0  0  0  0
 89214  1  0  0  0  0
 91215  1  0  0  0  0
 91216  1  0  0  0  0
 92217  1  0  0  0  0
 92218  1  0  0  0  0
 92219  1  0  0  0  0
 93220  1  0  0  0  0
105221  1  0  0  0  0
105222  1  0  0  0  0
106223  1  0  0  0  0
106224  1  0  0  0  0
106225  1  0  0  0  0
107226  1  0  0  0  0
107227  1  0  0  0  0
108228  1  0  0  0  0
108229  1  0  0  0  0
108230  1  0  0  0  0
113231  1  0  0  0  0
114232  1  0  0  0  0
116233  1  0  0  0  0
116234  1  0  0  0  0
116235  1  0  0  0  0
117236  1  0  0  0  0
118237  1  0  0  0  0
120238  1  0  0  0  0
121239  1  0  0  0  0
123240  1  0  0  0  0
123241  1  0  0  0  0
123242  1  0  0  0  0
124243  1  0  0  0  0
125244  1  0  0  0  0
132245  1  0  0  0  0
133246  1  0  0  0  0
135247  1  0  0  0  0
135248  1  0  0  0  0
135249  1  0  0  0  0
136250  1  0  0  0  0
137251  1  0  0  0  0
139252  1  0  0  0  0
140253  1  0  0  0  0
142254  1  0  0  0  0
142255  1  0  0  0  0
142256  1  0  0  0  0
143257  1  0  0  0  0
144258  1  0  0  0  0
147259  1  0  0  0  0
152260  1  0  0  0  0
153261  1  0  0  0  0
156262  1  0  0  0  0
M  END
