256

C         -2.20310        9.73290       -0.85800
C         -2.86200        9.48270       -2.04090
C         -3.00490        8.18160       -2.69600
O         -2.67160        7.08740       -2.27110
C         -3.62350        8.44630       -4.00840
C         -3.94520        7.51170       -4.98840
C         -4.51820        8.05530       -6.11330
C         -4.75940        9.42780       -6.24920
C         -4.45050       10.36020       -5.28660
C         -3.85910        9.82920       -4.13790
C         -3.41140       10.49260       -2.91240
C         -3.52220       11.83890       -2.65540
C         -3.98980       12.79320       -3.57980
N         -4.33160       13.63360       -4.28520
C         -3.21570       12.47020       -1.43530
N         -3.01730       13.06950       -0.47370
C         -5.34990        9.26920       -7.62820
C         -4.46800        9.65780       -8.84040
C         -3.03560        9.48780       -8.39940
C         -2.80320        8.18840       -8.27120
C         -4.07440        7.45630       -8.62310
C         -4.63810        8.39580       -9.70110
C         -5.07830        7.73910       -7.47790
C         -1.62840        8.85680        0.05980
C         -0.90380        9.29590        1.19880
N         -0.44560       10.56920        1.39070
C         -0.03430       11.39340        0.32390
C         -0.26970       12.76450        0.38060
C          0.12470       13.57550       -0.66450
C          0.75160       13.04810       -1.78730
C          1.12980       13.93810       -2.93070
C          1.00440       11.68160       -1.82180
C          0.62830       10.85960       -0.77840
C         -0.25310       11.04850        2.70060
C          0.92370       11.71040        3.04010
C          1.08950       12.21230        4.31390
C          0.09090       12.07830        5.27320
C          0.28680       12.63040        6.65160
C         -1.07820       11.41580        4.92270
C         -1.25260       10.89690        3.65470
C         -0.63850        8.22140        2.06660
S          0.15970        8.06210        3.60040
C          0.02750        6.31400        3.50780
C         -0.64830        5.89290        2.37100
N         -0.89850        4.57580        2.01960
C         -1.14830        3.56950        2.96160
C         -1.90350        3.81620        4.10430
C         -2.13160        2.80490        5.01730
C         -1.60400        1.53220        4.83630
C         -1.81790        0.45830        5.85840
C         -0.85700        1.29130        3.68940
C         -0.63570        2.28730        2.76080
C         -0.83630        4.22990        0.65680
C         -1.77740        3.36360        0.10930
C         -1.72240        3.03990       -1.23120
C         -0.74220        3.57310       -2.05930
C         -0.71880        3.26360       -3.52430
C          0.20160        4.42590       -1.50120
C          0.16520        4.74780       -0.15940
C         -1.04370        6.99030        1.56710
S         -1.81180        7.10240        0.02570
C          0.70300        5.38150        4.37440
C          0.48740        4.96750        5.67180
C         -0.33030        5.64980        6.67550
C         -1.09210        4.90100        7.57010
C         -1.81140        5.52800        8.56780
C         -1.78630        6.90460        8.68530
C         -1.05540        7.67500        7.78810
C         -1.05030        9.17360        7.91050
C         -2.46390        9.75220        7.85280
C         -0.32860        7.03780        6.79370
C          1.10920        3.71200        5.90690
S          1.01490        2.55340        7.21750
C          1.78170        1.36380        6.21720
C          2.00020       -0.02760        6.18120
C          1.81600       -1.06080        7.12600
C          2.06730       -2.42470        6.73500
N          1.87480       -3.27650        7.72890
S          1.41570       -2.44510        9.04080
N          1.43800       -0.96170        8.39040
C          2.36670       -2.70990        5.38300
C          2.36170       -3.90950        4.64910
S          2.06740       -5.60140        4.89840
C          2.03440       -5.82980        3.16320
C          1.73270       -6.93970        2.35410
C          1.49390       -8.25560        2.96120
C          2.32830       -9.33480        2.68390
C          2.14430      -10.53310        3.34600
C          1.15910      -10.65480        4.30980
C          0.33570       -9.58040        4.61770
C         -0.66420       -9.66010        5.73510
C         -0.07500       -9.04320        7.00590
C          0.50600       -8.38920        3.92850
C          1.71870       -6.59610        1.00750
S          2.21160       -4.92560        0.75570
C          2.29740       -4.65820        2.45340
C          2.48000       -3.56110        3.30000
N          2.58870       -2.20230        3.16790
C          2.52610       -1.66070        4.43760
C          2.48130       -0.31840        4.87720
N          2.64070        0.86300        4.17770
C          2.17470        1.87120        4.97890
C          1.80510        3.20920        4.81320
S          1.78730        4.30370        3.48830
C          3.57390        1.13400        3.10680
C          4.74150        1.99200        3.59200
C          2.31100       -1.57930        1.89060
C          3.48850       -1.67910        0.92420
C          1.32730       -7.37460       -0.11440
C          1.18770       -6.98920       -1.44930
N          1.37090       -5.72460       -2.00530
C          1.99170       -5.72670       -3.27590
C          3.19040       -6.41340       -3.44260
C          3.76150       -6.52010       -4.69570
C          3.16220       -5.94260       -5.80840
C          3.74220       -6.11140       -7.17570
C          1.98290       -5.22820       -5.62380
C          1.39710       -5.12070       -4.37870
C          0.66660       -4.59920       -1.57790
C          1.14710       -3.32740       -1.89290
C          0.49960       -2.20100       -1.42920
C         -0.63430       -2.29740       -0.63150
C         -1.32380       -1.07410       -0.10610
C         -1.11600       -3.56740       -0.33210
C         -0.48650       -4.70340       -0.80000
C          0.86240       -8.10080       -2.26080
S          0.68630       -8.31410       -3.96370
C          0.37740      -10.03660       -3.74000
C          0.43920      -10.41640       -2.39630
N          0.34980      -11.69630       -1.89460
C          0.90720      -12.79630       -2.56170
C          0.31540      -14.05230       -2.44440
C          0.84180      -15.13470       -3.12030
C          1.96160      -15.00010       -3.93240
C          2.50240      -16.16670       -4.69890
C          2.55490      -13.74700       -4.03090
C          2.04400      -12.65830       -3.35380
C         -0.17960      -11.85860       -0.60000
C         -1.33970      -11.17750       -0.23840
C         -1.86550      -11.33010        1.02740
C         -1.26130      -12.16660        1.95910
C         -1.87320      -12.34830        3.31260
C         -0.10290      -12.83790        1.59060
C          0.43910      -12.68800        0.32920
C          0.69440       -9.29270       -1.57720
S          0.93490       -9.07720        0.12280
C          0.16010      -10.79780       -4.91110
C         -0.48640      -12.01340       -5.09490
C         -0.48890      -12.43800       -6.41180
C          0.14790      -11.56000       -7.28270
C          0.30300      -11.73270       -8.67860
C          0.93610      -10.87070       -9.55690
C          1.54840       -9.66290       -9.18590
N          2.07360       -8.67000       -8.94160
C          1.01470      -11.17070      -10.93130
N          1.08910      -11.39730      -12.05370
C         -0.24230      -12.92330       -9.22510
N         -0.68010      -13.88960       -9.65760
S          0.75640      -10.17220       -6.41870
H         -2.10790       10.77630       -0.58720
H         -3.74990        6.46130       -4.83730
H         -4.64700       11.41240       -5.40650
H         -6.38190        9.59400       -7.74520
H         -4.72030       10.61220       -9.29460
H         -2.37700       10.30660       -8.17570
H         -1.91100        7.70440       -7.91890
H         -3.96770        6.40570       -8.88120
H         -4.02880        8.41570      -10.60350
H         -5.67440        8.18480       -9.96150
H         -5.93300        7.06550       -7.50020
H         -0.77590       13.18520        1.23500
H         -0.07740       14.63480       -0.61570
H          0.23300       14.29410       -3.43810
H          1.74610       13.40800       -3.65240
H          1.67550       14.80980       -2.57400
H          1.50940       11.25260       -2.67530
H          0.83740        9.80060       -0.81860
H          1.70060       11.82780        2.29930
H          2.00760       12.72100        4.56930
H          0.74600       13.61590        6.60920
H          0.94730       11.98000        7.22580
H         -0.66000       12.70610        7.17980
H         -1.87400       11.31840        5.64370
H         -2.17140       10.39480        3.38960
H         -2.31610        4.80060        4.27080
H         -2.73710        3.01100        5.88760
H         -2.81200        0.53160        6.29450
H         -1.69580       -0.52860        5.41750
H         -1.09110        0.55610        6.66600
H         -0.43620        0.30830        3.52590
H         -0.05050        2.08560        1.87500
H         -2.55250        2.95380        0.74010
H         -2.46480        2.37250       -1.64500
H          0.30270        3.20240       -3.89450
H         -1.22620        4.05900       -4.07060
H         -1.22960        2.32690       -3.73550
H          0.97740        4.84390       -2.12650
H          0.91300        5.40240        0.26540
H         -1.12640        3.82800        7.48270
H         -2.38860        4.93650        9.26330
H         -2.33190        7.38250        9.48540
H         -0.59040        9.45350        8.86290
H         -0.44950        9.60090        7.10560
H         -3.07640        9.37050        8.66540
H         -2.94240        9.48390        6.91320
H         -2.43370       10.83630        7.93770
H          0.27480        7.62710        6.11850
H          3.12740       -9.22480        1.96580
H          2.78820      -11.37110        3.12350
H          1.03980      -11.58780        4.84120
H         -1.57230       -9.11770        5.46230
H         -0.92860      -10.70100        5.93050
H         -0.79560       -9.08590        7.81930
H          0.82030       -9.58310        7.30570
H          0.19670       -8.00450        6.83360
H         -0.13210       -7.54630        4.15260
H          3.05290        1.65290        2.29430
H          3.96710        0.18640        2.74800
H          5.23900        1.51200        4.43210
H          5.45890        2.11720        2.78540
H          4.39950        2.97490        3.90340
H          2.01610       -0.54400        2.05780
H          1.45800       -2.10180        1.44050
H          3.68600       -2.71970        0.68300
H          3.24540       -1.15650        0.00400
H          4.39580       -1.25020        1.34300
H          3.65760       -6.87720       -2.58520
H          4.68460       -7.06950       -4.81210
H          3.64210       -5.19640       -7.75550
H          3.20920       -6.90130       -7.70550
H          4.79300       -6.38560       -7.12400
H          1.50310       -4.76990       -6.47600
H          0.46590       -4.58700       -4.25640
H          2.04150       -3.23330       -2.49000
H          0.88940       -1.22530       -1.68320
H         -2.35010       -1.03130       -0.46860
H         -1.36210       -1.08970        0.98290
H         -0.81050       -0.16860       -0.42100
H         -2.00270       -3.66790        0.27760
H         -0.88020       -5.67930       -0.55510
H         -0.56280      -14.17080       -1.82640
H          0.36710      -16.10010       -3.02270
H          2.25330      -17.10430       -4.20800
H          2.07110      -16.18520       -5.70050
H          3.58290      -16.09640       -4.80180
H          3.43560      -13.62190       -4.64400
H          2.52970      -11.69700       -3.43230
H         -1.82620      -10.53590       -0.95910
H         -2.76730      -10.79940        1.29590
H         -2.09180      -11.38220        3.76220
H         -1.20840      -12.90210        3.96970
H         -2.81060      -12.89870        3.22920
H          0.38760      -13.48590        2.30180
H          1.34430      -13.21020        0.05700
H         -0.96240      -12.55080       -4.29690
H         -0.94360      -13.35380       -6.74740
