
  xtb     02242200083D
 energy: -375.139089526970 gnorm: 0.000552990026 xtb: 6.4.1 (unknown)
232257  0     0  0            999 V2000
   -1.7466   -3.6093    4.9199 C   0  0  0  0  0  0  0  0  0  0  0  0
   -1.2408   -4.5188    5.8103 C   0  0  0  0  0  0  0  0  0  0  0  0
   -2.1088   -5.5742    6.3785 C   0  0  0  0  0  0  0  0  0  0  0  0
   -3.2312   -5.8653    6.0223 O   0  0  0  0  0  0  0  0  0  0  0  0
   -1.3356   -6.1573    7.4969 C   0  0  0  0  0  0  0  0  0  0  0  0
   -1.7670   -7.1001    8.4265 C   0  0  0  0  0  0  0  0  0  0  0  0
   -0.8274   -7.4182    9.3787 C   0  0  0  0  0  0  0  0  0  0  0  0
    0.4470   -6.8387    9.4125 C   0  0  0  0  0  0  0  0  0  0  0  0
    0.8906   -5.9146    8.4959 C   0  0  0  0  0  0  0  0  0  0  0  0
   -0.0470   -5.5861    7.5150 C   0  0  0  0  0  0  0  0  0  0  0  0
    0.0714   -4.6742    6.3782 C   0  0  0  0  0  0  0  0  0  0  0  0
    1.2598   -4.2918    5.8009 C   0  0  0  0  0  0  0  0  0  0  0  0
    1.3599   -3.6205    4.5694 C   0  0  0  0  0  0  0  0  0  0  0  0
    1.5166   -3.1147    3.5482 N   0  0  0  0  0  0  0  0  0  0  0  0
    2.5262   -4.6445    6.3002 C   0  0  0  0  0  0  0  0  0  0  0  0
    3.5906   -4.9041    6.6485 N   0  0  0  0  0  0  0  0  0  0  0  0
    0.8511   -7.6037   10.6487 C   0  0  0  0  0  0  0  0  0  0  0  0
    0.8343   -6.8250   11.9809 C   0  0  0  0  0  0  0  0  0  0  0  0
    0.7953   -7.9091   13.0337 C   0  0  0  0  0  0  0  0  0  0  0  0
   -0.4111   -8.4605   13.0004 C   0  0  0  0  0  0  0  0  0  0  0  0
   -1.2076   -7.7583   11.9246 C   0  0  0  0  0  0  0  0  0  0  0  0
   -0.6217   -6.3453   12.0420 C   0  0  0  0  0  0  0  0  0  0  0  0
   -0.5693   -8.2531   10.6094 C   0  0  0  0  0  0  0  0  0  0  0  0
   -1.2226   -2.3390    4.6330 C   0  0  0  0  0  0  0  0  0  0  0  0
   -1.3012   -1.5976    3.4442 C   0  0  0  0  0  0  0  0  0  0  0  0
   -1.9092   -1.9721    2.2845 N   0  0  0  0  0  0  0  0  0  0  0  0
   -1.3811   -1.5398    1.0443 C   0  0  0  0  0  0  0  0  0  0  0  0
   -2.2319   -0.9720    0.1028 C   0  0  0  0  0  0  0  0  0  0  0  0
   -1.7490   -0.6094   -1.1382 C   0  0  0  0  0  0  0  0  0  0  0  0
   -0.4081   -0.7880   -1.4593 C   0  0  0  0  0  0  0  0  0  0  0  0
    0.1065   -0.3798   -2.8055 C   0  0  0  0  0  0  0  0  0  0  0  0
    0.4383   -1.3341   -0.5005 C   0  0  0  0  0  0  0  0  0  0  0  0
   -0.0355   -1.7164    0.7403 C   0  0  0  0  0  0  0  0  0  0  0  0
   -3.0352   -2.8122    2.2232 C   0  0  0  0  0  0  0  0  0  0  0  0
   -3.0847   -3.8227    1.2653 C   0  0  0  0  0  0  0  0  0  0  0  0
   -4.2084   -4.6153    1.1505 C   0  0  0  0  0  0  0  0  0  0  0  0
   -5.3085   -4.4241    1.9803 C   0  0  0  0  0  0  0  0  0  0  0  0
   -6.5151   -5.2951    1.8432 C   0  0  0  0  0  0  0  0  0  0  0  0
   -5.2461   -3.4196    2.9393 C   0  0  0  0  0  0  0  0  0  0  0  0
   -4.1272   -2.6173    3.0645 C   0  0  0  0  0  0  0  0  0  0  0  0
   -0.5309   -0.4142    3.5489 C   0  0  0  0  0  0  0  0  0  0  0  0
   -0.2126    0.8811    2.4546 S   0  0  0  0  0  0  0  0  0  0  0  0
    0.8000    1.6657    3.6567 C   0  0  0  0  0  0  0  0  0  0  0  0
    0.8195    0.9960    4.8690 C   0  0  0  0  0  0  0  0  0  0  0  0
    1.4354    1.4607    6.0102 N   0  0  0  0  0  0  0  0  0  0  0  0
    1.8758    0.5554    6.9908 C   0  0  0  0  0  0  0  0  0  0  0  0
    2.5108   -0.6285    6.6325 C   0  0  0  0  0  0  0  0  0  0  0  0
    2.9284   -1.5133    7.6082 C   0  0  0  0  0  0  0  0  0  0  0  0
    2.7106   -1.2537    8.9535 C   0  0  0  0  0  0  0  0  0  0  0  0
    3.1274   -2.2349   10.0063 C   0  0  0  0  0  0  0  0  0  0  0  0
    2.0843   -0.0614    9.3032 C   0  0  0  0  0  0  0  0  0  0  0  0
    1.6739    0.8370    8.3400 C   0  0  0  0  0  0  0  0  0  0  0  0
    1.6502    2.8361    6.1917 C   0  0  0  0  0  0  0  0  0  0  0  0
    0.6932    3.7694    5.8028 C   0  0  0  0  0  0  0  0  0  0  0  0
    0.9466    5.1212    5.9301 C   0  0  0  0  0  0  0  0  0  0  0  0
    2.1446    5.5794    6.4612 C   0  0  0  0  0  0  0  0  0  0  0  0
    2.4410    7.0449    6.5616 C   0  0  0  0  0  0  0  0  0  0  0  0
    3.0753    4.6397    6.8907 C   0  0  0  0  0  0  0  0  0  0  0  0
    2.8384    3.2866    6.7602 C   0  0  0  0  0  0  0  0  0  0  0  0
    0.0690   -0.2046    4.7802 C   0  0  0  0  0  0  0  0  0  0  0  0
   -0.2761   -1.4958    5.8723 S   0  0  0  0  0  0  0  0  0  0  0  0
    1.5324    2.8196    3.2213 C   0  0  0  0  0  0  0  0  0  0  0  0
    2.8938    3.0308    3.2286 C   0  0  0  0  0  0  0  0  0  0  0  0
    3.8823    2.1096    3.7916 C   0  0  0  0  0  0  0  0  0  0  0  0
    4.9516    2.6082    4.5280 C   0  0  0  0  0  0  0  0  0  0  0  0
    5.8851    1.7381    5.0594 C   0  0  0  0  0  0  0  0  0  0  0  0
    5.7746    0.3766    4.8422 C   0  0  0  0  0  0  0  0  0  0  0  0
    4.7349   -0.1355    4.0743 C   0  0  0  0  0  0  0  0  0  0  0  0
    4.6655   -1.6043    3.7672 C   0  0  0  0  0  0  0  0  0  0  0  0
    5.5896   -1.9478    2.5975 C   0  0  0  0  0  0  0  0  0  0  0  0
    3.7928    0.7409    3.5583 C   0  0  0  0  0  0  0  0  0  0  0  0
    3.2356    4.1817    2.4819 C   0  0  0  0  0  0  0  0  0  0  0  0
    4.7610    4.7518    1.8339 S   0  0  0  0  0  0  0  0  0  0  0  0
    3.8956    5.7329    0.6867 C   0  0  0  0  0  0  0  0  0  0  0  0
    4.1099    6.3589   -0.5630 C   0  0  0  0  0  0  0  0  0  0  0  0
    5.2563    6.5918   -1.3583 C   0  0  0  0  0  0  0  0  0  0  0  0
    5.0944    6.9184   -2.7562 C   0  0  0  0  0  0  0  0  0  0  0  0
    6.2531    7.0858   -3.3693 N   0  0  0  0  0  0  0  0  0  0  0  0
    7.4461    6.8603   -2.2962 S   0  0  0  0  0  0  0  0  0  0  0  0
    6.5284    6.5269   -1.0046 N   0  0  0  0  0  0  0  0  0  0  0  0
    3.7978    6.8894   -3.3245 C   0  0  0  0  0  0  0  0  0  0  0  0
    3.3491    6.6490   -4.6390 C   0  0  0  0  0  0  0  0  0  0  0  0
    4.0065    6.2415   -6.1989 S   0  0  0  0  0  0  0  0  0  0  0  0
    2.4510    5.5766   -6.6734 C   0  0  0  0  0  0  0  0  0  0  0  0
    2.0728    4.6561   -7.6817 C   0  0  0  0  0  0  0  0  0  0  0  0
    3.0235    4.1696   -8.6806 C   0  0  0  0  0  0  0  0  0  0  0  0
    3.8511    5.0714   -9.3441 C   0  0  0  0  0  0  0  0  0  0  0  0
    4.7664    4.6127  -10.2722 C   0  0  0  0  0  0  0  0  0  0  0  0
    4.8712    3.2591  -10.5415 C   0  0  0  0  0  0  0  0  0  0  0  0
    4.0645    2.3430   -9.8777 C   0  0  0  0  0  0  0  0  0  0  0  0
    4.2033    0.8686  -10.1290 C   0  0  0  0  0  0  0  0  0  0  0  0
    5.2308    0.2582   -9.1742 C   0  0  0  0  0  0  0  0  0  0  0  0
    3.1493    2.8089   -8.9457 C   0  0  0  0  0  0  0  0  0  0  0  0
    0.7843    4.1929   -7.4827 C   0  0  0  0  0  0  0  0  0  0  0  0
    0.0116    4.9608   -6.0960 S   0  0  0  0  0  0  0  0  0  0  0  0
    1.4714    5.7883   -5.7070 C   0  0  0  0  0  0  0  0  0  0  0  0
    1.9779    6.3919   -4.5520 C   0  0  0  0  0  0  0  0  0  0  0  0
    1.5514    6.5047   -3.2586 N   0  0  0  0  0  0  0  0  0  0  0  0
    2.6576    6.7749   -2.4829 C   0  0  0  0  0  0  0  0  0  0  0  0
    2.8220    6.6412   -1.0855 C   0  0  0  0  0  0  0  0  0  0  0  0
    1.8575    6.3282   -0.1376 N   0  0  0  0  0  0  0  0  0  0  0  0
    2.5159    5.7067    0.8954 C   0  0  0  0  0  0  0  0  0  0  0  0
    2.1390    4.8239    1.9126 C   0  0  0  0  0  0  0  0  0  0  0  0
    0.6527    4.0670    2.3505 S   0  0  0  0  0  0  0  0  0  0  0  0
    0.6309    7.0565    0.1195 C   0  0  0  0  0  0  0  0  0  0  0  0
    0.8053    8.0310    1.2840 C   0  0  0  0  0  0  0  0  0  0  0  0
    0.2435    6.0190   -2.8869 C   0  0  0  0  0  0  0  0  0  0  0  0
   -0.8440    7.0522   -3.1719 C   0  0  0  0  0  0  0  0  0  0  0  0
    0.0512    3.0713   -7.9936 C   0  0  0  0  0  0  0  0  0  0  0  0
   -0.1329    2.5154   -9.2531 C   0  0  0  0  0  0  0  0  0  0  0  0
    0.3380    3.1537  -10.5248 C   0  0  0  0  0  0  0  0  0  0  0  0
   -0.1439    4.5977  -10.6555 C   0  0  0  0  0  0  0  0  0  0  0  0
   -0.8853    1.3307   -9.1760 C   0  0  0  0  0  0  0  0  0  0  0  0
   -1.2895    1.0218   -7.8809 C   0  0  0  0  0  0  0  0  0  0  0  0
   -0.7603    2.1598   -6.7252 S   0  0  0  0  0  0  0  0  0  0  0  0
   -2.0214   -0.1785   -7.8649 C   0  0  0  0  0  0  0  0  0  0  0  0
   -2.0716   -0.6877   -9.1708 C   0  0  0  0  0  0  0  0  0  0  0  0
   -1.3227    0.2240  -10.1244 C   0  0  0  0  0  0  0  0  0  0  0  0
   -0.0440   -0.4551  -10.6638 C   0  0  0  0  0  0  0  0  0  0  0  0
   -0.2833   -1.6839  -11.5303 C   0  0  0  0  0  0  0  0  0  0  0  0
   -2.2470    0.7079  -11.2524 C   0  0  0  0  0  0  0  0  0  0  0  0
   -3.3718    1.5982  -10.7378 C   0  0  0  0  0  0  0  0  0  0  0  0
   -2.7919   -1.8614   -9.2256 C   0  0  0  0  0  0  0  0  0  0  0  0
   -3.2874   -2.2595   -7.9730 C   0  0  0  0  0  0  0  0  0  0  0  0
   -2.8624   -1.1117   -6.7121 S   0  0  0  0  0  0  0  0  0  0  0  0
   -3.9789   -3.4591   -7.7601 C   0  0  0  0  0  0  0  0  0  0  0  0
   -4.5226   -3.9669   -6.6110 C   0  0  0  0  0  0  0  0  0  0  0  0
   -5.2389   -5.5782   -6.5883 S   0  0  0  0  0  0  0  0  0  0  0  0
   -5.6329   -5.4194   -4.8978 C   0  0  0  0  0  0  0  0  0  0  0  0
   -6.1221   -6.4618   -4.1480 C   0  0  0  0  0  0  0  0  0  0  0  0
   -6.2928   -6.4140   -2.7541 C   0  0  0  0  0  0  0  0  0  0  0  0
   -6.4108   -6.4466   -1.6115 N   0  0  0  0  0  0  0  0  0  0  0  0
   -6.4221   -7.6939   -4.7586 C   0  0  0  0  0  0  0  0  0  0  0  0
   -6.6796   -8.6950   -5.2567 N   0  0  0  0  0  0  0  0  0  0  0  0
   -5.3300   -4.1761   -4.4354 N   0  0  0  0  0  0  0  0  0  0  0  0
   -5.8078   -3.6832   -3.1879 C   0  0  0  0  0  0  0  0  0  0  0  0
   -4.9224   -3.1678   -2.2560 C   0  0  0  0  0  0  0  0  0  0  0  0
   -5.4185   -2.6686   -1.0651 C   0  0  0  0  0  0  0  0  0  0  0  0
   -6.7767   -2.6915   -0.8045 C   0  0  0  0  0  0  0  0  0  0  0  0
   -7.6564   -3.1934   -1.7483 C   0  0  0  0  0  0  0  0  0  0  0  0
   -7.1767   -3.6810   -2.9485 C   0  0  0  0  0  0  0  0  0  0  0  0
   -4.6559   -3.3363   -5.3186 C   0  0  0  0  0  0  0  0  0  0  0  0
   -4.2810   -2.2235   -4.9984 O   0  0  0  0  0  0  0  0  0  0  0  0
   -2.6824   -3.8939    4.4506 H   0  0  0  0  0  0  0  0  0  0  0  0
   -2.7577   -7.5232    8.3697 H   0  0  0  0  0  0  0  0  0  0  0  0
    1.8705   -5.4674    8.5309 H   0  0  0  0  0  0  0  0  0  0  0  0
    1.7215   -8.2487   10.5437 H   0  0  0  0  0  0  0  0  0  0  0  0
    1.6144   -6.0748   12.0800 H   0  0  0  0  0  0  0  0  0  0  0  0
    1.6394   -8.1926   13.6348 H   0  0  0  0  0  0  0  0  0  0  0  0
   -0.7758   -9.2965   13.5682 H   0  0  0  0  0  0  0  0  0  0  0  0
   -2.2888   -7.8578   11.9726 H   0  0  0  0  0  0  0  0  0  0  0  0
   -0.9038   -5.6797   11.2282 H   0  0  0  0  0  0  0  0  0  0  0  0
   -0.8620   -5.8778   12.9957 H   0  0  0  0  0  0  0  0  0  0  0  0
   -0.6445   -9.3311   10.4785 H   0  0  0  0  0  0  0  0  0  0  0  0
   -3.2695   -0.8105    0.3556 H   0  0  0  0  0  0  0  0  0  0  0  0
   -2.4215   -0.1836   -1.8686 H   0  0  0  0  0  0  0  0  0  0  0  0
   -0.6533   -0.5279   -3.5701 H   0  0  0  0  0  0  0  0  0  0  0  0
    0.9952   -0.9471   -3.0714 H   0  0  0  0  0  0  0  0  0  0  0  0
    0.3709    0.6783   -2.7978 H   0  0  0  0  0  0  0  0  0  0  0  0
    1.4836   -1.4778   -0.7330 H   0  0  0  0  0  0  0  0  0  0  0  0
    0.6228   -2.1626    1.4711 H   0  0  0  0  0  0  0  0  0  0  0  0
   -2.2362   -3.9765    0.6151 H   0  0  0  0  0  0  0  0  0  0  0  0
   -4.2429   -5.3924    0.4019 H   0  0  0  0  0  0  0  0  0  0  0  0
   -6.6371   -5.6219    0.8133 H   0  0  0  0  0  0  0  0  0  0  0  0
   -7.4132   -4.7735    2.1659 H   0  0  0  0  0  0  0  0  0  0  0  0
   -6.3990   -6.1815    2.4674 H   0  0  0  0  0  0  0  0  0  0  0  0
   -6.0878   -3.2569    3.5968 H   0  0  0  0  0  0  0  0  0  0  0  0
   -4.0963   -1.8296    3.8039 H   0  0  0  0  0  0  0  0  0  0  0  0
    2.6905   -0.8443    5.5915 H   0  0  0  0  0  0  0  0  0  0  0  0
    3.4392   -2.4179    7.3159 H   0  0  0  0  0  0  0  0  0  0  0  0
    3.7299   -1.7473   10.7711 H   0  0  0  0  0  0  0  0  0  0  0  0
    2.2484   -2.6574   10.4940 H   0  0  0  0  0  0  0  0  0  0  0  0
    3.7037   -3.0464    9.5693 H   0  0  0  0  0  0  0  0  0  0  0  0
    1.9108    0.1621   10.3462 H   0  0  0  0  0  0  0  0  0  0  0  0
    1.1889    1.7600    8.6229 H   0  0  0  0  0  0  0  0  0  0  0  0
   -0.2514    3.4345    5.3995 H   0  0  0  0  0  0  0  0  0  0  0  0
    0.1959    5.8303    5.6108 H   0  0  0  0  0  0  0  0  0  0  0  0
    2.8482    7.2894    7.5408 H   0  0  0  0  0  0  0  0  0  0  0  0
    3.1815    7.3292    5.8131 H   0  0  0  0  0  0  0  0  0  0  0  0
    1.5436    7.6363    6.3968 H   0  0  0  0  0  0  0  0  0  0  0  0
    4.0076    4.9748    7.3220 H   0  0  0  0  0  0  0  0  0  0  0  0
    3.5767    2.5678    7.0825 H   0  0  0  0  0  0  0  0  0  0  0  0
    5.0345    3.6718    4.6941 H   0  0  0  0  0  0  0  0  0  0  0  0
    6.7056    2.1256    5.6456 H   0  0  0  0  0  0  0  0  0  0  0  0
    6.5054   -0.2983    5.2638 H   0  0  0  0  0  0  0  0  0  0  0  0
    3.6439   -1.8897    3.5070 H   0  0  0  0  0  0  0  0  0  0  0  0
    4.9677   -2.1813    4.6443 H   0  0  0  0  0  0  0  0  0  0  0  0
    5.5346   -3.0106    2.3749 H   0  0  0  0  0  0  0  0  0  0  0  0
    5.2980   -1.3901    1.7100 H   0  0  0  0  0  0  0  0  0  0  0  0
    6.6199   -1.6942    2.8378 H   0  0  0  0  0  0  0  0  0  0  0  0
    2.9878    0.3556    2.9485 H   0  0  0  0  0  0  0  0  0  0  0  0
    3.7649    6.1276   -9.1388 H   0  0  0  0  0  0  0  0  0  0  0  0
    5.4022    5.3155  -10.7898 H   0  0  0  0  0  0  0  0  0  0  0  0
    5.5868    2.9083  -11.2710 H   0  0  0  0  0  0  0  0  0  0  0  0
    4.5225    0.6975  -11.1591 H   0  0  0  0  0  0  0  0  0  0  0  0
    3.2387    0.3769   -9.9832 H   0  0  0  0  0  0  0  0  0  0  0  0
    5.3314   -0.8095   -9.3547 H   0  0  0  0  0  0  0  0  0  0  0  0
    4.9237    0.4095   -8.1419 H   0  0  0  0  0  0  0  0  0  0  0  0
    6.2018    0.7277   -9.3135 H   0  0  0  0  0  0  0  0  0  0  0  0
    2.5311    2.1044   -8.4077 H   0  0  0  0  0  0  0  0  0  0  0  0
   -0.1647    6.3429    0.3600 H   0  0  0  0  0  0  0  0  0  0  0  0
    0.3650    7.6192   -0.7736 H   0  0  0  0  0  0  0  0  0  0  0  0
   -0.1102    8.5991    1.4255 H   0  0  0  0  0  0  0  0  0  0  0  0
    1.0272    7.4941    2.2027 H   0  0  0  0  0  0  0  0  0  0  0  0
    1.6196    8.7231    1.0794 H   0  0  0  0  0  0  0  0  0  0  0  0
    0.0392    5.1244   -3.4851 H   0  0  0  0  0  0  0  0  0  0  0  0
    0.2527    5.7171   -1.8427 H   0  0  0  0  0  0  0  0  0  0  0  0
   -0.6457    7.9904   -2.6584 H   0  0  0  0  0  0  0  0  0  0  0  0
   -0.8931    7.2533   -4.2392 H   0  0  0  0  0  0  0  0  0  0  0  0
   -1.8078    6.6713   -2.8474 H   0  0  0  0  0  0  0  0  0  0  0  0
   -0.0386    2.5748  -11.3675 H   0  0  0  0  0  0  0  0  0  0  0  0
    1.4298    3.1373  -10.5654 H   0  0  0  0  0  0  0  0  0  0  0  0
    0.1737    5.0098  -11.6099 H   0  0  0  0  0  0  0  0  0  0  0  0
   -1.2297    4.6451  -10.6017 H   0  0  0  0  0  0  0  0  0  0  0  0
    0.2687    5.2144   -9.8618 H   0  0  0  0  0  0  0  0  0  0  0  0
    0.5674   -0.7425   -9.8044 H   0  0  0  0  0  0  0  0  0  0  0  0
    0.5184    0.2853  -11.2364 H   0  0  0  0  0  0  0  0  0  0  0  0
   -0.8684   -1.4381  -12.4122 H   0  0  0  0  0  0  0  0  0  0  0  0
   -0.7980   -2.4583  -10.9690 H   0  0  0  0  0  0  0  0  0  0  0  0
    0.6727   -2.0843  -11.8603 H   0  0  0  0  0  0  0  0  0  0  0  0
   -2.6801   -0.1653  -11.7422 H   0  0  0  0  0  0  0  0  0  0  0  0
   -1.6612    1.2527  -11.9949 H   0  0  0  0  0  0  0  0  0  0  0  0
   -4.0242    1.8887  -11.5579 H   0  0  0  0  0  0  0  0  0  0  0  0
   -2.9719    2.4996  -10.2798 H   0  0  0  0  0  0  0  0  0  0  0  0
   -3.9666    1.0723   -9.9943 H   0  0  0  0  0  0  0  0  0  0  0  0
   -2.9872   -2.4394  -10.1115 H   0  0  0  0  0  0  0  0  0  0  0  0
   -4.0745   -4.0851   -8.6407 H   0  0  0  0  0  0  0  0  0  0  0  0
   -3.8634   -3.1555   -2.4602 H   0  0  0  0  0  0  0  0  0  0  0  0
   -4.7351   -2.2732   -0.3330 H   0  0  0  0  0  0  0  0  0  0  0  0
   -7.1491   -2.3153    0.1358 H   0  0  0  0  0  0  0  0  0  0  0  0
   -8.7179   -3.2049   -1.5546 H   0  0  0  0  0  0  0  0  0  0  0  0
   -7.8575   -4.0635   -3.6957 H   0  0  0  0  0  0  0  0  0  0  0  0
  1  2  2  0  0  0  0
  2  3  1  0  0  0  0
  3  4  2  0  0  0  0
  3  5  1  0  0  0  0
  5  6  2  0  0  0  0
  6  7  1  0  0  0  0
  7  8  2  0  0  0  0
  8  9  1  0  0  0  0
  9 10  2  0  0  0  0
 10 11  1  0  0  0  0
 11 12  2  0  0  0  0
 12 13  1  0  0  0  0
 13 14  3  0  0  0  0
 12 15  1  0  0  0  0
 15 16  3  0  0  0  0
  8 17  1  0  0  0  0
 17 18  1  0  0  0  0
 18 19  1  0  0  0  0
 19 20  2  0  0  0  0
 20 21  1  0  0  0  0
 21 22  1  0  0  0  0
 21 23  1  0  0  0  0
  1 24  1  0  0  0  0
 24 25  2  0  0  0  0
 25 26  1  0  0  0  0
 26 27  1  0  0  0  0
 27 28  2  0  0  0  0
 28 29  1  0  0  0  0
 29 30  2  0  0  0  0
 30 31  1  0  0  0  0
 30 32  1  0  0  0  0
 32 33  2  0  0  0  0
 26 34  1  0  0  0  0
 34 35  2  0  0  0  0
 35 36  1  0  0  0  0
 36 37  2  0  0  0  0
 37 38  1  0  0  0  0
 37 39  1  0  0  0  0
 39 40  2  0  0  0  0
 25 41  1  0  0  0  0
 41 42  1  0  0  0  0
 42 43  1  0  0  0  0
 43 44  2  0  0  0  0
 44 45  1  0  0  0  0
 45 46  1  0  0  0  0
 46 47  2  0  0  0  0
 47 48  1  0  0  0  0
 48 49  2  0  0  0  0
 49 50  1  0  0  0  0
 49 51  1  0  0  0  0
 51 52  2  0  0  0  0
 45 53  1  0  0  0  0
 53 54  2  0  0  0  0
 54 55  1  0  0  0  0
 55 56  2  0  0  0  0
 56 57  1  0  0  0  0
 56 58  1  0  0  0  0
 58 59  2  0  0  0  0
 44 60  1  0  0  0  0
 60 61  1  0  0  0  0
 43 62  1  0  0  0  0
 62 63  2  0  0  0  0
 63 64  1  0  0  0  0
 64 65  2  0  0  0  0
 65 66  1  0  0  0  0
 66 67  2  0  0  0  0
 67 68  1  0  0  0  0
 68 69  1  0  0  0  0
 69 70  1  0  0  0  0
 68 71  2  0  0  0  0
 63 72  1  0  0  0  0
 72 73  1  0  0  0  0
 73 74  1  0  0  0  0
 74 75  1  0  0  0  0
 75 76  1  0  0  0  0
 76 77  1  0  0  0  0
 77 78  2  0  0  0  0
 78 79  1  0  0  0  0
 79 80  1  0  0  0  0
 77 81  1  0  0  0  0
 81 82  1  0  0  0  0
 82 83  1  0  0  0  0
 83 84  1  0  0  0  0
 84 85  1  0  0  0  0
 85 86  1  0  0  0  0
 86 87  2  0  0  0  0
 87 88  1  0  0  0  0
 88 89  2  0  0  0  0
 89 90  1  0  0  0  0
 90 91  1  0  0  0  0
 91 92  1  0  0  0  0
 90 93  2  0  0  0  0
 85 94  2  0  0  0  0
 94 95  1  0  0  0  0
 95 96  1  0  0  0  0
 96 97  1  0  0  0  0
 97 98  1  0  0  0  0
 98 99  1  0  0  0  0
 99100  1  0  0  0  0
100101  1  0  0  0  0
101102  1  0  0  0  0
102103  1  0  0  0  0
103104  1  0  0  0  0
101105  1  0  0  0  0
105106  1  0  0  0  0
 98107  1  0  0  0  0
107108  1  0  0  0  0
 94109  1  0  0  0  0
109110  2  0  0  0  0
110111  1  0  0  0  0
111112  1  0  0  0  0
110113  1  0  0  0  0
113114  2  0  0  0  0
114115  1  0  0  0  0
114116  1  0  0  0  0
116117  2  0  0  0  0
117118  1  0  0  0  0
118119  1  0  0  0  0
119120  1  0  0  0  0
118121  1  0  0  0  0
121122  1  0  0  0  0
117123  1  0  0  0  0
123124  2  0  0  0  0
124125  1  0  0  0  0
124126  1  0  0  0  0
126127  2  0  0  0  0
127128  1  0  0  0  0
128129  1  0  0  0  0
129130  2  0  0  0  0
130131  1  0  0  0  0
131132  3  0  0  0  0
130133  1  0  0  0  0
133134  3  0  0  0  0
129135  1  0  0  0  0
135136  1  0  0  0  0
136137  2  0  0  0  0
137138  1  0  0  0  0
138139  2  0  0  0  0
139140  1  0  0  0  0
140141  2  0  0  0  0
135142  1  0  0  0  0
142143  2  0  0  0  0
 11  2  1  0  0  0  0
 23 17  1  0  0  0  0
 61 24  1  0  0  0  0
104 62  1  0  0  0  0
115109  1  0  0  0  0
125116  1  0  0  0  0
142127  1  0  0  0  0
 10  5  1  0  0  0  0
 22 18  1  0  0  0  0
 33 27  1  0  0  0  0
 40 34  1  0  0  0  0
 60 41  2  0  0  0  0
 71 64  1  0  0  0  0
103 72  2  0  0  0  0
118113  1  0  0  0  0
141136  1  0  0  0  0
 23  7  1  0  0  0  0
 52 46  1  0  0  0  0
 59 53  1  0  0  0  0
102 74  2  0  0  0  0
100 75  2  0  0  0  0
 80 76  2  0  0  0  0
 99 81  2  0  0  0  0
 97 82  2  0  0  0  0
 96 84  2  0  0  0  0
 93 86  1  0  0  0  0
  1144  1  0  0  0  0
  6145  1  0  0  0  0
  9146  1  0  0  0  0
 17147  1  0  0  0  0
 18148  1  0  0  0  0
 19149  1  0  0  0  0
 20150  1  0  0  0  0
 21151  1  0  0  0  0
 22152  1  0  0  0  0
 22153  1  0  0  0  0
 23154  1  0  0  0  0
 28155  1  0  0  0  0
 29156  1  0  0  0  0
 31157  1  0  0  0  0
 31158  1  0  0  0  0
 31159  1  0  0  0  0
 32160  1  0  0  0  0
 33161  1  0  0  0  0
 35162  1  0  0  0  0
 36163  1  0  0  0  0
 38164  1  0  0  0  0
 38165  1  0  0  0  0
 38166  1  0  0  0  0
 39167  1  0  0  0  0
 40168  1  0  0  0  0
 47169  1  0  0  0  0
 48170  1  0  0  0  0
 50171  1  0  0  0  0
 50172  1  0  0  0  0
 50173  1  0  0  0  0
 51174  1  0  0  0  0
 52175  1  0  0  0  0
 54176  1  0  0  0  0
 55177  1  0  0  0  0
 57178  1  0  0  0  0
 57179  1  0  0  0  0
 57180  1  0  0  0  0
 58181  1  0  0  0  0
 59182  1  0  0  0  0
 65183  1  0  0  0  0
 66184  1  0  0  0  0
 67185  1  0  0  0  0
 69186  1  0  0  0  0
 69187  1  0  0  0  0
 70188  1  0  0  0  0
 70189  1  0  0  0  0
 70190  1  0  0  0  0
 71191  1  0  0  0  0
 87192  1  0  0  0  0
 88193  1  0  0  0  0
 89194  1  0  0  0  0
 91195  1  0  0  0  0
 91196  1  0  0  0  0
 92197  1  0  0  0  0
 92198  1  0  0  0  0
 92199  1  0  0  0  0
 93200  1  0  0  0  0
105201  1  0  0  0  0
105202  1  0  0  0  0
106203  1  0  0  0  0
106204  1  0  0  0  0
106205  1  0  0  0  0
107206  1  0  0  0  0
107207  1  0  0  0  0
108208  1  0  0  0  0
108209  1  0  0  0  0
108210  1  0  0  0  0
111211  1  0  0  0  0
111212  1  0  0  0  0
112213  1  0  0  0  0
112214  1  0  0  0  0
112215  1  0  0  0  0
119216  1  0  0  0  0
119217  1  0  0  0  0
120218  1  0  0  0  0
120219  1  0  0  0  0
120220  1  0  0  0  0
121221  1  0  0  0  0
121222  1  0  0  0  0
122223  1  0  0  0  0
122224  1  0  0  0  0
122225  1  0  0  0  0
123226  1  0  0  0  0
126227  1  0  0  0  0
137228  1  0  0  0  0
138229  1  0  0  0  0
139230  1  0  0  0  0
140231  1  0  0  0  0
141232  1  0  0  0  0
M  END
