247

C         -9.94310       -2.77830       -6.58970
C        -11.21840       -2.29170       -6.40050
C        -11.52130       -0.88980       -6.07370
O        -10.72780        0.01790       -5.90180
C        -12.99370       -0.77250       -6.13580
C        -13.75640        0.36690       -5.89900
C        -15.11230        0.16610       -6.00970
C        -15.66840       -1.07120       -6.35430
C        -14.92540       -2.20150       -6.60210
C        -13.54640       -2.02240       -6.47400
C        -12.45620       -2.98540       -6.61680
C        -12.59590       -4.34590       -6.75190
C        -11.51760       -5.25210       -6.73890
N        -10.69210       -6.05060       -6.70410
C        -13.82990       -5.01550       -6.82830
N        -14.80590       -5.62100       -6.87160
C        -17.08240       -0.54900       -6.27670
C        -17.88770       -0.93430       -5.01790
C        -19.00680        0.08080       -4.97710
C        -18.47830        1.25070       -4.64150
C        -16.99280        1.04600       -4.45080
C        -16.99220       -0.38570       -3.89990
C        -16.46180        0.83010       -5.88410
C         -8.77670       -2.25660       -6.02350
C         -8.56770       -1.50560       -4.84840
N         -9.48390       -1.21830       -3.87800
C         -9.27420       -0.08880       -3.05360
C         -8.97580        1.14790       -3.61690
C         -8.76860        2.24130       -2.80060
C         -8.85770        2.13180       -1.41690
C         -8.60350        3.32090       -0.54270
C         -9.17380        0.89500       -0.86850
C         -9.38150       -0.20880       -1.67300
C        -10.62840       -1.98990       -3.64270
C        -11.82310       -1.36290       -3.29420
C        -12.96890       -2.10890       -3.09360
C        -12.96090       -3.49010       -3.23150
C        -14.21100       -4.29700       -3.07400
C        -11.75190       -4.11280       -3.53420
C        -10.60090       -3.38110       -3.73620
C         -7.20370       -1.14630       -4.73350
S         -6.30030       -0.25840       -3.55110
C         -4.83470       -0.48340       -4.48500
C         -5.01810       -1.28440       -5.60230
N         -4.00850       -1.70890       -6.44460
C         -4.26300       -1.89130       -7.81320
C         -5.11180       -1.02960       -8.49940
C         -5.35900       -1.22380       -9.84370
C         -4.76600       -2.26910      -10.53920
C         -5.05480       -2.49030      -11.99240
C         -3.91170       -3.12010       -9.84680
C         -3.66170       -2.94180       -8.50140
C         -2.70900       -1.90710       -5.95140
C         -1.60430       -1.47460       -6.68260
C         -0.33440       -1.59060       -6.15750
C         -0.12260       -2.15770       -4.90480
C          1.25520       -2.21230       -4.31820
C         -1.22080       -2.65000       -4.21430
C         -2.49980       -2.52720       -4.72360
C         -6.38190       -1.64260       -5.73670
S         -7.25800       -2.60300       -6.86740
C         -3.60710        0.18460       -4.15510
C         -2.89450        0.98120       -5.02660
C         -3.47010        1.51090       -6.26280
C         -2.71090        1.64980       -7.42040
C         -3.29730        2.13750       -8.57330
C         -4.63130        2.50710       -8.58350
C         -5.39570        2.41450       -7.42680
C         -6.84750        2.80370       -7.40610
C         -7.74960        1.57260       -7.51950
C         -4.80230        1.91730       -6.27680
C         -1.61000        1.26680       -4.51690
S         -0.24820        2.14930       -5.15680
C          0.63670        1.78940       -3.71300
C          1.87880        2.07900       -3.12360
C          2.92010        2.94400       -3.52380
C          3.99100        3.21030       -2.60510
N          4.85550        4.09430       -3.07830
S          4.36870        4.54720       -4.55490
N          3.03410        3.63490       -4.64710
C          4.04010        2.49680       -1.38810
C          5.00360        2.47190       -0.36530
S          6.46950        3.27860        0.07510
C          6.58390        2.25040        1.48430
C          7.50020        2.20480        2.55520
C          8.59310        3.17380        2.67960
C          8.81610        3.85940        3.87310
C          9.81870        4.80420        3.94150
C         10.59160        5.09860        2.82840
C         10.36890        4.44590        1.62460
C         11.14300        4.73200        0.36410
C         12.16890        5.85340        0.46120
C          9.37080        3.47880        1.57040
C          7.15770        1.21160        3.45790
S          5.68920        0.36140        3.00070
C          5.53450        1.33470        1.58340
C          4.62330        1.47020        0.52870
N          3.44180        0.89710        0.12760
C          3.05520        1.53030       -1.04700
C          1.89700        1.42350       -1.86030
N          0.67780        0.79740       -1.67920
C         -0.08140        1.02100       -2.79550
C         -1.37400        0.72790       -3.25270
S         -2.75100       -0.13050       -2.65900
C          0.05900        0.27470       -0.48440
C         -0.09500       -1.24430       -0.54100
C          3.15930       -0.45760        0.55320
C          3.68720       -1.47000       -0.46200
C          7.82900        0.79260        4.64260
C          9.11500        1.04400        5.03040
C          9.43220        0.52950        6.30610
C         10.64900        0.67710        7.00050
C         11.77290        1.35100        6.37940
C         12.29610        1.13440        5.13910
C         13.37850        1.98690        4.81560
C         14.08190        1.90730        3.49570
C         13.18410        2.41070        2.36600
C         13.66500        2.86560        5.82100
C         14.67390        3.96370        5.85970
C         14.13890        5.22900        5.18470
S         12.61770        2.63850        7.18460
C         10.69030        0.17200        8.29040
C          9.60220       -0.52390        8.88580
C          8.40030       -0.73130        8.16100
C          7.32660       -1.51500        8.72080
C          7.41710       -2.62330        9.51910
C          6.16990       -3.15990        9.90650
C          6.07290       -4.37920       10.77140
C          5.97430       -5.65000        9.92680
C          5.11660       -2.45610        9.39110
S          5.65570       -1.12560        8.41710
C          3.65290       -2.70350        9.52310
C          3.06300       -3.23940        8.21660
C          8.34090       -0.15320        6.89990
S          6.96230       -0.16110        5.83310
C          9.88210       -0.90600       10.20710
C         11.15230       -0.58180       10.62810
S         12.04430        0.27790        9.37260
C         11.80590       -0.77570       11.86050
C         11.48070       -1.56550       12.93170
C         10.42080       -2.60510       13.01930
O          9.58240       -2.92230       12.20060
C         10.63700       -3.22540       14.32500
S          9.90260       -4.49220       15.20860
C         11.04330       -4.22660       16.49510
Br        10.96490       -5.28530       18.03820
C         11.93850       -3.22030       16.25750
C         11.70040       -2.64390       14.99680
C         12.24970       -1.58600       14.16750
C         13.27660       -0.76690       14.55690
C         13.91340       -0.92910       15.80600
N         14.44670       -1.04480       16.81510
C         13.81770        0.31260       13.82930
N         14.31180        1.21330       13.31580
H         -9.80260       -3.61700       -7.26120
H        -13.28910        1.30580       -5.64510
H        -15.36500       -3.14530       -6.87920
H        -17.66600       -0.61450       -7.19290
H        -18.17340       -1.98120       -4.96320
H        -20.02460       -0.13690       -5.24290
H        -18.96630        2.20530       -4.57140
H        -16.46430        1.80370       -3.87800
H        -17.46540       -0.45170       -2.92130
H        -16.00570       -0.84430       -3.86300
H        -16.63650        1.68460       -6.53560
H         -8.94070        1.23970       -4.69070
H         -8.54110        3.20010       -3.24370
H         -9.01920        4.22310       -0.98620
H         -9.03690        3.17980        0.44420
H         -7.52990        3.47100       -0.42460
H         -9.25430        0.79110        0.20390
H         -9.62450       -1.16720       -1.23760
H        -11.84950       -0.28810       -3.19650
H        -13.88820       -1.60230       -2.83720
H        -15.02080       -3.68910       -2.67860
H        -14.04260       -5.13990       -2.40620
H        -14.52320       -4.69900       -4.03840
H        -11.71530       -5.18910       -3.62020
H         -9.67690       -3.88720       -3.97240
H         -5.55970       -0.19940       -7.97810
H         -6.01850       -0.54340      -10.36300
H         -5.33320       -1.55870      -12.47950
H         -5.88360       -3.19040      -12.10400
H         -4.19020       -2.91110      -12.50080
H         -3.44040       -3.94050      -10.36840
H         -3.00040       -3.61440       -7.97520
H         -1.75760       -1.03100       -7.65450
H          0.50930       -1.21930       -6.72090
H          1.27710       -2.84610       -3.43460
H          1.57830       -1.20930       -4.03530
H          1.96910       -2.59680       -5.04430
H         -1.08030       -3.13180       -3.25680
H         -3.34440       -2.90190       -4.16350
H         -1.66850        1.37170       -7.41420
H         -2.70760        2.23220       -9.47320
H         -5.07900        2.88390       -9.49180
H         -7.06910        3.32070       -6.46950
H         -7.06150        3.48560       -8.23120
H         -7.60300        1.07580       -8.47640
H         -8.79720        1.85160       -7.43570
H         -7.52480        0.86140       -6.72740
H         -5.38320        1.86690       -5.36700
H          8.19650        3.65660        4.73350
H          9.99580        5.32860        4.86900
H         11.35900        5.85190        2.91100
H         10.42210        4.97710       -0.42140
H         11.64700        3.81090        0.05560
H         12.64700        5.99590       -0.50540
H         12.94360        5.61660        1.18710
H         11.69390        6.78940        0.74570
H          9.20030        2.95220        0.64230
H          0.63070        0.60400        0.38410
H         -0.93910        0.72090       -0.40860
H         -0.77350       -1.51040       -1.34690
H         -0.51140       -1.60910        0.39410
H          0.85750       -1.73480       -0.72120
H          3.66700       -0.59650        1.51120
H          2.09610       -0.60860        0.71780
H          4.76180       -1.35360       -0.58460
H          3.21440       -1.32180       -1.43130
H          3.48460       -2.48110       -0.11930
H          9.81290        1.59920        4.43290
H         11.94230        0.35690        4.48460
H         14.35620        0.86700        3.30110
H         14.99780        2.49850        3.52330
H         12.28740        1.80020        2.28550
H         13.71410        2.37640        1.41680
H         12.87320        3.43440        2.55840
H         15.58970        3.64190        5.35800
H         14.91940        4.18720        6.89950
H         13.91440        5.03450        4.13890
H         13.22730        5.55970        5.67710
H         14.87480        6.02730        5.24130
H          8.34890       -3.07740        9.80250
H          6.96610       -4.42850       11.39660
H          5.20280       -4.30890       11.42710
H          5.07290       -5.63550        9.31840
H          6.83380       -5.73090        9.26520
H          5.94560       -6.52880       10.56680
H          3.14750       -1.76960        9.78270
H          3.47770       -3.42110       10.32630
H          3.21140       -2.51900        7.41530
H          1.99720       -3.42190        8.33000
H          3.54760       -4.17120        7.93400
H          9.16530       -1.37180       10.85390
H         12.72910       -0.21440       11.94830
H         12.70670       -2.93260       16.95110
