185

C         -8.84420       -1.72520       -0.42240
C         -8.02700       -2.51870        0.35360
C         -6.58620       -2.35000        0.55020
O         -5.87130       -1.45160        0.13820
C         -6.13180       -3.50110        1.34650
C         -4.82410       -3.78020        1.73540
C         -4.69580       -4.93670        2.46570
C         -5.78900       -5.75060        2.78860
C         -7.08370       -5.48640        2.40520
C         -7.23740       -4.31560        1.65580
C         -8.43400       -3.71570        1.06010
C         -9.70480       -4.22440        1.17930
C        -10.87130       -3.65870        0.63160
N        -11.86940       -3.25900        0.22220
C        -10.03440       -5.40020        1.88420
N        -10.38430       -6.34640        2.43320
C         -4.93030       -6.74090        3.53770
C         -4.96140       -6.66270        5.07880
C         -3.70570       -7.39050        5.50210
C         -2.66880       -6.62300        5.19140
C         -3.20680       -5.36310        4.55200
C         -4.52250       -5.21370        5.32670
C         -3.71090       -5.83500        3.17190
C         -8.56030       -0.55350       -1.13290
C         -9.47040        0.19430       -1.91080
O        -10.77280       -0.01630       -2.16890
C        -11.33480       -1.29580       -2.43790
C        -10.49480       -2.14400       -3.38190
C         -8.92160        1.39540       -2.42770
O         -9.68980        2.20010       -3.21060
C         -9.74970        3.57300       -2.85790
C        -10.41660        3.78580       -1.50390
C         -7.59330        1.57110       -2.07630
S         -7.01160        0.26360       -1.09240
C         -6.61140        2.55730       -2.39910
C         -6.33150        3.25960       -3.56070
C         -7.12020        3.21100       -4.79140
C         -7.32860        4.37640       -5.52550
C         -8.08650        4.33670       -6.67950
C         -8.63810        3.14330       -7.11200
C         -8.42490        1.96870       -6.40190
C         -8.97700        0.66180       -6.89300
C         -7.99060       -0.01420       -7.84700
C         -7.65730        2.01270       -5.24930
C         -5.12050        3.97770       -3.44050
S         -4.14580        4.88120       -4.58400
C         -2.87010        4.97090       -3.40960
C         -1.52690        5.37600       -3.29570
C         -0.66160        6.04010       -4.19290
C          0.71020        6.25050       -3.81860
N          1.39350        6.89810       -4.74870
S          0.40130        7.21570       -5.98870
N         -0.93970        6.53520       -5.38850
C          1.18030        5.70930       -2.60120
C          2.48250        5.54180       -2.09750
S          4.13340        5.83830       -2.54390
C          4.66690        4.88870       -1.16810
C          5.93090        4.39960       -0.76280
C          7.15000        4.68400       -1.51780
C          7.34470        5.95670       -2.05150
C          8.46980        6.22510       -2.80680
C          9.41160        5.23650       -3.02940
C          9.23790        3.96280       -2.49980
C         10.29680        2.91540       -2.69010
C         11.52490        3.25220       -1.84210
C          8.10090        3.69510       -1.75420
C          5.81410        3.57050        0.34510
S          4.14530        3.41790        0.89130
C          3.60290        4.42100       -0.39830
C          2.36270        4.79090       -0.92700
N          1.05040        4.51870       -0.66440
C          0.29830        5.05420       -1.69380
C         -1.08330        4.97390       -2.00320
N         -2.15290        4.40830       -1.32730
C         -3.21180        4.38290       -2.19170
C         -4.48810        3.81410       -2.20800
S         -5.39460        2.80050       -1.15120
C         -2.40810        4.28700        0.09280
C         -2.10860        5.59020        0.82840
C          0.72430        3.51380        0.32120
C          0.35320        2.18450       -0.33100
C          6.71270        2.72800        1.06530
C          8.07800        2.78070        1.33580
O          8.94210        3.77040        0.94080
C          8.62320        5.08660        1.37510
C          9.70250        6.01870        0.85400
C          8.50750        1.67130        2.09320
O          9.73430        1.38000        2.54230
C         10.87800        2.05690        2.03880
C         12.09440        1.27080        2.49930
C          7.47060        0.77080        2.42150
S          5.95250        1.34910        1.80760
C          7.71270       -0.42920        3.09160
C          6.81840       -1.39220        3.49800
C          5.36380       -1.27470        3.42040
O          4.71100       -0.36860        2.92490
C          4.81210       -2.47150        4.07600
C          3.46710       -2.77180        4.27150
C          3.25010       -3.96980        4.90770
C          4.29500       -4.80930        5.31360
C          5.62780       -4.51800        5.13380
C          5.87240       -3.30060        4.49260
C          7.13630       -2.65480        4.12720
C          8.38580       -3.18960        4.31950
C          9.60220       -2.60010        3.91690
N         10.63830       -2.20730        3.61170
C          8.63360       -4.43470        4.93200
N          8.91240       -5.43350        5.42600
C          3.34970       -5.84770        5.86630
C          3.09620       -7.12080        5.02070
C          3.32950       -6.73620        3.58100
C          2.33780       -5.93830        3.20840
C          1.41700       -5.76670        4.39120
C          1.55920       -7.14900        5.04790
C          2.18580       -4.90590        5.42360
H         -9.87110       -2.04930       -0.49290
H         -4.01340       -3.12380        1.46070
H         -7.90900       -6.13190        2.65410
H         -4.95050       -7.76290        3.16390
H         -5.89290       -6.98910        5.53270
H         -3.69800       -8.38040        5.91900
H         -1.62270       -6.84560        5.29470
H         -2.54180       -4.50360        4.52530
H         -4.35800       -5.00850        6.38330
H         -5.19880       -4.46850        4.91200
H         -2.92120       -6.25340        2.55020
H        -11.56150       -1.83720       -1.51130
H        -12.28800       -1.04700       -2.91340
H        -10.29060       -1.58990       -4.29570
H        -11.04400       -3.04720       -3.63160
H         -9.54760       -2.42900       -2.92850
H         -8.74910        4.02010       -2.86190
H        -10.33910        4.02670       -3.65730
H         -9.80430        3.36380       -0.70900
H        -11.38810        3.29830       -1.48880
H        -10.54640        4.84850       -1.32030
H         -6.91220        5.31060       -5.17940
H         -8.25260        5.24340       -7.24230
H         -9.23840        3.12180       -8.01030
H         -9.92250        0.83180       -7.41150
H         -9.16730        0.00430       -6.04240
H         -7.79890        0.62390       -8.70670
H         -7.04470       -0.20090       -7.34340
H         -8.38980       -0.96240       -8.20020
H         -7.46070        1.10040       -4.70560
H          6.62130        6.73540       -1.86370
H          8.61330        7.21180       -3.22180
H         10.28840        5.45200       -3.62290
H         10.58590        2.86190       -3.74250
H          9.90730        1.93980       -2.39380
H         11.99340        4.16860       -2.19330
H         12.25660        2.44900       -1.89060
H         11.22860        3.39970       -0.80590
H          7.93500        2.69860       -1.37260
H         -1.86110        3.44610        0.52020
H         -3.47110        4.05420        0.19410
H         -1.07290        5.89300        0.69360
H         -2.30440        5.46850        1.89040
H         -2.74450        6.38630        0.44750
H          1.62070        3.37260        0.92980
H         -0.05880        3.87330        0.98690
H          0.10180        1.45480        0.43370
H          1.19800        1.80670       -0.90200
H         -0.49200        2.29590       -1.00600
H          7.64200        5.38960        0.99310
H          8.58810        5.10730        2.47440
H          9.49320        7.03550        1.17310
H         10.67520        5.71810        1.23460
H          9.72530        5.98120       -0.23140
H         10.82850        2.09790        0.94610
H         10.90810        3.08160        2.42700
H         12.14550        1.26310        3.58450
H         12.99760        1.72360        2.10100
H         12.02410        0.24230        2.15620
H          8.76310       -0.59180        3.29880
H          2.69500       -2.09640        3.93740
H          6.41860       -5.17170        5.46180
H          3.45130       -6.07030        6.92680
H          3.61940       -8.00630        5.37110
H          4.19570       -7.02790        3.01660
H          2.21000       -5.42950        2.27080
H          0.41180       -5.41640        4.16930
H          1.14600       -7.19700        6.05510
H          1.14230       -7.95080        4.43940
H          1.53450       -4.50560        6.19860
