247

C          3.24770       10.23770       -0.92840
C          3.06640       10.84070       -2.15460
C          3.45950       10.29910       -3.45570
O          3.93720        9.20310       -3.70070
C          3.18770       11.35850       -4.44500
C          3.40620       11.29850       -5.81900
C          3.05460       12.44490       -6.49100
C          2.52260       13.56600       -5.84250
C          2.29930       13.63600       -4.48720
C          2.65310       12.48130       -3.78400
C          2.54230       12.16930       -2.35760
C          1.99330       13.00010       -1.40870
C          1.74120       12.65960       -0.06670
N          1.46540       12.45470        1.03130
C          1.56090       14.31780       -1.65510
N          1.20410       15.40370       -1.77360
C          2.40550       14.35280       -7.12460
C          3.47920       15.43330       -7.37180
C          3.40290       15.68550       -8.86020
C          3.90690       14.62350       -9.47560
C          4.33270       13.63590       -8.41330
C          4.77060       14.60750       -7.30980
C          2.99930       13.10200       -7.84850
C          3.69200        8.95720       -0.60990
C          3.80140        8.47740        0.72260
N          3.73690        9.24160        1.85480
C          4.22210       10.56280        1.91330
C          5.36600       10.93780        1.21370
C          5.82030       12.23980        1.28220
C          5.16530       13.18980        2.05740
C          5.64160       14.60820        2.11830
C          4.04240       12.79630        2.77590
C          3.56790       11.50220        2.70640
C          3.28750        8.65290        3.05420
C          3.98710        8.84920        4.24020
C          3.54020        8.26830        5.41100
C          2.39810        7.47690        5.42960
C          1.93360        6.81710        6.69090
C          1.69950        7.29680        4.24090
C          2.12960        7.87950        3.06600
C          3.97810        7.08300        0.73360
S          4.14320        5.89960        1.98920
C          4.28110        4.62060        0.79370
C          4.28470        5.11040       -0.50660
N          4.48310        4.35810       -1.64790
C          3.92780        4.82380       -2.85670
C          2.60040        5.23980       -2.90410
C          2.08300        5.76530       -4.07040
C          2.86670        5.88160       -5.21250
C          2.30420        6.50760       -6.45100
C          4.17730        5.42540       -5.16570
C          4.70860        4.90110       -4.00400
C          5.27200        3.20240       -1.65440
C          6.39320        3.07760       -0.83580
C          7.09460        1.88990       -0.79970
C          6.70970        0.79800       -1.56920
C          7.44090       -0.50450       -1.45740
C          5.62500        0.94860       -2.42320
C          4.91490        2.13170       -2.47250
C          4.08760        6.51380       -0.52830
S          3.98120        7.68020       -1.79690
C          4.28720        3.23640        1.16530
C          5.06600        2.54600        2.06810
C          6.04970        3.13980        2.97890
C          7.37630        2.72260        2.93790
C          8.30110        3.28850        3.79390
C          7.91400        4.26740        4.69370
C          6.58970        4.67720        4.76340
C          6.13880        5.70490        5.76060
C          5.56540        5.03270        7.00880
C          5.66370        4.09370        3.91110
C          4.82920        1.15690        1.99370
S          5.49890       -0.20180        2.86440
C          4.42110       -1.25530        2.00640
C          3.99670       -2.59550        2.02690
C          4.28370       -3.66090        2.91020
C          3.44230       -4.82890        2.89510
N          3.76400       -5.69420        3.84310
S          5.02280       -5.10310        4.67440
N          5.20010       -3.71300        3.86320
C          2.44060       -4.94130        1.90540
C          1.47450       -5.92750        1.62950
S          0.83610       -7.38020        2.32440
C         -0.35490       -7.45450        1.04460
C         -1.43140       -8.32420        0.77110
C         -1.74120       -9.53240        1.53310
C         -2.18210      -10.68610        0.88490
C         -2.48690      -11.81260        1.61940
C         -2.33430      -11.82020        2.99690
C         -1.86130      -10.69550        3.65760
C         -1.61410      -10.65810        5.14280
C         -2.26190      -11.78350        5.94070
C         -1.57410       -9.55870        2.91210
C         -2.10970       -7.92240       -0.36710
S         -1.39950       -6.51420       -1.13110
C         -0.21780       -6.41730        0.11880
C          0.81790       -5.54130        0.45870
N          1.32760       -4.35320       -0.00250
C          2.29230       -3.94550        0.90320
C          2.96780       -2.71010        1.05200
N          2.75650       -1.46950        0.48380
C          3.62260       -0.59000        1.07210
C          3.85070        0.79210        1.07230
S          3.19720        2.17400        0.27550
C          1.65970       -0.97740       -0.31830
C          2.11890       -0.55780       -1.71420
C          1.27140       -4.04670       -1.41660
C          1.88120       -5.17040       -2.25460
C         -3.36270       -8.41880       -0.87710
C         -3.62070       -8.58540       -2.22720
F         -2.64910       -8.34780       -3.12720
C         -4.85050       -9.04790       -2.70470
F         -4.94880       -9.26760       -4.02640
C         -5.91460       -9.34180       -1.86380
C         -5.68090       -9.17090       -0.46310
N         -6.69590       -9.35870        0.39300
C         -6.50900       -9.16750        1.67990
C         -7.69640       -9.27440        2.53250
C         -8.66290      -10.23100        2.24230
C         -9.78730      -10.33150        3.04320
C         -9.95380       -9.49130        4.12420
C         -8.99800       -8.51250        4.41370
O         -9.25430       -7.75060        5.50910
C         -8.32980       -6.76100        5.91420
C         -8.45660       -5.46800        5.11310
C         -7.87840       -8.39830        3.60250
C         -5.21200       -8.81110        2.17200
N         -4.23820       -8.55050        1.33480
C         -4.43080       -8.71610        0.01930
C         -4.88260       -8.69450        3.59660
C         -4.08340       -7.63330        4.02140
C         -3.79850       -7.49000        5.36320
C         -4.28280       -8.39520        6.29570
C         -5.04710       -9.48020        5.87350
O         -5.55600      -10.43900        6.68620
C         -5.30080      -10.37190        8.07630
C         -5.95770      -11.58090        8.72220
C         -5.33990       -9.62410        4.51770
C         -7.21300       -9.79160       -2.26890
C         -7.89090       -9.60460       -3.42190
S         -7.44590       -8.67850       -4.83870
C         -9.02650       -8.93050       -5.54400
C         -9.39810       -8.33030       -6.71790
C         -8.48530       -7.51510       -7.41830
N         -7.75420       -6.85050       -8.00110
C        -10.67750       -8.41600       -7.29730
N        -11.70240       -8.41890       -7.81540
N         -9.80120       -9.74040       -4.77190
C        -11.09010      -10.20410       -5.17340
C        -11.19230      -11.12280       -6.20770
C        -12.44190      -11.57930       -6.58310
C        -13.57290      -11.12920       -5.92330
C        -13.45870      -10.22690       -4.87990
C        -12.21440       -9.75990       -4.49710
C         -9.25420      -10.14560       -3.56460
O         -9.82890      -10.84320       -2.76520
H          2.98820       10.84030       -0.06760
H          3.81420       10.41030       -6.27610
H          1.88550       14.50670       -4.00690
H          1.40240       14.68100       -7.39070
H          3.40790       16.30220       -6.72330
H          2.95330       16.55700       -9.29890
H          3.96250       14.43090      -10.53110
H          5.04040       12.86810       -8.71480
H          4.94790       14.13330       -6.34630
H          5.64540       15.18910       -7.59660
H          2.39150       12.59730       -8.59760
H          5.89040       10.20920        0.61270
H          6.70510       12.51920        0.72840
H          5.75040       14.93120        3.15220
H          6.59680       14.72290        1.61210
H          4.91580       15.26620        1.64070
H          3.51890       13.51850        3.38390
H          2.68300       11.21680        3.25300
H          4.88240        9.45310        4.23740
H          4.09250        8.43030        6.32530
H          2.41640        7.25450        7.56080
H          2.17340        5.75390        6.66550
H          0.85520        6.91220        6.80110
H          0.80130        6.69670        4.23790
H          1.56960        7.74540        2.15220
H          1.98620        5.15800       -2.01860
H          1.05580        6.09980       -4.09410
H          3.00490        6.43550       -7.27780
H          2.09450        7.56070       -6.26540
H          1.37010        6.02720       -6.73840
H          4.80090        5.50000       -6.04470
H          5.73540        4.56690       -3.97140
H          6.71010        3.91130       -0.22640
H          7.96110        1.80720       -0.15980
H          8.51730       -0.34850       -1.50240
H          7.21320       -0.97970       -0.50230
H          7.15150       -1.18420       -2.25520
H          5.32010        0.12310       -3.05070
H          4.06200        2.23050       -3.12820
H          7.67440        1.96380        2.23080
H          9.33200        2.96810        3.75740
H          8.64630        4.71260        5.35190
H          5.37120        6.33580        5.30660
H          6.98080        6.33810        6.04660
H          4.73000        4.39020        6.74070
H          6.32340        4.42120        7.49340
H          5.21620        5.78000        7.71750
H          4.62280        4.37330        3.98700
H         -2.27680      -10.69830       -0.19100
H         -2.84000      -12.70110        1.11550
H         -2.57890      -12.71600        3.54490
H         -0.53100      -10.68450        5.30430
H         -1.96980       -9.69660        5.52210
H         -2.09810      -11.62080        7.00430
H         -1.83010      -12.74770        5.68280
H         -3.33340      -11.81750        5.75750
H         -1.23110       -8.67110        3.42260
H          0.87530       -1.73310       -0.35720
H          1.25020       -0.09590        0.18830
H          2.81130        0.27670       -1.64250
H          1.26160       -0.24720       -2.30460
H          2.62560       -1.36900       -2.23250
H          1.83630       -3.13840       -1.59990
H          0.22580       -3.89660       -1.70520
H          1.31090       -6.08920       -2.15440
H          1.88220       -4.88100       -3.30190
H          2.90610       -5.35920       -1.94140
H         -8.51960      -10.88830        1.40010
H        -10.53840      -11.07480        2.82310
H        -10.81880       -9.56420        4.76410
H         -7.30400       -7.14990        5.87130
H         -8.58270       -6.56840        6.96100
H         -8.24090       -5.63560        4.06100
H         -7.76160       -4.72860        5.50160
H         -9.46890       -5.08120        5.19720
H         -7.14260       -7.63020        3.77530
H         -3.71130       -6.93140        3.29220
H         -3.19100       -6.66250        5.69950
H         -4.05160       -8.25110        7.33920
H         -5.72010       -9.44470        8.49200
H         -4.21780      -10.38330        8.26110
H         -7.02540      -11.57270        8.52070
H         -5.53520      -12.49470        8.31350
H         -5.79560      -11.56080        9.79580
H         -5.92730      -10.47420        4.20860
H         -7.77120      -10.30040       -1.49060
H        -10.30290      -11.46880       -6.71390
H        -12.53000      -12.28710       -7.39260
H        -14.54670      -11.48500       -6.22290
H        -14.34010       -9.88040       -4.36250
H        -12.11020       -9.05780       -3.68400
