
  xtb     02092211063D
 energy: -434.591347890643 gnorm: 0.000432788198 xtb: 6.4.1 (unknown)
268296  0     0  0            999 V2000
    5.2700    1.5508    2.1232 C   0  0  0  0  0  0  0  0  0  0  0  0
    5.7908    0.3377    1.7279 C   0  0  0  0  0  0  0  0  0  0  0  0
    5.7351   -0.2403    0.3840 C   0  0  0  0  0  0  0  0  0  0  0  0
    5.4327    0.3180   -0.6583 O   0  0  0  0  0  0  0  0  0  0  0  0
    6.1160   -1.6583    0.5300 C   0  0  0  0  0  0  0  0  0  0  0  0
    6.1693   -2.6272   -0.4690 C   0  0  0  0  0  0  0  0  0  0  0  0
    6.5494   -3.8721   -0.0250 C   0  0  0  0  0  0  0  0  0  0  0  0
    6.8643   -4.1338    1.3146 C   0  0  0  0  0  0  0  0  0  0  0  0
    6.8190   -3.1843    2.3085 C   0  0  0  0  0  0  0  0  0  0  0  0
    6.4228   -1.9149    1.8806 C   0  0  0  0  0  0  0  0  0  0  0  0
    6.2759   -0.6703    2.6348 C   0  0  0  0  0  0  0  0  0  0  0  0
    6.5395   -0.5195    3.9782 C   0  0  0  0  0  0  0  0  0  0  0  0
    6.7935   -1.5836    4.8585 C   0  0  0  0  0  0  0  0  0  0  0  0
    6.9529   -2.4068    5.6461 N   0  0  0  0  0  0  0  0  0  0  0  0
    6.6023    0.7097    4.6600 C   0  0  0  0  0  0  0  0  0  0  0  0
    6.7236    1.6707    5.2800 N   0  0  0  0  0  0  0  0  0  0  0  0
    7.1876   -5.5812    1.0412 C   0  0  0  0  0  0  0  0  0  0  0  0
    8.6850   -5.9470    0.9711 C   0  0  0  0  0  0  0  0  0  0  0  0
    8.6971   -7.2675    0.2368 C   0  0  0  0  0  0  0  0  0  0  0  0
    8.3963   -7.0251   -1.0326 C   0  0  0  0  0  0  0  0  0  0  0  0
    8.1749   -5.5364   -1.1762 C   0  0  0  0  0  0  0  0  0  0  0  0
    9.1842   -5.0188   -0.1436 C   0  0  0  0  0  0  0  0  0  0  0  0
    6.8338   -5.2912   -0.4528 C   0  0  0  0  0  0  0  0  0  0  0  0
    4.5585    2.5072    1.4043 C   0  0  0  0  0  0  0  0  0  0  0  0
    3.8417    3.5678    2.0184 C   0  0  0  0  0  0  0  0  0  0  0  0
    3.6334    3.7149    3.3671 N   0  0  0  0  0  0  0  0  0  0  0  0
    3.4390    2.6037    4.2108 C   0  0  0  0  0  0  0  0  0  0  0  0
    3.9263    2.6191    5.5141 C   0  0  0  0  0  0  0  0  0  0  0  0
    3.7822    1.5041    6.3171 C   0  0  0  0  0  0  0  0  0  0  0  0
    3.1669    0.3508    5.8454 C   0  0  0  0  0  0  0  0  0  0  0  0
    3.0940   -0.8786    6.6967 C   0  0  0  0  0  0  0  0  0  0  0  0
    2.6434    0.3620    4.5565 C   0  0  0  0  0  0  0  0  0  0  0  0
    2.7619    1.4756    3.7504 C   0  0  0  0  0  0  0  0  0  0  0  0
    3.4376    5.0110    3.8758 C   0  0  0  0  0  0  0  0  0  0  0  0
    4.2556    6.0544    3.4469 C   0  0  0  0  0  0  0  0  0  0  0  0
    4.0697    7.3276    3.9422 C   0  0  0  0  0  0  0  0  0  0  0  0
    3.0773    7.5963    4.8787 C   0  0  0  0  0  0  0  0  0  0  0  0
    2.9093    8.9832    5.4168 C   0  0  0  0  0  0  0  0  0  0  0  0
    2.2679    6.5500    5.3005 C   0  0  0  0  0  0  0  0  0  0  0  0
    2.4382    5.2710    4.8076 C   0  0  0  0  0  0  0  0  0  0  0  0
    3.2621    4.4056    1.0562 C   0  0  0  0  0  0  0  0  0  0  0  0
    2.1888    5.7721    1.1422 S   0  0  0  0  0  0  0  0  0  0  0  0
    1.9041    5.6682   -0.5899 C   0  0  0  0  0  0  0  0  0  0  0  0
    2.7209    4.7171   -1.1994 C   0  0  0  0  0  0  0  0  0  0  0  0
    2.7297    4.4417   -2.5646 N   0  0  0  0  0  0  0  0  0  0  0  0
    3.1036    5.4206   -3.4892 C   0  0  0  0  0  0  0  0  0  0  0  0
    3.7910    6.5644   -3.0910 C   0  0  0  0  0  0  0  0  0  0  0  0
    4.1144    7.5398   -4.0134 C   0  0  0  0  0  0  0  0  0  0  0  0
    3.7708    7.4080   -5.3526 C   0  0  0  0  0  0  0  0  0  0  0  0
    4.1491    8.4565   -6.3538 C   0  0  0  0  0  0  0  0  0  0  0  0
    3.0838    6.2641   -5.7432 C   0  0  0  0  0  0  0  0  0  0  0  0
    2.7467    5.2860   -4.8313 C   0  0  0  0  0  0  0  0  0  0  0  0
    2.6945    3.0754   -2.9078 C   0  0  0  0  0  0  0  0  0  0  0  0
    3.6062    2.5168   -3.7963 C   0  0  0  0  0  0  0  0  0  0  0  0
    3.5651    1.1631   -4.0641 C   0  0  0  0  0  0  0  0  0  0  0  0
    2.6297    0.3359   -3.4552 C   0  0  0  0  0  0  0  0  0  0  0  0
    2.6239   -1.1383   -3.7170 C   0  0  0  0  0  0  0  0  0  0  0  0
    1.7182    0.9026   -2.5724 C   0  0  0  0  0  0  0  0  0  0  0  0
    1.7453    2.2558   -2.3021 C   0  0  0  0  0  0  0  0  0  0  0  0
    3.4655    3.9844   -0.2532 C   0  0  0  0  0  0  0  0  0  0  0  0
    4.4132    2.5444   -0.3567 S   0  0  0  0  0  0  0  0  0  0  0  0
    0.7647    6.2678   -1.1804 C   0  0  0  0  0  0  0  0  0  0  0  0
   -0.2519    6.9762   -0.5531 C   0  0  0  0  0  0  0  0  0  0  0  0
   -0.1688    7.5198    0.8153 C   0  0  0  0  0  0  0  0  0  0  0  0
    0.3634    8.7901    1.0025 C   0  0  0  0  0  0  0  0  0  0  0  0
    0.4284    9.3444    2.2661 C   0  0  0  0  0  0  0  0  0  0  0  0
   -0.0333    8.6243    3.3540 C   0  0  0  0  0  0  0  0  0  0  0  0
   -0.5475    7.3552    3.1722 C   0  0  0  0  0  0  0  0  0  0  0  0
   -0.6307    6.7837    1.9096 C   0  0  0  0  0  0  0  0  0  0  0  0
   -1.1861    5.3939    1.7617 C   0  0  0  0  0  0  0  0  0  0  0  0
   -2.6903    5.3465    2.0312 C   0  0  0  0  0  0  0  0  0  0  0  0
   -1.4145    7.0153   -1.3395 C   0  0  0  0  0  0  0  0  0  0  0  0
   -3.0764    7.4634   -0.9918 S   0  0  0  0  0  0  0  0  0  0  0  0
   -3.5968    6.5529   -2.3824 C   0  0  0  0  0  0  0  0  0  0  0  0
   -4.7533    5.8816   -2.8344 C   0  0  0  0  0  0  0  0  0  0  0  0
   -6.1021    5.8695   -2.4094 C   0  0  0  0  0  0  0  0  0  0  0  0
   -6.9435    4.7545   -2.7761 C   0  0  0  0  0  0  0  0  0  0  0  0
   -8.1630    4.8638   -2.2800 N   0  0  0  0  0  0  0  0  0  0  0  0
   -8.2601    6.2438   -1.4339 S   0  0  0  0  0  0  0  0  0  0  0  0
   -6.7359    6.7487   -1.6540 N   0  0  0  0  0  0  0  0  0  0  0  0
   -6.3546    3.6449   -3.4300 C   0  0  0  0  0  0  0  0  0  0  0  0
   -6.6568    2.2700   -3.3649 C   0  0  0  0  0  0  0  0  0  0  0  0
   -7.8281    1.2087   -2.6386 S   0  0  0  0  0  0  0  0  0  0  0  0
   -6.6920   -0.1190   -2.7783 C   0  0  0  0  0  0  0  0  0  0  0  0
   -6.6216   -1.3812   -2.1496 C   0  0  0  0  0  0  0  0  0  0  0  0
   -7.7368   -2.0545   -1.4650 C   0  0  0  0  0  0  0  0  0  0  0  0
   -8.2738   -3.2341   -1.9901 C   0  0  0  0  0  0  0  0  0  0  0  0
   -7.8276   -3.7856   -3.3146 C   0  0  0  0  0  0  0  0  0  0  0  0
   -8.5429   -3.0571   -4.4543 C   0  0  0  0  0  0  0  0  0  0  0  0
   -9.3167   -3.8479   -1.3112 C   0  0  0  0  0  0  0  0  0  0  0  0
   -9.8240   -3.3164   -0.1399 C   0  0  0  0  0  0  0  0  0  0  0  0
   -9.3055   -2.1353    0.3606 C   0  0  0  0  0  0  0  0  0  0  0  0
   -8.2701   -1.5072   -0.3049 C   0  0  0  0  0  0  0  0  0  0  0  0
   -5.3449   -1.8958   -2.2184 C   0  0  0  0  0  0  0  0  0  0  0  0
   -4.2829   -0.9413   -3.2462 S   0  0  0  0  0  0  0  0  0  0  0  0
   -5.5168    0.2483   -3.4310 C   0  0  0  0  0  0  0  0  0  0  0  0
   -5.5209    1.5935   -3.8159 C   0  0  0  0  0  0  0  0  0  0  0  0
   -4.5890    2.4788   -4.2746 N   0  0  0  0  0  0  0  0  0  0  0  0
   -5.0470    3.7477   -3.9799 C   0  0  0  0  0  0  0  0  0  0  0  0
   -4.3078    4.9433   -3.8047 C   0  0  0  0  0  0  0  0  0  0  0  0
   -2.9648    5.1622   -4.0691 N   0  0  0  0  0  0  0  0  0  0  0  0
   -2.5249    6.0704   -3.1387 C   0  0  0  0  0  0  0  0  0  0  0  0
   -1.2851    6.3470   -2.5589 C   0  0  0  0  0  0  0  0  0  0  0  0
    0.3061    5.7292   -2.7969 S   0  0  0  0  0  0  0  0  0  0  0  0
   -2.2781    4.9899   -5.3329 C   0  0  0  0  0  0  0  0  0  0  0  0
   -1.8035    6.3277   -5.8967 C   0  0  0  0  0  0  0  0  0  0  0  0
   -3.3509    2.0084   -4.8503 C   0  0  0  0  0  0  0  0  0  0  0  0
   -2.1987    1.9747   -3.8509 C   0  0  0  0  0  0  0  0  0  0  0  0
   -4.7307   -2.9050   -1.4062 C   0  0  0  0  0  0  0  0  0  0  0  0
   -3.6008   -2.6938   -0.6266 C   0  0  0  0  0  0  0  0  0  0  0  0
   -2.9433   -1.4856   -0.4437 N   0  0  0  0  0  0  0  0  0  0  0  0
   -1.5498   -1.5274   -0.2424 C   0  0  0  0  0  0  0  0  0  0  0  0
   -0.7502   -2.3193   -1.0614 C   0  0  0  0  0  0  0  0  0  0  0  0
    0.6134   -2.3788   -0.8508 C   0  0  0  0  0  0  0  0  0  0  0  0
    1.2166   -1.6397    0.1590 C   0  0  0  0  0  0  0  0  0  0  0  0
    2.7005   -1.6674    0.3478 C   0  0  0  0  0  0  0  0  0  0  0  0
    0.4102   -0.8488    0.9675 C   0  0  0  0  0  0  0  0  0  0  0  0
   -0.9558   -0.7963    0.7819 C   0  0  0  0  0  0  0  0  0  0  0  0
   -3.6253   -0.2752   -0.2750 C   0  0  0  0  0  0  0  0  0  0  0  0
   -3.0041    0.9229   -0.6271 C   0  0  0  0  0  0  0  0  0  0  0  0
   -3.6678    2.1269   -0.4982 C   0  0  0  0  0  0  0  0  0  0  0  0
   -4.9618    2.1801    0.0007 C   0  0  0  0  0  0  0  0  0  0  0  0
   -5.6906    3.4779    0.1601 C   0  0  0  0  0  0  0  0  0  0  0  0
   -5.5625    0.9867    0.3830 C   0  0  0  0  0  0  0  0  0  0  0  0
   -4.9158   -0.2258    0.2488 C   0  0  0  0  0  0  0  0  0  0  0  0
   -3.2051   -3.8841    0.0283 C   0  0  0  0  0  0  0  0  0  0  0  0
   -1.8570   -4.2865    1.0235 S   0  0  0  0  0  0  0  0  0  0  0  0
   -2.4418   -5.9492    1.1556 C   0  0  0  0  0  0  0  0  0  0  0  0
   -3.6237   -6.1585    0.3940 C   0  0  0  0  0  0  0  0  0  0  0  0
   -4.2767   -7.3514    0.2324 N   0  0  0  0  0  0  0  0  0  0  0  0
   -3.5942   -8.5771    0.1141 C   0  0  0  0  0  0  0  0  0  0  0  0
   -4.1520   -9.7405    0.6377 C   0  0  0  0  0  0  0  0  0  0  0  0
   -3.4816  -10.9415    0.5181 C   0  0  0  0  0  0  0  0  0  0  0  0
   -2.2422  -11.0149   -0.1066 C   0  0  0  0  0  0  0  0  0  0  0  0
   -1.5059  -12.3164   -0.1797 C   0  0  0  0  0  0  0  0  0  0  0  0
   -1.7026   -9.8506   -0.6416 C   0  0  0  0  0  0  0  0  0  0  0  0
   -2.3698   -8.6460   -0.5468 C   0  0  0  0  0  0  0  0  0  0  0  0
   -5.6737   -7.3369    0.0544 C   0  0  0  0  0  0  0  0  0  0  0  0
   -6.4705   -6.5136    0.8453 C   0  0  0  0  0  0  0  0  0  0  0  0
   -7.8423   -6.5142    0.6870 C   0  0  0  0  0  0  0  0  0  0  0  0
   -8.4539   -7.3394   -0.2478 C   0  0  0  0  0  0  0  0  0  0  0  0
   -9.9445   -7.3900   -0.3808 C   0  0  0  0  0  0  0  0  0  0  0  0
   -7.6489   -8.1517   -1.0398 C   0  0  0  0  0  0  0  0  0  0  0  0
   -6.2765   -8.1522   -0.8994 C   0  0  0  0  0  0  0  0  0  0  0  0
   -4.0442   -4.9635   -0.2140 C   0  0  0  0  0  0  0  0  0  0  0  0
   -5.3633   -4.5353   -1.2588 S   0  0  0  0  0  0  0  0  0  0  0  0
   -1.8541   -6.9213    1.9585 C   0  0  0  0  0  0  0  0  0  0  0  0
   -0.6792   -6.8996    2.6834 C   0  0  0  0  0  0  0  0  0  0  0  0
    0.3001   -5.8140    2.7379 C   0  0  0  0  0  0  0  0  0  0  0  0
    0.2144   -4.6929    2.2673 O   0  0  0  0  0  0  0  0  0  0  0  0
    1.4605   -6.3491    3.4835 C   0  0  0  0  0  0  0  0  0  0  0  0
    2.6434   -5.7174    3.8037 C   0  0  0  0  0  0  0  0  0  0  0  0
    3.5966   -6.4509    4.5039 C   0  0  0  0  0  0  0  0  0  0  0  0
    4.7588   -5.8167    4.9094 O   0  0  0  0  0  0  0  0  0  0  0  0
    5.9551   -6.3285    4.5462 C   0  0  0  0  0  0  0  0  0  0  0  0
    6.0760   -7.2065    3.7348 O   0  0  0  0  0  0  0  0  0  0  0  0
    7.0693   -5.6545    5.2846 C   0  0  0  0  0  0  0  0  0  0  0  0
    3.3659   -7.7788    4.8459 C   0  0  0  0  0  0  0  0  0  0  0  0
    2.1685   -8.4026    4.5279 C   0  0  0  0  0  0  0  0  0  0  0  0
    1.2002   -7.6804    3.8496 C   0  0  0  0  0  0  0  0  0  0  0  0
   -0.1544   -8.0261    3.4174 C   0  0  0  0  0  0  0  0  0  0  0  0
   -0.7995   -9.2032    3.7134 C   0  0  0  0  0  0  0  0  0  0  0  0
   -0.1933  -10.2966    4.3625 C   0  0  0  0  0  0  0  0  0  0  0  0
    0.2380  -11.2348    4.8661 N   0  0  0  0  0  0  0  0  0  0  0  0
   -2.1576   -9.4767    3.4655 C   0  0  0  0  0  0  0  0  0  0  0  0
   -3.2637   -9.7674    3.3431 N   0  0  0  0  0  0  0  0  0  0  0  0
    5.3607    1.7741    3.1784 H   0  0  0  0  0  0  0  0  0  0  0  0
    5.9283   -2.3816   -1.4918 H   0  0  0  0  0  0  0  0  0  0  0  0
    7.0712   -3.3974    3.3329 H   0  0  0  0  0  0  0  0  0  0  0  0
    6.6025   -6.3163    1.5897 H   0  0  0  0  0  0  0  0  0  0  0  0
    9.2069   -5.9142    1.9234 H   0  0  0  0  0  0  0  0  0  0  0  0
    8.8570   -8.2159    0.7142 H   0  0  0  0  0  0  0  0  0  0  0  0
    8.2592   -7.7315   -1.8304 H   0  0  0  0  0  0  0  0  0  0  0  0
    8.2328   -5.1271   -2.1817 H   0  0  0  0  0  0  0  0  0  0  0  0
   10.2126   -5.2340   -0.4295 H   0  0  0  0  0  0  0  0  0  0  0  0
    9.0835   -3.9586    0.0823 H   0  0  0  0  0  0  0  0  0  0  0  0
    6.0018   -5.8290   -0.9038 H   0  0  0  0  0  0  0  0  0  0  0  0
    4.4378    3.4943    5.8829 H   0  0  0  0  0  0  0  0  0  0  0  0
    4.1834    1.5214    7.3191 H   0  0  0  0  0  0  0  0  0  0  0  0
    4.0518   -1.4009    6.6762 H   0  0  0  0  0  0  0  0  0  0  0  0
    2.3280   -1.5604    6.3349 H   0  0  0  0  0  0  0  0  0  0  0  0
    2.8802   -0.6208    7.7317 H   0  0  0  0  0  0  0  0  0  0  0  0
    2.1312   -0.5134    4.1821 H   0  0  0  0  0  0  0  0  0  0  0  0
    2.3496    1.4734    2.7513 H   0  0  0  0  0  0  0  0  0  0  0  0
    5.0432    5.8545    2.7353 H   0  0  0  0  0  0  0  0  0  0  0  0
    4.7132    8.1276    3.6063 H   0  0  0  0  0  0  0  0  0  0  0  0
    2.1128    9.0224    6.1552 H   0  0  0  0  0  0  0  0  0  0  0  0
    3.8328    9.3217    5.8851 H   0  0  0  0  0  0  0  0  0  0  0  0
    2.6737    9.6741    4.6086 H   0  0  0  0  0  0  0  0  0  0  0  0
    1.4892    6.7362    6.0256 H   0  0  0  0  0  0  0  0  0  0  0  0
    1.7979    4.4674    5.1406 H   0  0  0  0  0  0  0  0  0  0  0  0
    4.0760    6.6857   -2.0562 H   0  0  0  0  0  0  0  0  0  0  0  0
    4.6501    8.4189   -3.6848 H   0  0  0  0  0  0  0  0  0  0  0  0
    3.4104    8.5168   -7.1501 H   0  0  0  0  0  0  0  0  0  0  0  0
    4.2388    9.4314   -5.8804 H   0  0  0  0  0  0  0  0  0  0  0  0
    5.1110    8.2119   -6.8062 H   0  0  0  0  0  0  0  0  0  0  0  0
    2.7990    6.1427   -6.7787 H   0  0  0  0  0  0  0  0  0  0  0  0
    2.1959    4.4126   -5.1467 H   0  0  0  0  0  0  0  0  0  0  0  0
    4.3551    3.1424   -4.2584 H   0  0  0  0  0  0  0  0  0  0  0  0
    4.2874    0.7383   -4.7459 H   0  0  0  0  0  0  0  0  0  0  0  0
    1.6186   -1.5431   -3.6259 H   0  0  0  0  0  0  0  0  0  0  0  0
    3.0114   -1.3602   -4.7088 H   0  0  0  0  0  0  0  0  0  0  0  0
    3.2580   -1.6405   -2.9859 H   0  0  0  0  0  0  0  0  0  0  0  0
    0.9838    0.2752   -2.0871 H   0  0  0  0  0  0  0  0  0  0  0  0
    1.0348    2.6879   -1.6116 H   0  0  0  0  0  0  0  0  0  0  0  0
    0.7218    9.3418    0.1450 H   0  0  0  0  0  0  0  0  0  0  0  0
    0.8359   10.3357    2.3988 H   0  0  0  0  0  0  0  0  0  0  0  0
    0.0096    9.0510    4.3445 H   0  0  0  0  0  0  0  0  0  0  0  0
   -0.8890    6.7884    4.0261 H   0  0  0  0  0  0  0  0  0  0  0  0
   -0.6752    4.7371    2.4712 H   0  0  0  0  0  0  0  0  0  0  0  0
   -0.9889    5.0162    0.7567 H   0  0  0  0  0  0  0  0  0  0  0  0
   -2.9092    5.6773    3.0433 H   0  0  0  0  0  0  0  0  0  0  0  0
   -3.0604    4.3307    1.9096 H   0  0  0  0  0  0  0  0  0  0  0  0
   -3.2216    5.9957    1.3397 H   0  0  0  0  0  0  0  0  0  0  0  0
   -8.0576   -4.8516   -3.3589 H   0  0  0  0  0  0  0  0  0  0  0  0
   -6.7505   -3.6702   -3.4401 H   0  0  0  0  0  0  0  0  0  0  0  0
   -8.3043   -1.9959   -4.4347 H   0  0  0  0  0  0  0  0  0  0  0  0
   -8.2373   -3.4637   -5.4156 H   0  0  0  0  0  0  0  0  0  0  0  0
   -9.6207   -3.1656   -4.3562 H   0  0  0  0  0  0  0  0  0  0  0  0
   -9.7366   -4.7566   -1.7159 H   0  0  0  0  0  0  0  0  0  0  0  0
  -10.6346   -3.8126    0.3741 H   0  0  0  0  0  0  0  0  0  0  0  0
   -9.7068   -1.7018    1.2646 H   0  0  0  0  0  0  0  0  0  0  0  0
   -7.8655   -0.5816    0.0718 H   0  0  0  0  0  0  0  0  0  0  0  0
   -2.9821    4.5462   -6.0381 H   0  0  0  0  0  0  0  0  0  0  0  0
   -1.4143    4.3296   -5.2024 H   0  0  0  0  0  0  0  0  0  0  0  0
   -2.6334    7.0273   -5.9695 H   0  0  0  0  0  0  0  0  0  0  0  0
   -1.3886    6.1733   -6.8892 H   0  0  0  0  0  0  0  0  0  0  0  0
   -1.0314    6.7611   -5.2671 H   0  0  0  0  0  0  0  0  0  0  0  0
   -3.0981    2.6126   -5.7209 H   0  0  0  0  0  0  0  0  0  0  0  0
   -3.5407    0.9902   -5.2022 H   0  0  0  0  0  0  0  0  0  0  0  0
   -1.2725    1.7206   -4.3595 H   0  0  0  0  0  0  0  0  0  0  0  0
   -2.0780    2.9335   -3.3556 H   0  0  0  0  0  0  0  0  0  0  0  0
   -2.3975    1.2205   -3.0969 H   0  0  0  0  0  0  0  0  0  0  0  0
   -1.2068   -2.8893   -1.8582 H   0  0  0  0  0  0  0  0  0  0  0  0
    1.2210   -3.0104   -1.4820 H   0  0  0  0  0  0  0  0  0  0  0  0
    3.1703   -0.9504   -0.3272 H   0  0  0  0  0  0  0  0  0  0  0  0
    2.9696   -1.3962    1.3669 H   0  0  0  0  0  0  0  0  0  0  0  0
    3.1033   -2.6545    0.1304 H   0  0  0  0  0  0  0  0  0  0  0  0
    0.8561   -0.2763    1.7678 H   0  0  0  0  0  0  0  0  0  0  0  0
   -1.5720   -0.1943    1.4334 H   0  0  0  0  0  0  0  0  0  0  0  0
   -1.9881    0.9014   -0.9925 H   0  0  0  0  0  0  0  0  0  0  0  0
   -3.1707    3.0417   -0.7901 H   0  0  0  0  0  0  0  0  0  0  0  0
   -5.8235    3.7123    1.2166 H   0  0  0  0  0  0  0  0  0  0  0  0
   -6.6796    3.4161   -0.2917 H   0  0  0  0  0  0  0  0  0  0  0  0
   -5.1410    4.2934   -0.3042 H   0  0  0  0  0  0  0  0  0  0  0  0
   -6.5556    1.0186    0.8075 H   0  0  0  0  0  0  0  0  0  0  0  0
   -5.4002   -1.1370    0.5676 H   0  0  0  0  0  0  0  0  0  0  0  0
   -5.1008   -9.6955    1.1485 H   0  0  0  0  0  0  0  0  0  0  0  0
   -3.9190  -11.8338    0.9392 H   0  0  0  0  0  0  0  0  0  0  0  0
   -2.1726  -13.1190   -0.4888 H   0  0  0  0  0  0  0  0  0  0  0  0
   -1.1101  -12.5744    0.8030 H   0  0  0  0  0  0  0  0  0  0  0  0
   -0.6754  -12.2580   -0.8788 H   0  0  0  0  0  0  0  0  0  0  0  0
   -0.7485   -9.8870   -1.1476 H   0  0  0  0  0  0  0  0  0  0  0  0
   -1.9413   -7.7513   -0.9747 H   0  0  0  0  0  0  0  0  0  0  0  0
   -6.0104   -5.8848    1.5934 H   0  0  0  0  0  0  0  0  0  0  0  0
   -8.4457   -5.8697    1.3088 H   0  0  0  0  0  0  0  0  0  0  0  0
  -10.2403   -7.4276   -1.4278 H   0  0  0  0  0  0  0  0  0  0  0  0
  -10.3288   -8.2889    0.1031 H   0  0  0  0  0  0  0  0  0  0  0  0
  -10.4069   -6.5270    0.0906 H   0  0  0  0  0  0  0  0  0  0  0  0
   -8.1058   -8.7933   -1.7794 H   0  0  0  0  0  0  0  0  0  0  0  0
   -5.6638   -8.7842   -1.5250 H   0  0  0  0  0  0  0  0  0  0  0  0
   -2.4047   -7.8524    1.9969 H   0  0  0  0  0  0  0  0  0  0  0  0
    2.8235   -4.6909    3.5254 H   0  0  0  0  0  0  0  0  0  0  0  0
    7.1927   -6.1548    6.2442 H   0  0  0  0  0  0  0  0  0  0  0  0
    7.9936   -5.7498    4.7222 H   0  0  0  0  0  0  0  0  0  0  0  0
    6.8361   -4.6103    5.4806 H   0  0  0  0  0  0  0  0  0  0  0  0
    4.1314   -8.3265    5.3740 H   0  0  0  0  0  0  0  0  0  0  0  0
    2.0134   -9.4298    4.8138 H   0  0  0  0  0  0  0  0  0  0  0  0
  1  2  2  0  0  0  0
  2  3  1  0  0  0  0
  3  4  2  0  0  0  0
  3  5  1  0  0  0  0
  5  6  2  0  0  0  0
  6  7  1  0  0  0  0
  7  8  2  0  0  0  0
  8  9  1  0  0  0  0
  9 10  2  0  0  0  0
 10 11  1  0  0  0  0
 11 12  2  0  0  0  0
 12 13  1  0  0  0  0
 13 14  3  0  0  0  0
 12 15  1  0  0  0  0
 15 16  3  0  0  0  0
  8 17  1  0  0  0  0
 17 18  1  0  0  0  0
 18 19  1  0  0  0  0
 19 20  2  0  0  0  0
 20 21  1  0  0  0  0
 21 22  1  0  0  0  0
 21 23  1  0  0  0  0
  1 24  1  0  0  0  0
 24 25  2  0  0  0  0
 25 26  1  0  0  0  0
 26 27  1  0  0  0  0
 27 28  2  0  0  0  0
 28 29  1  0  0  0  0
 29 30  2  0  0  0  0
 30 31  1  0  0  0  0
 30 32  1  0  0  0  0
 32 33  2  0  0  0  0
 26 34  1  0  0  0  0
 34 35  2  0  0  0  0
 35 36  1  0  0  0  0
 36 37  2  0  0  0  0
 37 38  1  0  0  0  0
 37 39  1  0  0  0  0
 39 40  2  0  0  0  0
 25 41  1  0  0  0  0
 41 42  1  0  0  0  0
 42 43  1  0  0  0  0
 43 44  2  0  0  0  0
 44 45  1  0  0  0  0
 45 46  1  0  0  0  0
 46 47  2  0  0  0  0
 47 48  1  0  0  0  0
 48 49  2  0  0  0  0
 49 50  1  0  0  0  0
 49 51  1  0  0  0  0
 51 52  2  0  0  0  0
 45 53  1  0  0  0  0
 53 54  2  0  0  0  0
 54 55  1  0  0  0  0
 55 56  2  0  0  0  0
 56 57  1  0  0  0  0
 56 58  1  0  0  0  0
 58 59  2  0  0  0  0
 44 60  1  0  0  0  0
 60 61  1  0  0  0  0
 43 62  1  0  0  0  0
 62 63  2  0  0  0  0
 63 64  1  0  0  0  0
 64 65  2  0  0  0  0
 65 66  1  0  0  0  0
 66 67  2  0  0  0  0
 67 68  1  0  0  0  0
 68 69  2  0  0  0  0
 69 70  1  0  0  0  0
 70 71  1  0  0  0  0
 63 72  1  0  0  0  0
 72 73  1  0  0  0  0
 73 74  1  0  0  0  0
 74 75  1  0  0  0  0
 75 76  1  0  0  0  0
 76 77  1  0  0  0  0
 77 78  2  0  0  0  0
 78 79  1  0  0  0  0
 79 80  1  0  0  0  0
 77 81  1  0  0  0  0
 81 82  1  0  0  0  0
 82 83  1  0  0  0  0
 83 84  1  0  0  0  0
 84 85  1  0  0  0  0
 85 86  1  0  0  0  0
 86 87  2  0  0  0  0
 87 88  1  0  0  0  0
 88 89  1  0  0  0  0
 87 90  1  0  0  0  0
 90 91  2  0  0  0  0
 91 92  1  0  0  0  0
 92 93  2  0  0  0  0
 85 94  2  0  0  0  0
 94 95  1  0  0  0  0
 95 96  1  0  0  0  0
 96 97  1  0  0  0  0
 97 98  1  0  0  0  0
 98 99  1  0  0  0  0
 99100  1  0  0  0  0
100101  1  0  0  0  0
101102  1  0  0  0  0
102103  1  0  0  0  0
103104  1  0  0  0  0
101105  1  0  0  0  0
105106  1  0  0  0  0
 98107  1  0  0  0  0
107108  1  0  0  0  0
 94109  1  0  0  0  0
109110  2  0  0  0  0
110111  1  0  0  0  0
111112  1  0  0  0  0
112113  2  0  0  0  0
113114  1  0  0  0  0
114115  2  0  0  0  0
115116  1  0  0  0  0
115117  1  0  0  0  0
117118  2  0  0  0  0
111119  1  0  0  0  0
119120  2  0  0  0  0
120121  1  0  0  0  0
121122  2  0  0  0  0
122123  1  0  0  0  0
122124  1  0  0  0  0
124125  2  0  0  0  0
110126  1  0  0  0  0
126127  1  0  0  0  0
127128  1  0  0  0  0
128129  2  0  0  0  0
129130  1  0  0  0  0
130131  1  0  0  0  0
131132  2  0  0  0  0
132133  1  0  0  0  0
133134  2  0  0  0  0
134135  1  0  0  0  0
134136  1  0  0  0  0
136137  2  0  0  0  0
130138  1  0  0  0  0
138139  2  0  0  0  0
139140  1  0  0  0  0
140141  2  0  0  0  0
141142  1  0  0  0  0
141143  1  0  0  0  0
143144  2  0  0  0  0
129145  1  0  0  0  0
145146  1  0  0  0  0
128147  1  0  0  0  0
147148  2  0  0  0  0
148149  1  0  0  0  0
149150  2  0  0  0  0
149151  1  0  0  0  0
151152  2  0  0  0  0
152153  1  0  0  0  0
153154  1  0  0  0  0
154155  1  0  0  0  0
155156  2  0  0  0  0
155157  1  0  0  0  0
153158  2  0  0  0  0
158159  1  0  0  0  0
159160  2  0  0  0  0
160161  1  0  0  0  0
161162  2  0  0  0  0
162163  1  0  0  0  0
163164  3  0  0  0  0
162165  1  0  0  0  0
165166  3  0  0  0  0
 11  2  1  0  0  0  0
 23 17  1  0  0  0  0
 61 24  1  0  0  0  0
104 62  1  0  0  0  0
146109  1  0  0  0  0
161148  1  0  0  0  0
 10  5  1  0  0  0  0
 22 18  1  0  0  0  0
 33 27  1  0  0  0  0
 40 34  1  0  0  0  0
 60 41  2  0  0  0  0
 69 64  1  0  0  0  0
103 72  2  0  0  0  0
118112  1  0  0  0  0
125119  1  0  0  0  0
145126  2  0  0  0  0
160151  1  0  0  0  0
 23  7  1  0  0  0  0
 52 46  1  0  0  0  0
 59 53  1  0  0  0  0
102 74  2  0  0  0  0
137131  1  0  0  0  0
144138  1  0  0  0  0
100 75  2  0  0  0  0
 80 76  2  0  0  0  0
 99 81  2  0  0  0  0
 97 82  2  0  0  0  0
 96 84  2  0  0  0  0
 93 86  1  0  0  0  0
  1167  1  0  0  0  0
  6168  1  0  0  0  0
  9169  1  0  0  0  0
 17170  1  0  0  0  0
 18171  1  0  0  0  0
 19172  1  0  0  0  0
 20173  1  0  0  0  0
 21174  1  0  0  0  0
 22175  1  0  0  0  0
 22176  1  0  0  0  0
 23177  1  0  0  0  0
 28178  1  0  0  0  0
 29179  1  0  0  0  0
 31180  1  0  0  0  0
 31181  1  0  0  0  0
 31182  1  0  0  0  0
 32183  1  0  0  0  0
 33184  1  0  0  0  0
 35185  1  0  0  0  0
 36186  1  0  0  0  0
 38187  1  0  0  0  0
 38188  1  0  0  0  0
 38189  1  0  0  0  0
 39190  1  0  0  0  0
 40191  1  0  0  0  0
 47192  1  0  0  0  0
 48193  1  0  0  0  0
 50194  1  0  0  0  0
 50195  1  0  0  0  0
 50196  1  0  0  0  0
 51197  1  0  0  0  0
 52198  1  0  0  0  0
 54199  1  0  0  0  0
 55200  1  0  0  0  0
 57201  1  0  0  0  0
 57202  1  0  0  0  0
 57203  1  0  0  0  0
 58204  1  0  0  0  0
 59205  1  0  0  0  0
 65206  1  0  0  0  0
 66207  1  0  0  0  0
 67208  1  0  0  0  0
 68209  1  0  0  0  0
 70210  1  0  0  0  0
 70211  1  0  0  0  0
 71212  1  0  0  0  0
 71213  1  0  0  0  0
 71214  1  0  0  0  0
 88215  1  0  0  0  0
 88216  1  0  0  0  0
 89217  1  0  0  0  0
 89218  1  0  0  0  0
 89219  1  0  0  0  0
 90220  1  0  0  0  0
 91221  1  0  0  0  0
 92222  1  0  0  0  0
 93223  1  0  0  0  0
105224  1  0  0  0  0
105225  1  0  0  0  0
106226  1  0  0  0  0
106227  1  0  0  0  0
106228  1  0  0  0  0
107229  1  0  0  0  0
107230  1  0  0  0  0
108231  1  0  0  0  0
108232  1  0  0  0  0
108233  1  0  0  0  0
113234  1  0  0  0  0
114235  1  0  0  0  0
116236  1  0  0  0  0
116237  1  0  0  0  0
116238  1  0  0  0  0
117239  1  0  0  0  0
118240  1  0  0  0  0
120241  1  0  0  0  0
121242  1  0  0  0  0
123243  1  0  0  0  0
123244  1  0  0  0  0
123245  1  0  0  0  0
124246  1  0  0  0  0
125247  1  0  0  0  0
132248  1  0  0  0  0
133249  1  0  0  0  0
135250  1  0  0  0  0
135251  1  0  0  0  0
135252  1  0  0  0  0
136253  1  0  0  0  0
137254  1  0  0  0  0
139255  1  0  0  0  0
140256  1  0  0  0  0
142257  1  0  0  0  0
142258  1  0  0  0  0
142259  1  0  0  0  0
143260  1  0  0  0  0
144261  1  0  0  0  0
147262  1  0  0  0  0
152263  1  0  0  0  0
157264  1  0  0  0  0
157265  1  0  0  0  0
157266  1  0  0  0  0
158267  1  0  0  0  0
159268  1  0  0  0  0
M  END
