
  xtb     02192223483D
 energy: -426.601862724428 gnorm: 0.000793008709 xtb: 6.4.1 (unknown)
262291  0     0  0            999 V2000
    8.2542    4.5411    6.6667 C   0  0  0  0  0  0  0  0  0  0  0  0
    8.7812    3.7831    7.6889 C   0  0  0  0  0  0  0  0  0  0  0  0
    8.0260    3.0421    8.7002 C   0  0  0  0  0  0  0  0  0  0  0  0
    6.8181    2.8834    8.7681 O   0  0  0  0  0  0  0  0  0  0  0  0
    9.0194    2.5296    9.6632 C   0  0  0  0  0  0  0  0  0  0  0  0
    8.7702    1.7671   10.8014 C   0  0  0  0  0  0  0  0  0  0  0  0
    9.9003    1.4331   11.5091 C   0  0  0  0  0  0  0  0  0  0  0  0
   11.1831    1.8350   11.1174 C   0  0  0  0  0  0  0  0  0  0  0  0
   11.4422    2.5874    9.9958 C   0  0  0  0  0  0  0  0  0  0  0  0
   10.3068    2.9318    9.2574 C   0  0  0  0  0  0  0  0  0  0  0  0
   10.1843    3.6865    8.0091 C   0  0  0  0  0  0  0  0  0  0  0  0
   11.2387    4.1715    7.2714 C   0  0  0  0  0  0  0  0  0  0  0  0
   12.5889    4.1050    7.6667 C   0  0  0  0  0  0  0  0  0  0  0  0
   13.7079    4.1095    7.9276 N   0  0  0  0  0  0  0  0  0  0  0  0
   11.1447    4.7696    6.0006 C   0  0  0  0  0  0  0  0  0  0  0  0
   11.1694    5.2305    4.9469 N   0  0  0  0  0  0  0  0  0  0  0  0
   11.8440    1.1439   12.2849 C   0  0  0  0  0  0  0  0  0  0  0  0
   12.5510   -0.1943   11.9844 C   0  0  0  0  0  0  0  0  0  0  0  0
   12.6670   -0.8555   13.3387 C   0  0  0  0  0  0  0  0  0  0  0  0
   11.4514   -1.2412   13.7049 C   0  0  0  0  0  0  0  0  0  0  0  0
   10.4933   -0.8461   12.6043 C   0  0  0  0  0  0  0  0  0  0  0  0
   11.4065   -1.0209   11.3841 C   0  0  0  0  0  0  0  0  0  0  0  0
   10.4130    0.6911   12.7190 C   0  0  0  0  0  0  0  0  0  0  0  0
    6.9369    4.6963    6.2421 C   0  0  0  0  0  0  0  0  0  0  0  0
    6.5659    5.5458    5.1674 C   0  0  0  0  0  0  0  0  0  0  0  0
    7.3835    6.4586    4.5552 N   0  0  0  0  0  0  0  0  0  0  0  0
    8.3355    7.2133    5.2647 C   0  0  0  0  0  0  0  0  0  0  0  0
    8.0811    7.6344    6.5676 C   0  0  0  0  0  0  0  0  0  0  0  0
    9.0331    8.3571    7.2584 C   0  0  0  0  0  0  0  0  0  0  0  0
   10.2461    8.6940    6.6694 C   0  0  0  0  0  0  0  0  0  0  0  0
   11.2926    9.4554    7.4229 C   0  0  0  0  0  0  0  0  0  0  0  0
   10.4752    8.2985    5.3566 C   0  0  0  0  0  0  0  0  0  0  0  0
    9.5390    7.5638    4.6574 C   0  0  0  0  0  0  0  0  0  0  0  0
    7.1828    6.7309    3.1884 C   0  0  0  0  0  0  0  0  0  0  0  0
    6.9872    5.6820    2.2929 C   0  0  0  0  0  0  0  0  0  0  0  0
    6.7802    5.9453    0.9550 C   0  0  0  0  0  0  0  0  0  0  0  0
    6.7710    7.2502    0.4737 C   0  0  0  0  0  0  0  0  0  0  0  0
    6.5421    7.5145   -0.9825 C   0  0  0  0  0  0  0  0  0  0  0  0
    6.9798    8.2879    1.3727 C   0  0  0  0  0  0  0  0  0  0  0  0
    7.1815    8.0388    2.7163 C   0  0  0  0  0  0  0  0  0  0  0  0
    5.2251    5.3346    4.8052 C   0  0  0  0  0  0  0  0  0  0  0  0
    4.1889    5.9821    3.5725 S   0  0  0  0  0  0  0  0  0  0  0  0
    2.8526    5.0150    4.1751 C   0  0  0  0  0  0  0  0  0  0  0  0
    3.2132    4.1975    5.2371 C   0  0  0  0  0  0  0  0  0  0  0  0
    2.4018    3.2488    5.8348 N   0  0  0  0  0  0  0  0  0  0  0  0
    2.5578    3.0060    7.2097 C   0  0  0  0  0  0  0  0  0  0  0  0
    2.5183    1.7077    7.7088 C   0  0  0  0  0  0  0  0  0  0  0  0
    2.7113    1.4785    9.0559 C   0  0  0  0  0  0  0  0  0  0  0  0
    2.9532    2.5258    9.9364 C   0  0  0  0  0  0  0  0  0  0  0  0
    3.2189    2.2651   11.3871 C   0  0  0  0  0  0  0  0  0  0  0  0
    2.9770    3.8190    9.4314 C   0  0  0  0  0  0  0  0  0  0  0  0
    2.7796    4.0628    8.0876 C   0  0  0  0  0  0  0  0  0  0  0  0
    1.4949    2.4956    5.0803 C   0  0  0  0  0  0  0  0  0  0  0  0
    0.2649    2.1254    5.6215 C   0  0  0  0  0  0  0  0  0  0  0  0
   -0.6648    1.4624    4.8477 C   0  0  0  0  0  0  0  0  0  0  0  0
   -0.4017    1.1406    3.5205 C   0  0  0  0  0  0  0  0  0  0  0  0
   -1.4393    0.4573    2.6829 C   0  0  0  0  0  0  0  0  0  0  0  0
    0.8488    1.4561    3.0075 C   0  0  0  0  0  0  0  0  0  0  0  0
    1.7912    2.1148    3.7737 C   0  0  0  0  0  0  0  0  0  0  0  0
    4.5653    4.4078    5.6028 C   0  0  0  0  0  0  0  0  0  0  0  0
    5.5684    3.7567    6.8466 S   0  0  0  0  0  0  0  0  0  0  0  0
    1.5713    5.0247    3.5331 C   0  0  0  0  0  0  0  0  0  0  0  0
    0.3378    5.0562    4.1539 C   0  0  0  0  0  0  0  0  0  0  0  0
    0.1425    5.4900    5.5349 C   0  0  0  0  0  0  0  0  0  0  0  0
    0.9669    6.4676    6.0912 C   0  0  0  0  0  0  0  0  0  0  0  0
    0.7768    6.8744    7.3971 C   0  0  0  0  0  0  0  0  0  0  0  0
   -0.2312    6.3168    8.1648 C   0  0  0  0  0  0  0  0  0  0  0  0
   -1.0763    5.3585    7.6222 C   0  0  0  0  0  0  0  0  0  0  0  0
   -2.2160    4.7910    8.4179 C   0  0  0  0  0  0  0  0  0  0  0  0
   -3.5081    5.5494    8.1085 C   0  0  0  0  0  0  0  0  0  0  0  0
   -0.8873    4.9629    6.3070 C   0  0  0  0  0  0  0  0  0  0  0  0
   -0.6850    4.6587    3.2630 C   0  0  0  0  0  0  0  0  0  0  0  0
   -2.3889    4.3325    3.4648 S   0  0  0  0  0  0  0  0  0  0  0  0
   -2.4631    3.7679    1.8305 C   0  0  0  0  0  0  0  0  0  0  0  0
   -3.3724    3.1489    0.9522 C   0  0  0  0  0  0  0  0  0  0  0  0
   -4.7440    2.8376    1.0702 C   0  0  0  0  0  0  0  0  0  0  0  0
   -5.4078    2.1811   -0.0236 C   0  0  0  0  0  0  0  0  0  0  0  0
   -6.6953    1.9848    0.2123 N   0  0  0  0  0  0  0  0  0  0  0  0
   -7.0442    2.5691    1.6818 S   0  0  0  0  0  0  0  0  0  0  0  0
   -5.5636    3.0930    2.0779 N   0  0  0  0  0  0  0  0  0  0  0  0
   -4.6432    1.7556   -1.1322 C   0  0  0  0  0  0  0  0  0  0  0  0
   -4.9503    0.8994   -2.2034 C   0  0  0  0  0  0  0  0  0  0  0  0
   -6.2996    0.0030   -2.8172 S   0  0  0  0  0  0  0  0  0  0  0  0
   -5.2375   -0.7437   -3.9842 C   0  0  0  0  0  0  0  0  0  0  0  0
   -5.4465   -1.7114   -4.9836 C   0  0  0  0  0  0  0  0  0  0  0  0
   -6.7365   -2.3219   -5.3221 C   0  0  0  0  0  0  0  0  0  0  0  0
   -7.1984   -2.2805   -6.6346 C   0  0  0  0  0  0  0  0  0  0  0  0
   -8.3918   -2.8919   -6.9659 C   0  0  0  0  0  0  0  0  0  0  0  0
   -9.1195   -3.5598   -5.9968 C   0  0  0  0  0  0  0  0  0  0  0  0
   -8.6718   -3.6124   -4.6833 C   0  0  0  0  0  0  0  0  0  0  0  0
   -9.4143   -4.4188   -3.6583 C   0  0  0  0  0  0  0  0  0  0  0  0
   -8.9105   -5.8644   -3.6763 C   0  0  0  0  0  0  0  0  0  0  0  0
   -7.4853   -2.9751   -4.3519 C   0  0  0  0  0  0  0  0  0  0  0  0
   -4.2803   -2.0037   -5.6625 C   0  0  0  0  0  0  0  0  0  0  0  0
   -2.9133   -1.0667   -5.0845 S   0  0  0  0  0  0  0  0  0  0  0  0
   -3.9192   -0.2941   -3.9072 C   0  0  0  0  0  0  0  0  0  0  0  0
   -3.7570    0.6541   -2.8874 C   0  0  0  0  0  0  0  0  0  0  0  0
   -2.7325    1.3468   -2.2999 N   0  0  0  0  0  0  0  0  0  0  0  0
   -3.2534    2.0404   -1.2241 C   0  0  0  0  0  0  0  0  0  0  0  0
   -2.6503    2.8565   -0.2353 C   0  0  0  0  0  0  0  0  0  0  0  0
   -1.3592    3.3466   -0.1075 N   0  0  0  0  0  0  0  0  0  0  0  0
   -1.2472    3.8707    1.1567 C   0  0  0  0  0  0  0  0  0  0  0  0
   -0.2321    4.3815    1.9741 C   0  0  0  0  0  0  0  0  0  0  0  0
    1.4674    4.6364    1.8218 S   0  0  0  0  0  0  0  0  0  0  0  0
   -0.4908    3.8417   -1.1542 C   0  0  0  0  0  0  0  0  0  0  0  0
   -0.5822    5.3629   -1.2782 C   0  0  0  0  0  0  0  0  0  0  0  0
   -1.3609    1.0367   -2.6300 C   0  0  0  0  0  0  0  0  0  0  0  0
   -0.9304    1.6709   -3.9533 C   0  0  0  0  0  0  0  0  0  0  0  0
   -4.1688   -3.0790   -6.6083 C   0  0  0  0  0  0  0  0  0  0  0  0
   -3.6747   -3.1144   -7.8997 C   0  0  0  0  0  0  0  0  0  0  0  0
   -3.0608   -2.0526   -8.5560 N   0  0  0  0  0  0  0  0  0  0  0  0
   -1.9252   -1.4570   -7.9971 C   0  0  0  0  0  0  0  0  0  0  0  0
   -1.6625   -0.1043   -8.2019 C   0  0  0  0  0  0  0  0  0  0  0  0
   -0.5320    0.4721   -7.6594 C   0  0  0  0  0  0  0  0  0  0  0  0
    0.3621   -0.2730   -6.8993 C   0  0  0  0  0  0  0  0  0  0  0  0
    1.6137    0.3428   -6.3513 C   0  0  0  0  0  0  0  0  0  0  0  0
    0.0853   -1.6175   -6.6864 C   0  0  0  0  0  0  0  0  0  0  0  0
   -1.0397   -2.2083   -7.2259 C   0  0  0  0  0  0  0  0  0  0  0  0
   -3.4547   -1.7875   -9.8757 C   0  0  0  0  0  0  0  0  0  0  0  0
   -4.7919   -1.9385  -10.2402 C   0  0  0  0  0  0  0  0  0  0  0  0
   -5.1904   -1.7089  -11.5405 C   0  0  0  0  0  0  0  0  0  0  0  0
   -4.2781   -1.3126  -12.5118 C   0  0  0  0  0  0  0  0  0  0  0  0
   -4.7307   -1.0586  -13.9171 C   0  0  0  0  0  0  0  0  0  0  0  0
   -2.9493   -1.1582  -12.1398 C   0  0  0  0  0  0  0  0  0  0  0  0
   -2.5344   -1.3973  -10.8441 C   0  0  0  0  0  0  0  0  0  0  0  0
   -3.9387   -4.3657   -8.5098 C   0  0  0  0  0  0  0  0  0  0  0  0
   -3.6640   -5.0390  -10.0769 S   0  0  0  0  0  0  0  0  0  0  0  0
   -4.4896   -6.5129   -9.6183 C   0  0  0  0  0  0  0  0  0  0  0  0
   -4.9373   -6.4838   -8.2992 C   0  0  0  0  0  0  0  0  0  0  0  0
   -5.4467   -7.5872   -7.6009 N   0  0  0  0  0  0  0  0  0  0  0  0
   -4.5613   -8.1948   -6.6964 C   0  0  0  0  0  0  0  0  0  0  0  0
   -4.9929   -8.6443   -5.4490 C   0  0  0  0  0  0  0  0  0  0  0  0
   -4.1064   -9.2535   -4.5861 C   0  0  0  0  0  0  0  0  0  0  0  0
   -2.7676   -9.4235   -4.9252 C   0  0  0  0  0  0  0  0  0  0  0  0
   -1.8229  -10.0880   -3.9711 C   0  0  0  0  0  0  0  0  0  0  0  0
   -2.3417   -8.9581   -6.1612 C   0  0  0  0  0  0  0  0  0  0  0  0
   -3.2201   -8.3517   -7.0388 C   0  0  0  0  0  0  0  0  0  0  0  0
   -6.8249   -7.8215   -7.5051 C   0  0  0  0  0  0  0  0  0  0  0  0
   -7.7438   -6.7765   -7.5152 C   0  0  0  0  0  0  0  0  0  0  0  0
   -9.0936   -7.0472   -7.4076 C   0  0  0  0  0  0  0  0  0  0  0  0
   -9.5632   -8.3482   -7.2717 C   0  0  0  0  0  0  0  0  0  0  0  0
  -11.0243   -8.6205   -7.0779 C   0  0  0  0  0  0  0  0  0  0  0  0
   -8.6396   -9.3864   -7.2867 C   0  0  0  0  0  0  0  0  0  0  0  0
   -7.2885   -9.1325   -7.4134 C   0  0  0  0  0  0  0  0  0  0  0  0
   -4.5940   -5.2676   -7.6831 C   0  0  0  0  0  0  0  0  0  0  0  0
   -4.8692   -4.6171   -6.1120 S   0  0  0  0  0  0  0  0  0  0  0  0
   -4.4724   -7.6780  -10.4315 C   0  0  0  0  0  0  0  0  0  0  0  0
   -5.5594   -8.4938  -10.5156 C   0  0  0  0  0  0  0  0  0  0  0  0
   -6.9520   -7.9811  -10.3798 C   0  0  0  0  0  0  0  0  0  0  0  0
   -7.2966   -6.8305  -10.2251 O   0  0  0  0  0  0  0  0  0  0  0  0
   -7.8026   -9.1474  -10.6410 C   0  0  0  0  0  0  0  0  0  0  0  0
   -7.0008  -10.2436  -10.9361 C   0  0  0  0  0  0  0  0  0  0  0  0
   -7.8853  -11.6961  -11.2313 S   0  0  0  0  0  0  0  0  0  0  0  0
   -9.3688  -10.8282  -10.9785 C   0  0  0  0  0  0  0  0  0  0  0  0
  -10.7283  -11.1881  -11.0072 C   0  0  0  0  0  0  0  0  0  0  0  0
  -11.5208  -10.1140  -10.7450 C   0  0  0  0  0  0  0  0  0  0  0  0
  -10.6503   -8.6468  -10.4570 S   0  0  0  0  0  0  0  0  0  0  0  0
   -9.1612   -9.4745  -10.6832 C   0  0  0  0  0  0  0  0  0  0  0  0
   -5.6105   -9.8918  -10.8997 C   0  0  0  0  0  0  0  0  0  0  0  0
   -4.5555  -10.7502  -11.0905 C   0  0  0  0  0  0  0  0  0  0  0  0
   -3.2046  -10.3817  -10.9593 C   0  0  0  0  0  0  0  0  0  0  0  0
   -2.0895  -10.1296  -10.8503 N   0  0  0  0  0  0  0  0  0  0  0  0
   -4.7670  -12.1030  -11.4209 C   0  0  0  0  0  0  0  0  0  0  0  0
   -4.9328  -13.2055  -11.6940 N   0  0  0  0  0  0  0  0  0  0  0  0
    8.9714    5.1076    6.0869 H   0  0  0  0  0  0  0  0  0  0  0  0
    7.7644    1.4823   11.0681 H   0  0  0  0  0  0  0  0  0  0  0  0
   12.4357    2.8893    9.7094 H   0  0  0  0  0  0  0  0  0  0  0  0
   12.4126    1.7849   12.9561 H   0  0  0  0  0  0  0  0  0  0  0  0
   13.4645   -0.1059   11.4027 H   0  0  0  0  0  0  0  0  0  0  0  0
   13.5821   -0.9224   13.8976 H   0  0  0  0  0  0  0  0  0  0  0  0
   11.1481   -1.6945   14.6306 H   0  0  0  0  0  0  0  0  0  0  0  0
    9.5320   -1.3529   12.5871 H   0  0  0  0  0  0  0  0  0  0  0  0
   11.6884   -2.0608   11.2263 H   0  0  0  0  0  0  0  0  0  0  0  0
   10.9989   -0.6101   10.4623 H   0  0  0  0  0  0  0  0  0  0  0  0
   10.0304    1.0262   13.6816 H   0  0  0  0  0  0  0  0  0  0  0  0
    7.1410    7.3850    7.0377 H   0  0  0  0  0  0  0  0  0  0  0  0
    8.8251    8.6698    8.2717 H   0  0  0  0  0  0  0  0  0  0  0  0
   12.1695    8.8277    7.5815 H   0  0  0  0  0  0  0  0  0  0  0  0
   10.9200    9.7791    8.3915 H   0  0  0  0  0  0  0  0  0  0  0  0
   11.6103   10.3305    6.8584 H   0  0  0  0  0  0  0  0  0  0  0  0
   11.4103    8.5513    4.8803 H   0  0  0  0  0  0  0  0  0  0  0  0
    9.7410    7.2445    3.6474 H   0  0  0  0  0  0  0  0  0  0  0  0
    7.0068    4.6640    2.6539 H   0  0  0  0  0  0  0  0  0  0  0  0
    6.6288    5.1247    0.2688 H   0  0  0  0  0  0  0  0  0  0  0  0
    5.5708    7.1272   -1.2880 H   0  0  0  0  0  0  0  0  0  0  0  0
    6.5742    8.5797   -1.1955 H   0  0  0  0  0  0  0  0  0  0  0  0
    7.3023    7.0163   -1.5828 H   0  0  0  0  0  0  0  0  0  0  0  0
    6.9771    9.3091    1.0201 H   0  0  0  0  0  0  0  0  0  0  0  0
    7.3335    8.8550    3.4069 H   0  0  0  0  0  0  0  0  0  0  0  0
    2.3483    0.8820    7.0334 H   0  0  0  0  0  0  0  0  0  0  0  0
    2.6892    0.4640    9.4277 H   0  0  0  0  0  0  0  0  0  0  0  0
    4.2919    2.1518   11.5446 H   0  0  0  0  0  0  0  0  0  0  0  0
    2.7295    1.3515   11.7169 H   0  0  0  0  0  0  0  0  0  0  0  0
    2.8749    3.0942   12.0016 H   0  0  0  0  0  0  0  0  0  0  0  0
    3.1554    4.6493   10.0991 H   0  0  0  0  0  0  0  0  0  0  0  0
    2.7925    5.0739    7.7095 H   0  0  0  0  0  0  0  0  0  0  0  0
    0.0428    2.3833    6.6460 H   0  0  0  0  0  0  0  0  0  0  0  0
   -1.6246    1.2062    5.2729 H   0  0  0  0  0  0  0  0  0  0  0  0
   -1.1856    0.5110    1.6264 H   0  0  0  0  0  0  0  0  0  0  0  0
   -1.5203   -0.5935    2.9626 H   0  0  0  0  0  0  0  0  0  0  0  0
   -2.4150    0.9171    2.8304 H   0  0  0  0  0  0  0  0  0  0  0  0
    1.0917    1.1882    1.9886 H   0  0  0  0  0  0  0  0  0  0  0  0
    2.7609    2.3460    3.3570 H   0  0  0  0  0  0  0  0  0  0  0  0
    1.7443    6.9190    5.4927 H   0  0  0  0  0  0  0  0  0  0  0  0
    1.4184    7.6341    7.8203 H   0  0  0  0  0  0  0  0  0  0  0  0
   -0.3671    6.6335    9.1888 H   0  0  0  0  0  0  0  0  0  0  0  0
   -1.9970    4.8650    9.4849 H   0  0  0  0  0  0  0  0  0  0  0  0
   -2.3517    3.7366    8.1685 H   0  0  0  0  0  0  0  0  0  0  0  0
   -3.7486    5.4687    7.0510 H   0  0  0  0  0  0  0  0  0  0  0  0
   -3.3959    6.6030    8.3551 H   0  0  0  0  0  0  0  0  0  0  0  0
   -4.3355    5.1437    8.6860 H   0  0  0  0  0  0  0  0  0  0  0  0
   -1.5430    4.2191    5.8815 H   0  0  0  0  0  0  0  0  0  0  0  0
   -6.6209   -1.7583   -7.3841 H   0  0  0  0  0  0  0  0  0  0  0  0
   -8.7510   -2.8567   -7.9841 H   0  0  0  0  0  0  0  0  0  0  0  0
  -10.0485   -4.0442   -6.2601 H   0  0  0  0  0  0  0  0  0  0  0  0
   -9.2609   -3.9933   -2.6650 H   0  0  0  0  0  0  0  0  0  0  0  0
  -10.4841   -4.4062   -3.8760 H   0  0  0  0  0  0  0  0  0  0  0  0
   -9.4449   -6.4639   -2.9428 H   0  0  0  0  0  0  0  0  0  0  0  0
   -9.0541   -6.3057   -4.6609 H   0  0  0  0  0  0  0  0  0  0  0  0
   -7.8480   -5.8955   -3.4443 H   0  0  0  0  0  0  0  0  0  0  0  0
   -7.1221   -3.0064   -3.3348 H   0  0  0  0  0  0  0  0  0  0  0  0
   -0.7871    3.4036   -2.1008 H   0  0  0  0  0  0  0  0  0  0  0  0
    0.5392    3.5530   -0.9189 H   0  0  0  0  0  0  0  0  0  0  0  0
   -0.2333    5.8503   -0.3722 H   0  0  0  0  0  0  0  0  0  0  0  0
    0.0335    5.6979   -2.1086 H   0  0  0  0  0  0  0  0  0  0  0  0
   -1.6119    5.6633   -1.4616 H   0  0  0  0  0  0  0  0  0  0  0  0
   -1.2792   -0.0522   -2.7258 H   0  0  0  0  0  0  0  0  0  0  0  0
   -0.7202    1.3459   -1.8039 H   0  0  0  0  0  0  0  0  0  0  0  0
   -1.4054    1.1617   -4.7876 H   0  0  0  0  0  0  0  0  0  0  0  0
    0.1456    1.5848   -4.0691 H   0  0  0  0  0  0  0  0  0  0  0  0
   -1.2076    2.7220   -4.0004 H   0  0  0  0  0  0  0  0  0  0  0  0
   -2.3510    0.4872   -8.7868 H   0  0  0  0  0  0  0  0  0  0  0  0
   -0.3416    1.5226   -7.8278 H   0  0  0  0  0  0  0  0  0  0  0  0
    1.8248   -0.0322   -5.3518 H   0  0  0  0  0  0  0  0  0  0  0  0
    2.4619    0.0869   -6.9872 H   0  0  0  0  0  0  0  0  0  0  0  0
    1.5331    1.4267   -6.3180 H   0  0  0  0  0  0  0  0  0  0  0  0
    0.7663   -2.2151   -6.0979 H   0  0  0  0  0  0  0  0  0  0  0  0
   -1.2329   -3.2583   -7.0615 H   0  0  0  0  0  0  0  0  0  0  0  0
   -5.5179   -2.2434   -9.5005 H   0  0  0  0  0  0  0  0  0  0  0  0
   -6.2296   -1.8374  -11.8065 H   0  0  0  0  0  0  0  0  0  0  0  0
   -5.3787   -0.1828  -13.9537 H   0  0  0  0  0  0  0  0  0  0  0  0
   -5.2991   -1.9077  -14.2934 H   0  0  0  0  0  0  0  0  0  0  0  0
   -3.8824   -0.8867  -14.5745 H   0  0  0  0  0  0  0  0  0  0  0  0
   -2.2195   -0.8591  -12.8784 H   0  0  0  0  0  0  0  0  0  0  0  0
   -1.4923   -1.2934  -10.5814 H   0  0  0  0  0  0  0  0  0  0  0  0
   -6.0240   -8.5072   -5.1592 H   0  0  0  0  0  0  0  0  0  0  0  0
   -4.4574   -9.5966   -3.6233 H   0  0  0  0  0  0  0  0  0  0  0  0
   -1.7755   -9.5332   -3.0346 H   0  0  0  0  0  0  0  0  0  0  0  0
   -2.1626  -11.0973   -3.7416 H   0  0  0  0  0  0  0  0  0  0  0  0
   -0.8225  -10.1463   -4.3918 H   0  0  0  0  0  0  0  0  0  0  0  0
   -1.3081   -9.0765   -6.4521 H   0  0  0  0  0  0  0  0  0  0  0  0
   -2.8643   -8.0110   -7.9994 H   0  0  0  0  0  0  0  0  0  0  0  0
   -7.4028   -5.7569   -7.6057 H   0  0  0  0  0  0  0  0  0  0  0  0
   -9.7969   -6.2283   -7.4232 H   0  0  0  0  0  0  0  0  0  0  0  0
  -11.2821   -9.6235   -7.4112 H   0  0  0  0  0  0  0  0  0  0  0  0
  -11.2772   -8.5426   -6.0195 H   0  0  0  0  0  0  0  0  0  0  0  0
  -11.6297   -7.8992   -7.6219 H   0  0  0  0  0  0  0  0  0  0  0  0
   -8.9819  -10.4089   -7.2064 H   0  0  0  0  0  0  0  0  0  0  0  0
   -6.5776   -9.9467   -7.4305 H   0  0  0  0  0  0  0  0  0  0  0  0
   -3.5407   -7.9324  -10.9205 H   0  0  0  0  0  0  0  0  0  0  0  0
  -11.0920  -12.1778  -11.2108 H   0  0  0  0  0  0  0  0  0  0  0  0
  -12.5920  -10.0929  -10.7054 H   0  0  0  0  0  0  0  0  0  0  0  0
  1  2  2  0  0  0  0
  2  3  1  0  0  0  0
  3  4  2  0  0  0  0
  3  5  1  0  0  0  0
  5  6  2  0  0  0  0
  6  7  1  0  0  0  0
  7  8  2  0  0  0  0
  8  9  1  0  0  0  0
  9 10  2  0  0  0  0
 10 11  1  0  0  0  0
 11 12  2  0  0  0  0
 12 13  1  0  0  0  0
 13 14  3  0  0  0  0
 12 15  1  0  0  0  0
 15 16  3  0  0  0  0
  8 17  1  0  0  0  0
 17 18  1  0  0  0  0
 18 19  1  0  0  0  0
 19 20  2  0  0  0  0
 20 21  1  0  0  0  0
 21 22  1  0  0  0  0
 21 23  1  0  0  0  0
  1 24  1  0  0  0  0
 24 25  2  0  0  0  0
 25 26  1  0  0  0  0
 26 27  1  0  0  0  0
 27 28  2  0  0  0  0
 28 29  1  0  0  0  0
 29 30  2  0  0  0  0
 30 31  1  0  0  0  0
 30 32  1  0  0  0  0
 32 33  2  0  0  0  0
 26 34  1  0  0  0  0
 34 35  2  0  0  0  0
 35 36  1  0  0  0  0
 36 37  2  0  0  0  0
 37 38  1  0  0  0  0
 37 39  1  0  0  0  0
 39 40  2  0  0  0  0
 25 41  1  0  0  0  0
 41 42  1  0  0  0  0
 42 43  1  0  0  0  0
 43 44  2  0  0  0  0
 44 45  1  0  0  0  0
 45 46  1  0  0  0  0
 46 47  2  0  0  0  0
 47 48  1  0  0  0  0
 48 49  2  0  0  0  0
 49 50  1  0  0  0  0
 49 51  1  0  0  0  0
 51 52  2  0  0  0  0
 45 53  1  0  0  0  0
 53 54  2  0  0  0  0
 54 55  1  0  0  0  0
 55 56  2  0  0  0  0
 56 57  1  0  0  0  0
 56 58  1  0  0  0  0
 58 59  2  0  0  0  0
 44 60  1  0  0  0  0
 60 61  1  0  0  0  0
 43 62  1  0  0  0  0
 62 63  2  0  0  0  0
 63 64  1  0  0  0  0
 64 65  2  0  0  0  0
 65 66  1  0  0  0  0
 66 67  2  0  0  0  0
 67 68  1  0  0  0  0
 68 69  1  0  0  0  0
 69 70  1  0  0  0  0
 68 71  2  0  0  0  0
 63 72  1  0  0  0  0
 72 73  1  0  0  0  0
 73 74  1  0  0  0  0
 74 75  1  0  0  0  0
 75 76  1  0  0  0  0
 76 77  1  0  0  0  0
 77 78  2  0  0  0  0
 78 79  1  0  0  0  0
 79 80  1  0  0  0  0
 77 81  1  0  0  0  0
 81 82  1  0  0  0  0
 82 83  1  0  0  0  0
 83 84  1  0  0  0  0
 84 85  1  0  0  0  0
 85 86  1  0  0  0  0
 86 87  2  0  0  0  0
 87 88  1  0  0  0  0
 88 89  2  0  0  0  0
 89 90  1  0  0  0  0
 90 91  1  0  0  0  0
 91 92  1  0  0  0  0
 90 93  2  0  0  0  0
 85 94  2  0  0  0  0
 94 95  1  0  0  0  0
 95 96  1  0  0  0  0
 96 97  1  0  0  0  0
 97 98  1  0  0  0  0
 98 99  1  0  0  0  0
 99100  1  0  0  0  0
100101  1  0  0  0  0
101102  1  0  0  0  0
102103  1  0  0  0  0
103104  1  0  0  0  0
101105  1  0  0  0  0
105106  1  0  0  0  0
 98107  1  0  0  0  0
107108  1  0  0  0  0
 94109  1  0  0  0  0
109110  2  0  0  0  0
110111  1  0  0  0  0
111112  1  0  0  0  0
112113  2  0  0  0  0
113114  1  0  0  0  0
114115  2  0  0  0  0
115116  1  0  0  0  0
115117  1  0  0  0  0
117118  2  0  0  0  0
111119  1  0  0  0  0
119120  2  0  0  0  0
120121  1  0  0  0  0
121122  2  0  0  0  0
122123  1  0  0  0  0
122124  1  0  0  0  0
124125  2  0  0  0  0
110126  1  0  0  0  0
126127  1  0  0  0  0
127128  1  0  0  0  0
128129  2  0  0  0  0
129130  1  0  0  0  0
130131  1  0  0  0  0
131132  2  0  0  0  0
132133  1  0  0  0  0
133134  2  0  0  0  0
134135  1  0  0  0  0
134136  1  0  0  0  0
136137  2  0  0  0  0
130138  1  0  0  0  0
138139  2  0  0  0  0
139140  1  0  0  0  0
140141  2  0  0  0  0
141142  1  0  0  0  0
141143  1  0  0  0  0
143144  2  0  0  0  0
129145  1  0  0  0  0
145146  1  0  0  0  0
128147  1  0  0  0  0
147148  2  0  0  0  0
148149  1  0  0  0  0
149150  2  0  0  0  0
149151  1  0  0  0  0
151152  2  0  0  0  0
152153  1  0  0  0  0
153154  1  0  0  0  0
154155  1  0  0  0  0
155156  2  0  0  0  0
156157  1  0  0  0  0
157158  1  0  0  0  0
152159  1  0  0  0  0
159160  2  0  0  0  0
160161  1  0  0  0  0
161162  3  0  0  0  0
160163  1  0  0  0  0
163164  3  0  0  0  0
 11  2  1  0  0  0  0
 23 17  1  0  0  0  0
 61 24  1  0  0  0  0
104 62  1  0  0  0  0
146109  1  0  0  0  0
159148  1  0  0  0  0
 10  5  1  0  0  0  0
 22 18  1  0  0  0  0
 33 27  1  0  0  0  0
 40 34  1  0  0  0  0
 60 41  2  0  0  0  0
 71 64  1  0  0  0  0
103 72  2  0  0  0  0
118112  1  0  0  0  0
125119  1  0  0  0  0
145126  2  0  0  0  0
158151  1  0  0  0  0
 23  7  1  0  0  0  0
 52 46  1  0  0  0  0
 59 53  1  0  0  0  0
102 74  2  0  0  0  0
137131  1  0  0  0  0
144138  1  0  0  0  0
158154  2  0  0  0  0
100 75  2  0  0  0  0
 80 76  2  0  0  0  0
 99 81  2  0  0  0  0
 97 82  2  0  0  0  0
 96 84  2  0  0  0  0
 93 86  1  0  0  0  0
  1165  1  0  0  0  0
  6166  1  0  0  0  0
  9167  1  0  0  0  0
 17168  1  0  0  0  0
 18169  1  0  0  0  0
 19170  1  0  0  0  0
 20171  1  0  0  0  0
 21172  1  0  0  0  0
 22173  1  0  0  0  0
 22174  1  0  0  0  0
 23175  1  0  0  0  0
 28176  1  0  0  0  0
 29177  1  0  0  0  0
 31178  1  0  0  0  0
 31179  1  0  0  0  0
 31180  1  0  0  0  0
 32181  1  0  0  0  0
 33182  1  0  0  0  0
 35183  1  0  0  0  0
 36184  1  0  0  0  0
 38185  1  0  0  0  0
 38186  1  0  0  0  0
 38187  1  0  0  0  0
 39188  1  0  0  0  0
 40189  1  0  0  0  0
 47190  1  0  0  0  0
 48191  1  0  0  0  0
 50192  1  0  0  0  0
 50193  1  0  0  0  0
 50194  1  0  0  0  0
 51195  1  0  0  0  0
 52196  1  0  0  0  0
 54197  1  0  0  0  0
 55198  1  0  0  0  0
 57199  1  0  0  0  0
 57200  1  0  0  0  0
 57201  1  0  0  0  0
 58202  1  0  0  0  0
 59203  1  0  0  0  0
 65204  1  0  0  0  0
 66205  1  0  0  0  0
 67206  1  0  0  0  0
 69207  1  0  0  0  0
 69208  1  0  0  0  0
 70209  1  0  0  0  0
 70210  1  0  0  0  0
 70211  1  0  0  0  0
 71212  1  0  0  0  0
 87213  1  0  0  0  0
 88214  1  0  0  0  0
 89215  1  0  0  0  0
 91216  1  0  0  0  0
 91217  1  0  0  0  0
 92218  1  0  0  0  0
 92219  1  0  0  0  0
 92220  1  0  0  0  0
 93221  1  0  0  0  0
105222  1  0  0  0  0
105223  1  0  0  0  0
106224  1  0  0  0  0
106225  1  0  0  0  0
106226  1  0  0  0  0
107227  1  0  0  0  0
107228  1  0  0  0  0
108229  1  0  0  0  0
108230  1  0  0  0  0
108231  1  0  0  0  0
113232  1  0  0  0  0
114233  1  0  0  0  0
116234  1  0  0  0  0
116235  1  0  0  0  0
116236  1  0  0  0  0
117237  1  0  0  0  0
118238  1  0  0  0  0
120239  1  0  0  0  0
121240  1  0  0  0  0
123241  1  0  0  0  0
123242  1  0  0  0  0
123243  1  0  0  0  0
124244  1  0  0  0  0
125245  1  0  0  0  0
132246  1  0  0  0  0
133247  1  0  0  0  0
135248  1  0  0  0  0
135249  1  0  0  0  0
135250  1  0  0  0  0
136251  1  0  0  0  0
137252  1  0  0  0  0
139253  1  0  0  0  0
140254  1  0  0  0  0
142255  1  0  0  0  0
142256  1  0  0  0  0
142257  1  0  0  0  0
143258  1  0  0  0  0
144259  1  0  0  0  0
147260  1  0  0  0  0
155261  1  0  0  0  0
156262  1  0  0  0  0
M  END
