259

C         -3.32780        7.75090        6.13450
C         -3.78720        8.90180        5.53230
C         -4.92310        9.00510        4.61580
O         -5.62080        8.10270        4.18190
C         -5.09300       10.44190        4.32890
C         -6.04070       11.02440        3.49130
C         -5.94310       12.39260        3.40350
C         -4.97810       13.12730        4.10310
C         -4.03980       12.56420        4.93620
C         -4.11770       11.17240        5.03530
C         -3.28110       10.22940        5.77980
C         -2.18720       10.57280        6.53950
C         -1.77810       11.89540        6.79890
N         -1.39090       12.94230        7.07240
C         -1.29110        9.67160        7.14440
N         -0.48760        9.01480        7.64060
C         -5.44890       14.44250        3.53240
C         -4.59070       15.04770        2.40160
C         -5.51960       16.03200        1.72820
C         -6.43250       15.33530        1.06360
C         -6.13600       13.86840        1.27680
C         -4.60510       13.91890        1.36270
C         -6.52440       13.62250        2.75030
C         -3.67720        6.42040        5.91900
C         -3.06860        5.34180        6.61290
N         -2.27090        5.45820        7.71910
C         -1.24880        4.50910        7.91640
C         -1.05490        3.92230        9.16220
C         -0.05240        2.98850        9.33680
C          0.77230        2.61500        8.28330
C          1.86240        1.60540        8.47010
C          0.57470        3.21320        7.04350
C         -0.41870        4.15200        6.85680
C         -2.50680        6.41560        8.72300
C         -1.43520        6.98000        9.41070
C         -1.66620        7.91660       10.39780
C         -2.95690        8.31990       10.72000
C         -3.18310        9.36360       11.76990
C         -4.01970        7.73780       10.03930
C         -3.80550        6.79040        9.05830
C         -3.39430        4.11540        6.00940
S         -2.92870        2.46720        6.28970
C         -3.96420        1.94030        4.97200
C         -4.59750        2.99340        4.32850
N         -5.39300        2.88870        3.20100
C         -6.47530        3.77400        3.06560
C         -7.24650        4.11260        4.17400
C         -8.27990        5.01780        4.04960
C         -8.57790        5.60260        2.82530
C         -9.67280        6.61840        2.71420
C         -7.81660        5.24310        1.72070
C         -6.77530        4.34370        1.83250
C         -5.10040        1.96710        2.18910
C         -3.78340        1.65870        1.85680
C         -3.51130        0.67950        0.92030
C         -4.53300       -0.00600        0.27780
C         -4.24560       -1.09370       -0.71170
C         -5.84460        0.35560        0.56580
C         -6.13050        1.32750        1.50170
C         -4.27790        4.22910        4.94330
S         -4.75410        5.85910        4.63560
C         -4.00350        0.56530        4.56770
C         -5.11540       -0.18410        4.23670
C         -6.47510        0.19370        4.61390
C         -7.56730       -0.16540        3.82840
C         -8.84130        0.22910        4.19050
C         -9.04650        0.97070        5.33950
C         -7.97450        1.30900        6.15640
C         -8.19850        2.05480        7.44140
C         -8.55580        1.08350        8.56780
C         -6.70030        0.91080        5.78770
C         -4.74270       -1.34870        3.52600
S         -5.65540       -2.58650        2.69820
C         -4.17790       -3.25770        2.09680
C         -3.74920       -4.19410        1.13930
C         -4.46060       -4.95510        0.18480
C         -3.73650       -5.58350       -0.88880
N         -4.53920       -6.16490       -1.76580
S         -6.07070       -5.95440       -1.28200
N         -5.77020       -5.10150        0.06230
C         -2.32490       -5.54350       -0.88070
C         -1.34960       -6.05880       -1.75500
S         -1.24720       -6.79470       -3.32060
C          0.49450       -6.69340       -3.22890
C          1.50810       -6.92290       -4.18000
C          1.22990       -7.45640       -5.51700
C          1.83080       -8.63320       -5.95250
C          1.53030       -9.13570       -7.20470
C          0.62250       -8.48230       -8.01870
C         -0.00200       -7.31720       -7.59030
C         -1.04460       -6.64260       -8.43400
C         -2.43980       -7.12150       -8.02740
C          0.31030       -6.81370       -6.33680
C          2.73970       -6.51260       -3.70650
S          2.67110       -6.02480       -2.01320
C          0.95220       -6.16610       -2.02240
C         -0.10260       -5.79080       -1.18400
N         -0.26210       -5.11910       -0.00020
C         -1.61810       -4.91560        0.17940
C         -2.33200       -4.11060        1.09930
N         -1.91940       -3.12270        1.97380
C         -3.03950       -2.59830        2.56360
C         -3.36540       -1.49990        3.37020
S         -2.49470       -0.21690        4.12700
C         -0.66870       -2.39850        2.00970
C          0.04390       -2.53780        3.35390
C          0.76760       -5.16190        1.01370
C          1.16790       -6.60060        1.33860
C          3.93850       -6.25800       -4.44100
C          4.74300       -5.12460       -4.34450
N          4.49620       -4.00000       -3.57440
C          5.61190       -3.26630       -3.12260
C          5.66480       -1.88570       -3.28390
C          6.79390       -1.19020       -2.90340
C          7.89250       -1.84530       -2.35930
C          9.14080       -1.09130       -2.02200
C          7.81770       -3.21940       -2.17350
C          6.69130       -3.92680       -2.54460
C          3.20680       -3.50780       -3.35840
C          2.90820       -2.85950       -2.16000
C          1.61420       -2.46800       -1.88130
C          0.58090       -2.70880       -2.77710
C         -0.83480       -2.33980       -2.45510
C          0.89510       -3.30680       -3.99270
C          2.18580       -3.69230       -4.29150
C          5.85990       -5.21580       -5.20910
S          7.18300       -4.15740       -5.54160
C          7.79240       -5.29020       -6.75530
C          6.90470       -6.38770       -6.94830
N          7.01300       -7.33580       -7.92250
C          7.54420       -7.06900       -9.20080
C          8.24800       -8.06560       -9.87090
C          8.76490       -7.81930      -11.12710
C          8.60470       -6.58240      -11.74010
C          9.21250       -6.31800      -13.08270
C          7.88090       -5.60190      -11.07090
C          7.34480       -5.83840       -9.82110
C          6.38110       -8.58370       -7.72760
C          5.52110       -9.09380       -8.69360
C          4.89310      -10.30580       -8.48640
C          5.10570      -11.03400       -7.32230
C          4.39790      -12.33150       -7.08160
C          5.98110      -10.52220       -6.37080
C          6.61650       -9.31250       -6.56550
C          5.86280       -6.35220       -6.00790
S          4.49550       -7.36840       -5.68260
C          9.04200       -5.20750       -7.35290
C         10.01470       -4.22670       -7.27910
C          9.89040       -2.93160       -6.60140
O          8.96010       -2.51780       -5.93230
C         11.13250       -2.21070       -6.91550
C         11.96240       -3.03430       -7.74160
C         13.13410       -2.43990       -8.08520
S         13.25460       -0.85390       -7.40550
C         11.68710       -1.00100       -6.63950
Cl        11.04510        0.25580       -5.69900
C         11.28840       -4.30460       -7.95190
C         11.83400       -5.35590       -8.65290
C         13.07840       -5.23300       -9.29910
N         14.08720       -5.14780       -9.84190
C         11.28380       -6.64130       -8.78170
N         10.91530       -7.72430       -8.90380
H         -2.55230        7.88680        6.87740
H         -6.76590       10.41890        2.97030
H         -3.30480       13.14510        5.46760
H         -5.78330       15.18330        4.25630
H         -3.62230       15.42580        2.71780
H         -5.45260       17.09760        1.84620
H         -7.28050       15.70270        0.51560
H         -6.57520       13.17210        0.56730
H         -4.14950       14.22030        0.42080
H         -4.14930       12.99270        1.70770
H         -7.57620       13.81830        2.95150
H         -1.69610        4.19700        9.98660
H          0.08450        2.53640       10.30840
H          1.76590        1.10020        9.42760
H          1.83490        0.86220        7.67540
H          2.83630        2.09380        8.43600
H          1.21220        2.94220        6.21470
H         -0.55560        4.62020        5.89300
H         -0.42700        6.69280        9.15810
H         -0.82660        8.35640       10.91450
H         -2.65470        9.10580       12.68630
H         -4.24150        9.47110       11.99340
H         -2.80240       10.32590       11.42800
H         -5.03260        8.02350       10.28420
H         -4.64300        6.34300        8.54320
H         -7.03100        3.65990        5.12980
H         -8.86460        5.27750        4.92020
H         -9.99490        6.73590        1.68240
H         -9.31230        7.58300        3.07240
H        -10.52950        6.33470        3.32250
H         -8.03060        5.68560        0.75840
H         -6.18080        4.08690        0.96790
H         -2.97310        2.18450        2.34130
H         -2.48160        0.44560        0.68640
H         -4.93040       -1.92810       -0.57170
H         -3.22660       -1.45940       -0.60850
H         -4.37320       -0.72400       -1.72950
H         -6.65480       -0.15060        0.06130
H         -7.15390        1.58590        1.72780
H         -7.41640       -0.73630        2.92630
H         -9.68090       -0.04240        3.56760
H        -10.04440        1.28390        5.61040
H         -7.29530        2.60490        7.71560
H         -9.01130        2.77300        7.31340
H         -8.71940        1.62210        9.49840
H         -9.46080        0.53340        8.32030
H         -7.75100        0.36710        8.71720
H         -5.86580        1.15270        6.43050
H          2.51210       -9.16150       -5.30200
H          2.00570      -10.04400       -7.54320
H          0.38900       -8.88300       -8.99470
H         -0.98440       -5.56010       -8.30330
H         -0.87600       -6.87000       -9.48840
H         -3.20140       -6.62960       -8.62800
H         -2.62510       -6.90040       -6.97870
H         -2.52580       -8.19650       -8.16910
H         -0.16090       -5.90490       -5.99130
H         -0.89510       -1.33710        1.85100
H         -0.04100       -2.73630        1.18480
H         -0.54320       -2.06700        4.13760
H          1.01210       -2.04730        3.30730
H          0.19280       -3.58050        3.62500
H          1.64220       -4.60750        0.65590
H          0.38240       -4.70140        1.91860
H          0.29560       -7.17350        1.64630
H          1.89120       -6.60150        2.14970
H          1.61790       -7.08460        0.47670
H          4.82540       -1.36910       -3.72620
H          6.83240       -0.12090       -3.05190
H          9.70310       -1.59260       -1.23750
H          9.77410       -1.03210       -2.90760
H          8.91210       -0.07670       -1.70340
H          8.65580       -3.74600       -1.74010
H          6.64480       -4.99720       -2.40240
H          3.69550       -2.69410       -1.43950
H          1.40290       -1.97840       -0.94040
H         -1.46710       -3.22780       -2.44150
H         -1.23490       -1.66050       -3.20660
H         -0.89720       -1.85610       -1.48290
H          0.11040       -3.47450       -4.71630
H          2.40630       -4.15030       -5.24460
H          8.39830       -9.02320       -9.39790
H          9.32060       -8.59540      -11.63080
H         10.29710       -6.25460      -12.99340
H          8.84710       -5.38360      -13.50110
H          8.98440       -7.12730      -13.77370
H          7.72630       -4.63950      -11.53720
H          6.77630       -5.06920       -9.31930
H          5.34230       -8.53180       -9.59820
H          4.22230      -10.68810       -9.24200
H          5.07400      -13.06550       -6.64810
H          3.57540      -12.18260       -6.38110
H          3.99010      -12.73170       -8.00650
H          6.16960      -11.08170       -5.46630
H          7.30060       -8.92600       -5.82450
H          9.29550       -6.05990       -7.97060
H         13.93830       -2.81180       -8.68800
