
  xtb     02232201523D
 energy: -347.526619109905 gnorm: 0.000598213654 xtb: 6.4.1 (unknown)
212235  0     0  0            999 V2000
   -1.0825   -6.0069    7.6473 C   0  0  0  0  0  0  0  0  0  0  0  0
   -1.0081   -7.3579    7.4213 C   0  0  0  0  0  0  0  0  0  0  0  0
   -1.8543   -8.2877    8.2029 C   0  0  0  0  0  0  0  0  0  0  0  0
   -2.5524   -8.0160    9.1562 O   0  0  0  0  0  0  0  0  0  0  0  0
   -1.7114   -9.6013    7.5401 C   0  0  0  0  0  0  0  0  0  0  0  0
   -2.3564  -10.7896    7.8750 C   0  0  0  0  0  0  0  0  0  0  0  0
   -1.9956  -11.8637    7.0965 C   0  0  0  0  0  0  0  0  0  0  0  0
   -1.0542  -11.7679    6.0640 C   0  0  0  0  0  0  0  0  0  0  0  0
   -0.4086  -10.6029    5.7240 C   0  0  0  0  0  0  0  0  0  0  0  0
   -0.7719   -9.4969    6.4959 C   0  0  0  0  0  0  0  0  0  0  0  0
   -0.2696   -8.1239    6.4601 C   0  0  0  0  0  0  0  0  0  0  0  0
    0.8667   -7.7014    5.8029 C   0  0  0  0  0  0  0  0  0  0  0  0
    1.5262   -8.4348    4.8020 C   0  0  0  0  0  0  0  0  0  0  0  0
    2.0730   -8.9562    3.9357 N   0  0  0  0  0  0  0  0  0  0  0  0
    1.5388   -6.5094    6.1166 C   0  0  0  0  0  0  0  0  0  0  0  0
    2.1604   -5.5745    6.3667 N   0  0  0  0  0  0  0  0  0  0  0  0
   -1.1574  -13.2351    5.7241 C   0  0  0  0  0  0  0  0  0  0  0  0
   -1.9771  -13.6063    4.4708 C   0  0  0  0  0  0  0  0  0  0  0  0
   -2.3001  -15.0697    4.6677 C   0  0  0  0  0  0  0  0  0  0  0  0
   -3.1965  -15.1574    5.6421 C   0  0  0  0  0  0  0  0  0  0  0  0
   -3.4938  -13.7547    6.1208 C   0  0  0  0  0  0  0  0  0  0  0  0
   -3.3403  -12.9869    4.8020 C   0  0  0  0  0  0  0  0  0  0  0  0
   -2.2111  -13.3414    6.8731 C   0  0  0  0  0  0  0  0  0  0  0  0
   -0.7537   -4.9302    6.8102 C   0  0  0  0  0  0  0  0  0  0  0  0
   -0.6389   -4.8194    5.4113 C   0  0  0  0  0  0  0  0  0  0  0  0
   -0.9704   -5.7818    4.4891 N   0  0  0  0  0  0  0  0  0  0  0  0
   -0.4349   -5.7016    3.1796 C   0  0  0  0  0  0  0  0  0  0  0  0
   -1.2803   -5.7773    2.0781 C   0  0  0  0  0  0  0  0  0  0  0  0
   -0.7595   -5.7322    0.7995 C   0  0  0  0  0  0  0  0  0  0  0  0
    0.6070   -5.6087    0.5865 C   0  0  0  0  0  0  0  0  0  0  0  0
    1.1803   -5.5673   -0.7957 C   0  0  0  0  0  0  0  0  0  0  0  0
    1.4431   -5.5247    1.6944 C   0  0  0  0  0  0  0  0  0  0  0  0
    0.9360   -5.5689    2.9769 C   0  0  0  0  0  0  0  0  0  0  0  0
   -2.0088   -6.7029    4.7017 C   0  0  0  0  0  0  0  0  0  0  0  0
   -3.1190   -6.3883    5.4809 C   0  0  0  0  0  0  0  0  0  0  0  0
   -4.1127   -7.3233    5.6857 C   0  0  0  0  0  0  0  0  0  0  0  0
   -4.0468   -8.5851    5.1057 C   0  0  0  0  0  0  0  0  0  0  0  0
   -5.1129   -9.6026    5.3657 C   0  0  0  0  0  0  0  0  0  0  0  0
   -2.9584   -8.8766    4.2924 C   0  0  0  0  0  0  0  0  0  0  0  0
   -1.9466   -7.9581    4.0973 C   0  0  0  0  0  0  0  0  0  0  0  0
   -0.1930   -3.5284    5.0531 C   0  0  0  0  0  0  0  0  0  0  0  0
    0.1263   -2.7488    3.5412 S   0  0  0  0  0  0  0  0  0  0  0  0
    0.6133   -1.2869    4.3804 C   0  0  0  0  0  0  0  0  0  0  0  0
    0.4532   -1.3725    5.7559 C   0  0  0  0  0  0  0  0  0  0  0  0
    0.6652   -0.3393    6.6471 N   0  0  0  0  0  0  0  0  0  0  0  0
    1.1467   -0.6130    7.9373 C   0  0  0  0  0  0  0  0  0  0  0  0
    2.0491   -1.6496    8.1589 C   0  0  0  0  0  0  0  0  0  0  0  0
    2.5073   -1.9094    9.4345 C   0  0  0  0  0  0  0  0  0  0  0  0
    2.0902   -1.1471   10.5185 C   0  0  0  0  0  0  0  0  0  0  0  0
    2.5817   -1.4514   11.9006 C   0  0  0  0  0  0  0  0  0  0  0  0
    1.1918   -0.1126   10.2878 C   0  0  0  0  0  0  0  0  0  0  0  0
    0.7186    0.1529    9.0183 C   0  0  0  0  0  0  0  0  0  0  0  0
    0.4453    0.9869    6.2446 C   0  0  0  0  0  0  0  0  0  0  0  0
   -0.6473    1.3119    5.4457 C   0  0  0  0  0  0  0  0  0  0  0  0
   -0.8133    2.6031    4.9843 C   0  0  0  0  0  0  0  0  0  0  0  0
    0.0991    3.6012    5.2996 C   0  0  0  0  0  0  0  0  0  0  0  0
   -0.0290    4.9820    4.7327 C   0  0  0  0  0  0  0  0  0  0  0  0
    1.1549    3.2807    6.1458 C   0  0  0  0  0  0  0  0  0  0  0  0
    1.3255    1.9975    6.6228 C   0  0  0  0  0  0  0  0  0  0  0  0
   -0.0003   -2.6628    6.1219 C   0  0  0  0  0  0  0  0  0  0  0  0
   -0.4225   -3.3947    7.6207 S   0  0  0  0  0  0  0  0  0  0  0  0
    1.1277   -0.1727    3.6398 C   0  0  0  0  0  0  0  0  0  0  0  0
    2.2836    0.5367    3.8975 C   0  0  0  0  0  0  0  0  0  0  0  0
    3.3224    0.0905    4.8245 C   0  0  0  0  0  0  0  0  0  0  0  0
    4.0963    1.0088    5.5292 C   0  0  0  0  0  0  0  0  0  0  0  0
    5.0721    0.5639    6.4007 C   0  0  0  0  0  0  0  0  0  0  0  0
    5.2987   -0.7907    6.5695 C   0  0  0  0  0  0  0  0  0  0  0  0
    4.5617   -1.7230    5.8499 C   0  0  0  0  0  0  0  0  0  0  0  0
    4.8367   -3.1946    5.9714 C   0  0  0  0  0  0  0  0  0  0  0  0
    5.7463   -3.6657    4.8353 C   0  0  0  0  0  0  0  0  0  0  0  0
    3.5839   -1.2687    4.9788 C   0  0  0  0  0  0  0  0  0  0  0  0
    2.3724    1.6735    3.0624 C   0  0  0  0  0  0  0  0  0  0  0  0
    3.5408    2.9635    2.9207 S   0  0  0  0  0  0  0  0  0  0  0  0
    2.6369    3.6187    1.5962 C   0  0  0  0  0  0  0  0  0  0  0  0
    2.6897    4.6926    0.6876 C   0  0  0  0  0  0  0  0  0  0  0  0
    3.5452    5.8116    0.5852 C   0  0  0  0  0  0  0  0  0  0  0  0
    3.3071    6.7809   -0.4502 C   0  0  0  0  0  0  0  0  0  0  0  0
    4.1510    7.7986   -0.3926 N   0  0  0  0  0  0  0  0  0  0  0  0
    5.1605    7.5601    0.8509 S   0  0  0  0  0  0  0  0  0  0  0  0
    4.5603    6.1474    1.3654 N   0  0  0  0  0  0  0  0  0  0  0  0
    2.3107    6.5199   -1.4174 C   0  0  0  0  0  0  0  0  0  0  0  0
    2.0133    7.1375   -2.6435 C   0  0  0  0  0  0  0  0  0  0  0  0
    2.5262    8.5006   -3.5796 S   0  0  0  0  0  0  0  0  0  0  0  0
    1.4818    7.9698   -4.8754 C   0  0  0  0  0  0  0  0  0  0  0  0
    1.2533    8.4709   -6.1694 C   0  0  0  0  0  0  0  0  0  0  0  0
    1.9427    9.6554   -6.6920 C   0  0  0  0  0  0  0  0  0  0  0  0
    1.8450   10.8683   -6.0194 C   0  0  0  0  0  0  0  0  0  0  0  0
    2.5187   11.9750   -6.5013 C   0  0  0  0  0  0  0  0  0  0  0  0
    3.2959   11.8769   -7.6415 C   0  0  0  0  0  0  0  0  0  0  0  0
    3.4175   10.6676   -8.3149 C   0  0  0  0  0  0  0  0  0  0  0  0
    4.3067   10.5438   -9.5182 C   0  0  0  0  0  0  0  0  0  0  0  0
    5.7305   10.1781   -9.0938 C   0  0  0  0  0  0  0  0  0  0  0  0
    2.7401    9.5607   -7.8272 C   0  0  0  0  0  0  0  0  0  0  0  0
    0.3449    7.6898   -6.8617 C   0  0  0  0  0  0  0  0  0  0  0  0
   -0.2079    6.3134   -5.9083 S   0  0  0  0  0  0  0  0  0  0  0  0
    0.7746    6.8024   -4.5747 C   0  0  0  0  0  0  0  0  0  0  0  0
    1.0716    6.3309   -3.2913 C   0  0  0  0  0  0  0  0  0  0  0  0
    0.7507    5.2593   -2.4989 N   0  0  0  0  0  0  0  0  0  0  0  0
    1.4909    5.3612   -1.3365 C   0  0  0  0  0  0  0  0  0  0  0  0
    1.5897    4.5270   -0.1963 C   0  0  0  0  0  0  0  0  0  0  0  0
    0.8493    3.4271    0.2089 N   0  0  0  0  0  0  0  0  0  0  0  0
    1.4954    2.8780    1.2877 C   0  0  0  0  0  0  0  0  0  0  0  0
    1.3325    1.7784    2.1401 C   0  0  0  0  0  0  0  0  0  0  0  0
    0.1925    0.4946    2.3131 S   0  0  0  0  0  0  0  0  0  0  0  0
   -0.5754    3.2174    0.0676 C   0  0  0  0  0  0  0  0  0  0  0  0
   -1.3322    3.7849    1.2676 C   0  0  0  0  0  0  0  0  0  0  0  0
    0.0746    4.1117   -3.0618 C   0  0  0  0  0  0  0  0  0  0  0  0
   -1.4244    4.3539   -3.2397 C   0  0  0  0  0  0  0  0  0  0  0  0
   -0.2360    7.8677   -8.1450 C   0  0  0  0  0  0  0  0  0  0  0  0
   -1.1382    7.0129   -8.7463 C   0  0  0  0  0  0  0  0  0  0  0  0
   -1.5891    7.4335  -10.0021 C   0  0  0  0  0  0  0  0  0  0  0  0
   -2.6516    6.7385  -10.7262 C   0  0  0  0  0  0  0  0  0  0  0  0
   -3.7130    7.4489  -11.2835 C   0  0  0  0  0  0  0  0  0  0  0  0
   -4.7217    6.7857  -11.9550 C   0  0  0  0  0  0  0  0  0  0  0  0
   -4.6864    5.4050  -12.0782 C   0  0  0  0  0  0  0  0  0  0  0  0
   -3.6416    4.6913  -11.5150 C   0  0  0  0  0  0  0  0  0  0  0  0
   -2.6329    5.3507  -10.8376 C   0  0  0  0  0  0  0  0  0  0  0  0
   -1.0072    8.6351  -10.3946 C   0  0  0  0  0  0  0  0  0  0  0  0
    0.0531    9.2561   -9.1452 S   0  0  0  0  0  0  0  0  0  0  0  0
   -1.1423    9.3950  -11.5804 C   0  0  0  0  0  0  0  0  0  0  0  0
   -1.3876    8.9317  -12.8364 C   0  0  0  0  0  0  0  0  0  0  0  0
   -1.7642   10.0283  -14.1565 S   0  0  0  0  0  0  0  0  0  0  0  0
   -1.9059    8.6976  -15.2823 C   0  0  0  0  0  0  0  0  0  0  0  0
   -2.2525    8.9351  -16.5897 C   0  0  0  0  0  0  0  0  0  0  0  0
   -2.4935   10.2588  -17.0121 C   0  0  0  0  0  0  0  0  0  0  0  0
   -2.6929   11.3308  -17.3687 N   0  0  0  0  0  0  0  0  0  0  0  0
   -2.4093    7.9769  -17.6045 C   0  0  0  0  0  0  0  0  0  0  0  0
   -2.5623    7.2490  -18.4803 N   0  0  0  0  0  0  0  0  0  0  0  0
   -1.6137    7.5156  -14.6854 N   0  0  0  0  0  0  0  0  0  0  0  0
   -1.6342    6.2235  -15.3443 C   0  0  0  0  0  0  0  0  0  0  0  0
   -3.0428    5.6450  -15.3958 C   0  0  0  0  0  0  0  0  0  0  0  0
   -1.2924    7.5668  -13.3300 C   0  0  0  0  0  0  0  0  0  0  0  0
   -0.9167    6.5901  -12.7190 O   0  0  0  0  0  0  0  0  0  0  0  0
   -1.4998   -5.7318    8.6118 H   0  0  0  0  0  0  0  0  0  0  0  0
   -3.0583  -10.8268    8.6937 H   0  0  0  0  0  0  0  0  0  0  0  0
    0.3179  -10.5407    4.9304 H   0  0  0  0  0  0  0  0  0  0  0  0
   -0.2342  -13.8048    5.8126 H   0  0  0  0  0  0  0  0  0  0  0  0
   -1.5158  -13.3299    3.5263 H   0  0  0  0  0  0  0  0  0  0  0  0
   -1.8174  -15.8678    4.1348 H   0  0  0  0  0  0  0  0  0  0  0  0
   -3.6117  -16.0434    6.0856 H   0  0  0  0  0  0  0  0  0  0  0  0
   -4.4162  -13.6142    6.6784 H   0  0  0  0  0  0  0  0  0  0  0  0
   -4.1057  -13.2563    4.0755 H   0  0  0  0  0  0  0  0  0  0  0  0
   -3.3116  -11.9071    4.9258 H   0  0  0  0  0  0  0  0  0  0  0  0
   -1.9906  -13.9860    7.7221 H   0  0  0  0  0  0  0  0  0  0  0  0
   -2.3460   -5.8706    2.2288 H   0  0  0  0  0  0  0  0  0  0  0  0
   -1.4306   -5.7910   -0.0451 H   0  0  0  0  0  0  0  0  0  0  0  0
    1.8816   -6.3884   -0.9372 H   0  0  0  0  0  0  0  0  0  0  0  0
    0.3977   -5.6445   -1.5460 H   0  0  0  0  0  0  0  0  0  0  0  0
    1.7236   -4.6365   -0.9520 H   0  0  0  0  0  0  0  0  0  0  0  0
    2.5093   -5.4318    1.5516 H   0  0  0  0  0  0  0  0  0  0  0  0
    1.6032   -5.5040    3.8220 H   0  0  0  0  0  0  0  0  0  0  0  0
   -3.2069   -5.4075    5.9229 H   0  0  0  0  0  0  0  0  0  0  0  0
   -4.9589   -7.0648    6.3046 H   0  0  0  0  0  0  0  0  0  0  0  0
   -6.0521   -9.1213    5.6260 H   0  0  0  0  0  0  0  0  0  0  0  0
   -5.2683  -10.2367    4.4959 H   0  0  0  0  0  0  0  0  0  0  0  0
   -4.8180  -10.2385    6.2014 H   0  0  0  0  0  0  0  0  0  0  0  0
   -2.8900   -9.8410    3.8105 H   0  0  0  0  0  0  0  0  0  0  0  0
   -1.1008   -8.2094    3.4739 H   0  0  0  0  0  0  0  0  0  0  0  0
    2.3995   -2.2443    7.3309 H   0  0  0  0  0  0  0  0  0  0  0  0
    3.2064   -2.7183    9.5870 H   0  0  0  0  0  0  0  0  0  0  0  0
    3.6313   -1.7372   11.8828 H   0  0  0  0  0  0  0  0  0  0  0  0
    2.4602   -0.5923   12.5558 H   0  0  0  0  0  0  0  0  0  0  0  0
    2.0163   -2.2832   12.3221 H   0  0  0  0  0  0  0  0  0  0  0  0
    0.8493    0.4917   11.1156 H   0  0  0  0  0  0  0  0  0  0  0  0
    0.0133    0.9551    8.8574 H   0  0  0  0  0  0  0  0  0  0  0  0
   -1.3631    0.5471    5.1808 H   0  0  0  0  0  0  0  0  0  0  0  0
   -1.6720    2.8346    4.3698 H   0  0  0  0  0  0  0  0  0  0  0  0
    0.6809    5.1144    3.9145 H   0  0  0  0  0  0  0  0  0  0  0  0
   -1.0313    5.1563    4.3487 H   0  0  0  0  0  0  0  0  0  0  0  0
    0.1946    5.7321    5.4884 H   0  0  0  0  0  0  0  0  0  0  0  0
    1.8632    4.0481    6.4230 H   0  0  0  0  0  0  0  0  0  0  0  0
    2.1532    1.7603    7.2736 H   0  0  0  0  0  0  0  0  0  0  0  0
    3.9220    2.0661    5.4033 H   0  0  0  0  0  0  0  0  0  0  0  0
    5.6610    1.2810    6.9536 H   0  0  0  0  0  0  0  0  0  0  0  0
    6.0597   -1.1279    7.2584 H   0  0  0  0  0  0  0  0  0  0  0  0
    3.9027   -3.7589    5.9341 H   0  0  0  0  0  0  0  0  0  0  0  0
    5.3194   -3.4014    6.9283 H   0  0  0  0  0  0  0  0  0  0  0  0
    5.2822   -3.4685    3.8713 H   0  0  0  0  0  0  0  0  0  0  0  0
    6.6999   -3.1424    4.8684 H   0  0  0  0  0  0  0  0  0  0  0  0
    5.9313   -4.7340    4.9186 H   0  0  0  0  0  0  0  0  0  0  0  0
    3.0254   -1.9887    4.3982 H   0  0  0  0  0  0  0  0  0  0  0  0
    1.2347   10.9410   -5.1318 H   0  0  0  0  0  0  0  0  0  0  0  0
    2.4375   12.9190   -5.9832 H   0  0  0  0  0  0  0  0  0  0  0  0
    3.8177   12.7470   -8.0132 H   0  0  0  0  0  0  0  0  0  0  0  0
    4.3250   11.4898  -10.0628 H   0  0  0  0  0  0  0  0  0  0  0  0
    3.9192    9.7719  -10.1861 H   0  0  0  0  0  0  0  0  0  0  0  0
    6.1375   10.9429   -8.4362 H   0  0  0  0  0  0  0  0  0  0  0  0
    6.3758   10.0884   -9.9645 H   0  0  0  0  0  0  0  0  0  0  0  0
    5.7344    9.2311   -8.5588 H   0  0  0  0  0  0  0  0  0  0  0  0
    2.8391    8.6081   -8.3287 H   0  0  0  0  0  0  0  0  0  0  0  0
   -0.9293    3.7089   -0.8309 H   0  0  0  0  0  0  0  0  0  0  0  0
   -0.7556    2.1405   -0.0089 H   0  0  0  0  0  0  0  0  0  0  0  0
   -2.3982    3.6138    1.1429 H   0  0  0  0  0  0  0  0  0  0  0  0
   -1.0056    3.3039    2.1849 H   0  0  0  0  0  0  0  0  0  0  0  0
   -1.1548    4.8553    1.3519 H   0  0  0  0  0  0  0  0  0  0  0  0
    0.2737    3.2418   -2.4352 H   0  0  0  0  0  0  0  0  0  0  0  0
    0.5125    3.9167   -4.0477 H   0  0  0  0  0  0  0  0  0  0  0  0
   -1.9102    3.4332   -3.5502 H   0  0  0  0  0  0  0  0  0  0  0  0
   -1.8883    4.7036   -2.3200 H   0  0  0  0  0  0  0  0  0  0  0  0
   -1.5936    5.1067   -4.0045 H   0  0  0  0  0  0  0  0  0  0  0  0
   -1.4844    6.1127   -8.2686 H   0  0  0  0  0  0  0  0  0  0  0  0
   -3.7509    8.5236  -11.1755 H   0  0  0  0  0  0  0  0  0  0  0  0
   -5.5405    7.3459  -12.3829 H   0  0  0  0  0  0  0  0  0  0  0  0
   -5.4741    4.8892  -12.6078 H   0  0  0  0  0  0  0  0  0  0  0  0
   -3.6114    3.6156  -11.6078 H   0  0  0  0  0  0  0  0  0  0  0  0
   -1.8062    4.7972  -10.4206 H   0  0  0  0  0  0  0  0  0  0  0  0
   -1.0111   10.4657  -11.4691 H   0  0  0  0  0  0  0  0  0  0  0  0
   -1.2136    6.3215  -16.3464 H   0  0  0  0  0  0  0  0  0  0  0  0
   -0.9913    5.5759  -14.7413 H   0  0  0  0  0  0  0  0  0  0  0  0
   -3.0097    4.6619  -15.8557 H   0  0  0  0  0  0  0  0  0  0  0  0
   -3.4438    5.5508  -14.3886 H   0  0  0  0  0  0  0  0  0  0  0  0
   -3.7035    6.2755  -15.9861 H   0  0  0  0  0  0  0  0  0  0  0  0
  1  2  2  0  0  0  0
  2  3  1  0  0  0  0
  3  4  2  0  0  0  0
  3  5  1  0  0  0  0
  5  6  2  0  0  0  0
  6  7  1  0  0  0  0
  7  8  2  0  0  0  0
  8  9  1  0  0  0  0
  9 10  2  0  0  0  0
 10 11  1  0  0  0  0
 11 12  2  0  0  0  0
 12 13  1  0  0  0  0
 13 14  3  0  0  0  0
 12 15  1  0  0  0  0
 15 16  3  0  0  0  0
  8 17  1  0  0  0  0
 17 18  1  0  0  0  0
 18 19  1  0  0  0  0
 19 20  2  0  0  0  0
 20 21  1  0  0  0  0
 21 22  1  0  0  0  0
 21 23  1  0  0  0  0
  1 24  1  0  0  0  0
 24 25  2  0  0  0  0
 25 26  1  0  0  0  0
 26 27  1  0  0  0  0
 27 28  2  0  0  0  0
 28 29  1  0  0  0  0
 29 30  2  0  0  0  0
 30 31  1  0  0  0  0
 30 32  1  0  0  0  0
 32 33  2  0  0  0  0
 26 34  1  0  0  0  0
 34 35  2  0  0  0  0
 35 36  1  0  0  0  0
 36 37  2  0  0  0  0
 37 38  1  0  0  0  0
 37 39  1  0  0  0  0
 39 40  2  0  0  0  0
 25 41  1  0  0  0  0
 41 42  1  0  0  0  0
 42 43  1  0  0  0  0
 43 44  2  0  0  0  0
 44 45  1  0  0  0  0
 45 46  1  0  0  0  0
 46 47  2  0  0  0  0
 47 48  1  0  0  0  0
 48 49  2  0  0  0  0
 49 50  1  0  0  0  0
 49 51  1  0  0  0  0
 51 52  2  0  0  0  0
 45 53  1  0  0  0  0
 53 54  2  0  0  0  0
 54 55  1  0  0  0  0
 55 56  2  0  0  0  0
 56 57  1  0  0  0  0
 56 58  1  0  0  0  0
 58 59  2  0  0  0  0
 44 60  1  0  0  0  0
 60 61  1  0  0  0  0
 43 62  1  0  0  0  0
 62 63  2  0  0  0  0
 63 64  1  0  0  0  0
 64 65  2  0  0  0  0
 65 66  1  0  0  0  0
 66 67  2  0  0  0  0
 67 68  1  0  0  0  0
 68 69  1  0  0  0  0
 69 70  1  0  0  0  0
 68 71  2  0  0  0  0
 63 72  1  0  0  0  0
 72 73  1  0  0  0  0
 73 74  1  0  0  0  0
 74 75  1  0  0  0  0
 75 76  1  0  0  0  0
 76 77  1  0  0  0  0
 77 78  2  0  0  0  0
 78 79  1  0  0  0  0
 79 80  1  0  0  0  0
 77 81  1  0  0  0  0
 81 82  1  0  0  0  0
 82 83  1  0  0  0  0
 83 84  1  0  0  0  0
 84 85  1  0  0  0  0
 85 86  1  0  0  0  0
 86 87  2  0  0  0  0
 87 88  1  0  0  0  0
 88 89  2  0  0  0  0
 89 90  1  0  0  0  0
 90 91  1  0  0  0  0
 91 92  1  0  0  0  0
 90 93  2  0  0  0  0
 85 94  2  0  0  0  0
 94 95  1  0  0  0  0
 95 96  1  0  0  0  0
 96 97  1  0  0  0  0
 97 98  1  0  0  0  0
 98 99  1  0  0  0  0
 99100  1  0  0  0  0
100101  1  0  0  0  0
101102  1  0  0  0  0
102103  1  0  0  0  0
103104  1  0  0  0  0
101105  1  0  0  0  0
105106  1  0  0  0  0
 98107  1  0  0  0  0
107108  1  0  0  0  0
 94109  1  0  0  0  0
109110  2  0  0  0  0
110111  1  0  0  0  0
111112  1  0  0  0  0
112113  2  0  0  0  0
113114  1  0  0  0  0
114115  2  0  0  0  0
115116  1  0  0  0  0
116117  2  0  0  0  0
111118  2  0  0  0  0
118119  1  0  0  0  0
118120  1  0  0  0  0
120121  2  0  0  0  0
121122  1  0  0  0  0
122123  1  0  0  0  0
123124  2  0  0  0  0
124125  1  0  0  0  0
125126  3  0  0  0  0
124127  1  0  0  0  0
127128  3  0  0  0  0
123129  1  0  0  0  0
129130  1  0  0  0  0
130131  1  0  0  0  0
129132  1  0  0  0  0
132133  2  0  0  0  0
 11  2  1  0  0  0  0
 23 17  1  0  0  0  0
 61 24  1  0  0  0  0
104 62  1  0  0  0  0
119109  1  0  0  0  0
132121  1  0  0  0  0
 10  5  1  0  0  0  0
 22 18  1  0  0  0  0
 33 27  1  0  0  0  0
 40 34  1  0  0  0  0
 60 41  2  0  0  0  0
 71 64  1  0  0  0  0
103 72  2  0  0  0  0
117112  1  0  0  0  0
 23  7  1  0  0  0  0
 52 46  1  0  0  0  0
 59 53  1  0  0  0  0
102 74  2  0  0  0  0
100 75  2  0  0  0  0
 80 76  2  0  0  0  0
 99 81  2  0  0  0  0
 97 82  2  0  0  0  0
 96 84  2  0  0  0  0
 93 86  1  0  0  0  0
  1134  1  0  0  0  0
  6135  1  0  0  0  0
  9136  1  0  0  0  0
 17137  1  0  0  0  0
 18138  1  0  0  0  0
 19139  1  0  0  0  0
 20140  1  0  0  0  0
 21141  1  0  0  0  0
 22142  1  0  0  0  0
 22143  1  0  0  0  0
 23144  1  0  0  0  0
 28145  1  0  0  0  0
 29146  1  0  0  0  0
 31147  1  0  0  0  0
 31148  1  0  0  0  0
 31149  1  0  0  0  0
 32150  1  0  0  0  0
 33151  1  0  0  0  0
 35152  1  0  0  0  0
 36153  1  0  0  0  0
 38154  1  0  0  0  0
 38155  1  0  0  0  0
 38156  1  0  0  0  0
 39157  1  0  0  0  0
 40158  1  0  0  0  0
 47159  1  0  0  0  0
 48160  1  0  0  0  0
 50161  1  0  0  0  0
 50162  1  0  0  0  0
 50163  1  0  0  0  0
 51164  1  0  0  0  0
 52165  1  0  0  0  0
 54166  1  0  0  0  0
 55167  1  0  0  0  0
 57168  1  0  0  0  0
 57169  1  0  0  0  0
 57170  1  0  0  0  0
 58171  1  0  0  0  0
 59172  1  0  0  0  0
 65173  1  0  0  0  0
 66174  1  0  0  0  0
 67175  1  0  0  0  0
 69176  1  0  0  0  0
 69177  1  0  0  0  0
 70178  1  0  0  0  0
 70179  1  0  0  0  0
 70180  1  0  0  0  0
 71181  1  0  0  0  0
 87182  1  0  0  0  0
 88183  1  0  0  0  0
 89184  1  0  0  0  0
 91185  1  0  0  0  0
 91186  1  0  0  0  0
 92187  1  0  0  0  0
 92188  1  0  0  0  0
 92189  1  0  0  0  0
 93190  1  0  0  0  0
105191  1  0  0  0  0
105192  1  0  0  0  0
106193  1  0  0  0  0
106194  1  0  0  0  0
106195  1  0  0  0  0
107196  1  0  0  0  0
107197  1  0  0  0  0
108198  1  0  0  0  0
108199  1  0  0  0  0
108200  1  0  0  0  0
110201  1  0  0  0  0
113202  1  0  0  0  0
114203  1  0  0  0  0
115204  1  0  0  0  0
116205  1  0  0  0  0
117206  1  0  0  0  0
120207  1  0  0  0  0
130208  1  0  0  0  0
130209  1  0  0  0  0
131210  1  0  0  0  0
131211  1  0  0  0  0
131212  1  0  0  0  0
M  END
