
  xtb     02162205293D
 energy: -407.153474561908 gnorm: 0.000415919357 xtb: 6.4.1 (unknown)
255284  0     0  0            999 V2000
    1.8213  -10.7361    1.2215 C   0  0  0  0  0  0  0  0  0  0  0  0
    0.5940  -11.3627    1.2773 C   0  0  0  0  0  0  0  0  0  0  0  0
   -0.6601  -10.8577    0.7202 C   0  0  0  0  0  0  0  0  0  0  0  0
   -0.8567   -9.7907    0.1602 O   0  0  0  0  0  0  0  0  0  0  0  0
   -1.6658  -11.9138    0.9391 C   0  0  0  0  0  0  0  0  0  0  0  0
   -3.0137  -11.8729    0.5955 C   0  0  0  0  0  0  0  0  0  0  0  0
   -3.7161  -12.9989    0.9534 C   0  0  0  0  0  0  0  0  0  0  0  0
   -3.1179  -14.0879    1.5985 C   0  0  0  0  0  0  0  0  0  0  0  0
   -1.7860  -14.1422    1.9377 C   0  0  0  0  0  0  0  0  0  0  0  0
   -1.0551  -13.0045    1.5883 C   0  0  0  0  0  0  0  0  0  0  0  0
    0.3539  -12.6774    1.8173 C   0  0  0  0  0  0  0  0  0  0  0  0
    1.2573  -13.4875    2.4654 C   0  0  0  0  0  0  0  0  0  0  0  0
    2.5748  -13.1366    2.8144 C   0  0  0  0  0  0  0  0  0  0  0  0
    3.6474  -12.9290    3.1751 N   0  0  0  0  0  0  0  0  0  0  0  0
    0.9827  -14.7968    2.9057 C   0  0  0  0  0  0  0  0  0  0  0  0
    0.8443  -15.8751    3.2784 N   0  0  0  0  0  0  0  0  0  0  0  0
   -4.4139  -14.8560    1.6770 C   0  0  0  0  0  0  0  0  0  0  0  0
   -5.1460  -14.8946    3.0411 C   0  0  0  0  0  0  0  0  0  0  0  0
   -4.7390  -13.6451    3.7818 C   0  0  0  0  0  0  0  0  0  0  0  0
   -5.3051  -12.6115    3.1734 C   0  0  0  0  0  0  0  0  0  0  0  0
   -6.1057  -13.1437    2.0107 C   0  0  0  0  0  0  0  0  0  0  0  0
   -6.5595  -14.4931    2.5899 C   0  0  0  0  0  0  0  0  0  0  0  0
   -5.0815  -13.6404    0.9601 C   0  0  0  0  0  0  0  0  0  0  0  0
    2.1575   -9.4545    0.7985 C   0  0  0  0  0  0  0  0  0  0  0  0
    3.4871   -8.9525    0.8288 C   0  0  0  0  0  0  0  0  0  0  0  0
    4.6181   -9.7006    1.0081 N   0  0  0  0  0  0  0  0  0  0  0  0
    5.7461   -9.0921    1.5936 C   0  0  0  0  0  0  0  0  0  0  0  0
    5.6028   -8.3257    2.7475 C   0  0  0  0  0  0  0  0  0  0  0  0
    6.7069   -7.7361    3.3269 C   0  0  0  0  0  0  0  0  0  0  0  0
    7.9763   -7.9000    2.7838 C   0  0  0  0  0  0  0  0  0  0  0  0
    9.1662   -7.2876    3.4540 C   0  0  0  0  0  0  0  0  0  0  0  0
    8.1078   -8.6656    1.6328 C   0  0  0  0  0  0  0  0  0  0  0  0
    7.0101   -9.2548    1.0371 C   0  0  0  0  0  0  0  0  0  0  0  0
    4.7463  -11.0083    0.5022 C   0  0  0  0  0  0  0  0  0  0  0  0
    4.1586  -11.3652   -0.7088 C   0  0  0  0  0  0  0  0  0  0  0  0
    4.2824  -12.6560   -1.1826 C   0  0  0  0  0  0  0  0  0  0  0  0
    5.0044  -13.6131   -0.4793 C   0  0  0  0  0  0  0  0  0  0  0  0
    5.1185  -15.0211   -0.9767 C   0  0  0  0  0  0  0  0  0  0  0  0
    5.6143  -13.2369    0.7117 C   0  0  0  0  0  0  0  0  0  0  0  0
    5.4884  -11.9540    1.2051 C   0  0  0  0  0  0  0  0  0  0  0  0
    3.4989   -7.5645    0.6268 C   0  0  0  0  0  0  0  0  0  0  0  0
    4.7399   -6.3517    0.5879 S   0  0  0  0  0  0  0  0  0  0  0  0
    3.5569   -5.1166    0.1686 C   0  0  0  0  0  0  0  0  0  0  0  0
    2.2663   -5.6347    0.1121 C   0  0  0  0  0  0  0  0  0  0  0  0
    1.0944   -4.9343   -0.2030 N   0  0  0  0  0  0  0  0  0  0  0  0
    0.5358   -4.0217    0.6897 C   0  0  0  0  0  0  0  0  0  0  0  0
   -0.4653   -3.1518    0.2562 C   0  0  0  0  0  0  0  0  0  0  0  0
   -1.0127   -2.2307    1.1244 C   0  0  0  0  0  0  0  0  0  0  0  0
   -0.5713   -2.1265    2.4378 C   0  0  0  0  0  0  0  0  0  0  0  0
   -1.1507   -1.1084    3.3726 C   0  0  0  0  0  0  0  0  0  0  0  0
    0.4402   -2.9812    2.8580 C   0  0  0  0  0  0  0  0  0  0  0  0
    0.9850   -3.9203    2.0057 C   0  0  0  0  0  0  0  0  0  0  0  0
    0.2955   -5.5807   -1.1710 C   0  0  0  0  0  0  0  0  0  0  0  0
   -1.0447   -5.8807   -0.9475 C   0  0  0  0  0  0  0  0  0  0  0  0
   -1.7649   -6.5700   -1.9008 C   0  0  0  0  0  0  0  0  0  0  0  0
   -1.1753   -6.9861   -3.0892 C   0  0  0  0  0  0  0  0  0  0  0  0
   -1.9621   -7.7744   -4.0907 C   0  0  0  0  0  0  0  0  0  0  0  0
    0.1616   -6.6807   -3.3046 C   0  0  0  0  0  0  0  0  0  0  0  0
    0.8917   -5.9847   -2.3613 C   0  0  0  0  0  0  0  0  0  0  0  0
    2.2488   -7.0240    0.3578 C   0  0  0  0  0  0  0  0  0  0  0  0
    0.9895   -8.2048    0.3523 S   0  0  0  0  0  0  0  0  0  0  0  0
    3.9772   -3.7781   -0.0506 C   0  0  0  0  0  0  0  0  0  0  0  0
    5.2621   -3.2521   -0.0286 C   0  0  0  0  0  0  0  0  0  0  0  0
    6.5145   -4.0014    0.1355 C   0  0  0  0  0  0  0  0  0  0  0  0
    7.3634   -3.7088    1.1965 C   0  0  0  0  0  0  0  0  0  0  0  0
    8.5621   -4.3846    1.3229 C   0  0  0  0  0  0  0  0  0  0  0  0
    8.9181   -5.3529    0.4019 C   0  0  0  0  0  0  0  0  0  0  0  0
    8.0863   -5.6505   -0.6692 C   0  0  0  0  0  0  0  0  0  0  0  0
    8.4893   -6.6659   -1.6990 C   0  0  0  0  0  0  0  0  0  0  0  0
    9.2513   -5.9964   -2.8442 C   0  0  0  0  0  0  0  0  0  0  0  0
    6.8943   -4.9560   -0.8017 C   0  0  0  0  0  0  0  0  0  0  0  0
    5.2517   -1.8586   -0.2067 C   0  0  0  0  0  0  0  0  0  0  0  0
    6.5262   -0.6596   -0.2407 S   0  0  0  0  0  0  0  0  0  0  0  0
    5.3258    0.5719   -0.4661 C   0  0  0  0  0  0  0  0  0  0  0  0
    5.2309    1.9646   -0.6063 C   0  0  0  0  0  0  0  0  0  0  0  0
    6.2445    2.9430   -0.6871 C   0  0  0  0  0  0  0  0  0  0  0  0
    5.8711    4.3113   -0.8894 C   0  0  0  0  0  0  0  0  0  0  0  0
    6.9188    5.1162   -0.9735 N   0  0  0  0  0  0  0  0  0  0  0  0
    8.2619    4.2252   -0.8095 S   0  0  0  0  0  0  0  0  0  0  0  0
    7.5566    2.7784   -0.6252 N   0  0  0  0  0  0  0  0  0  0  0  0
    4.5006    4.6428   -0.9420 C   0  0  0  0  0  0  0  0  0  0  0  0
    3.8742    5.8934   -1.0457 C   0  0  0  0  0  0  0  0  0  0  0  0
    4.2739    7.5725   -1.2097 S   0  0  0  0  0  0  0  0  0  0  0  0
    2.5623    7.9588   -1.1654 C   0  0  0  0  0  0  0  0  0  0  0  0
    1.8557    9.1729   -1.1976 C   0  0  0  0  0  0  0  0  0  0  0  0
    2.5615   10.4566   -1.2080 C   0  0  0  0  0  0  0  0  0  0  0  0
    2.2772   11.4354   -0.2572 C   0  0  0  0  0  0  0  0  0  0  0  0
    3.0112   12.6049   -0.2341 C   0  0  0  0  0  0  0  0  0  0  0  0
    4.0347   12.8072   -1.1452 C   0  0  0  0  0  0  0  0  0  0  0  0
    4.3373   11.8388   -2.0931 C   0  0  0  0  0  0  0  0  0  0  0  0
    5.4866   12.0141   -3.0426 C   0  0  0  0  0  0  0  0  0  0  0  0
    6.7344   11.3226   -2.4892 C   0  0  0  0  0  0  0  0  0  0  0  0
    3.5957   10.6665   -2.1126 C   0  0  0  0  0  0  0  0  0  0  0  0
    0.4822    8.9631   -1.1089 C   0  0  0  0  0  0  0  0  0  0  0  0
    0.0782    7.2694   -0.9043 S   0  0  0  0  0  0  0  0  0  0  0  0
    1.7461    6.8340   -1.0358 C   0  0  0  0  0  0  0  0  0  0  0  0
    2.5010    5.6592   -0.9679 C   0  0  0  0  0  0  0  0  0  0  0  0
    2.2577    4.3229   -0.8219 N   0  0  0  0  0  0  0  0  0  0  0  0
    3.4705    3.6584   -0.8233 C   0  0  0  0  0  0  0  0  0  0  0  0
    3.8441    2.2888   -0.7117 C   0  0  0  0  0  0  0  0  0  0  0  0
    3.1343    1.0998   -0.6806 N   0  0  0  0  0  0  0  0  0  0  0  0
    4.0232    0.0756   -0.5183 C   0  0  0  0  0  0  0  0  0  0  0  0
    3.9778   -1.3162   -0.3842 C   0  0  0  0  0  0  0  0  0  0  0  0
    2.7634   -2.5399   -0.3514 S   0  0  0  0  0  0  0  0  0  0  0  0
    1.7328    0.7698   -0.7762 C   0  0  0  0  0  0  0  0  0  0  0  0
    1.1006    0.5962    0.6058 C   0  0  0  0  0  0  0  0  0  0  0  0
    0.8833    3.9022   -0.6962 C   0  0  0  0  0  0  0  0  0  0  0  0
    0.2196    3.7625   -2.0670 C   0  0  0  0  0  0  0  0  0  0  0  0
   -0.5976    9.8899   -1.2350 C   0  0  0  0  0  0  0  0  0  0  0  0
   -0.4677   11.1815   -1.7383 C   0  0  0  0  0  0  0  0  0  0  0  0
   -1.5561   12.0277   -1.8618 C   0  0  0  0  0  0  0  0  0  0  0  0
   -2.8539   11.6424   -1.5360 C   0  0  0  0  0  0  0  0  0  0  0  0
   -3.0269   10.3354   -0.9994 C   0  0  0  0  0  0  0  0  0  0  0  0
   -4.2426    9.9113   -0.6237 N   0  0  0  0  0  0  0  0  0  0  0  0
   -4.4037    8.6778   -0.2008 C   0  0  0  0  0  0  0  0  0  0  0  0
   -5.7861    8.2472    0.0246 C   0  0  0  0  0  0  0  0  0  0  0  0
   -6.7066    9.1254    0.5884 C   0  0  0  0  0  0  0  0  0  0  0  0
   -8.0274    8.7497    0.7393 C   0  0  0  0  0  0  0  0  0  0  0  0
   -8.4637    7.4996    0.3184 C   0  0  0  0  0  0  0  0  0  0  0  0
   -9.9066    7.0989    0.4227 C   0  0  0  0  0  0  0  0  0  0  0  0
  -10.5777    7.1379   -0.9519 C   0  0  0  0  0  0  0  0  0  0  0  0
   -7.5411    6.6309   -0.2553 C   0  0  0  0  0  0  0  0  0  0  0  0
   -6.2193    6.9932   -0.4031 C   0  0  0  0  0  0  0  0  0  0  0  0
   -3.2797    7.8144   -0.0402 C   0  0  0  0  0  0  0  0  0  0  0  0
   -2.0838    8.2383   -0.3786 N   0  0  0  0  0  0  0  0  0  0  0  0
   -1.9127    9.4688   -0.8727 C   0  0  0  0  0  0  0  0  0  0  0  0
   -3.3724    6.4847    0.5724 C   0  0  0  0  0  0  0  0  0  0  0  0
   -4.1164    6.2853    1.7334 C   0  0  0  0  0  0  0  0  0  0  0  0
   -4.1557    5.0398    2.3267 C   0  0  0  0  0  0  0  0  0  0  0  0
   -3.4645    3.9644    1.7803 C   0  0  0  0  0  0  0  0  0  0  0  0
   -3.4630    2.6310    2.4695 C   0  0  0  0  0  0  0  0  0  0  0  0
   -2.3580    2.5880    3.5274 C   0  0  0  0  0  0  0  0  0  0  0  0
   -2.7271    4.1690    0.6211 C   0  0  0  0  0  0  0  0  0  0  0  0
   -2.6752    5.4129    0.0234 C   0  0  0  0  0  0  0  0  0  0  0  0
   -3.9383   12.5588   -1.7107 C   0  0  0  0  0  0  0  0  0  0  0  0
   -5.2656   12.3406   -1.8960 C   0  0  0  0  0  0  0  0  0  0  0  0
   -6.2128   13.4590   -1.6250 C   0  0  0  0  0  0  0  0  0  0  0  0
   -5.9338   14.6300   -1.4948 O   0  0  0  0  0  0  0  0  0  0  0  0
   -7.5387   12.8257   -1.4948 C   0  0  0  0  0  0  0  0  0  0  0  0
   -8.7272   13.4317   -1.0909 C   0  0  0  0  0  0  0  0  0  0  0  0
   -9.7992   12.5746   -1.0296 C   0  0  0  0  0  0  0  0  0  0  0  0
   -9.7012   11.2128   -1.3470 C   0  0  0  0  0  0  0  0  0  0  0  0
   -8.5401   10.6046   -1.7605 C   0  0  0  0  0  0  0  0  0  0  0  0
   -7.4352   11.4585   -1.8240 C   0  0  0  0  0  0  0  0  0  0  0  0
   -6.0574   11.1720   -2.2147 C   0  0  0  0  0  0  0  0  0  0  0  0
   -5.6533   10.0835   -2.9426 C   0  0  0  0  0  0  0  0  0  0  0  0
   -4.3619    9.9482   -3.4884 C   0  0  0  0  0  0  0  0  0  0  0  0
   -3.3312    9.8005   -3.9726 N   0  0  0  0  0  0  0  0  0  0  0  0
   -6.4749    8.9835   -3.2518 C   0  0  0  0  0  0  0  0  0  0  0  0
   -7.0841    8.0444   -3.5112 N   0  0  0  0  0  0  0  0  0  0  0  0
  -11.1605   10.9596   -1.0550 C   0  0  0  0  0  0  0  0  0  0  0  0
  -12.0932   10.8163   -2.2758 C   0  0  0  0  0  0  0  0  0  0  0  0
  -13.4727   11.0605   -1.7080 C   0  0  0  0  0  0  0  0  0  0  0  0
  -13.5659   12.3515   -1.4160 C   0  0  0  0  0  0  0  0  0  0  0  0
  -12.2506   13.0016   -1.7810 C   0  0  0  0  0  0  0  0  0  0  0  0
  -11.8641   12.1506   -2.9975 C   0  0  0  0  0  0  0  0  0  0  0  0
  -11.2708   12.4791   -0.7092 C   0  0  0  0  0  0  0  0  0  0  0  0
    2.6614  -11.3140    1.5846 H   0  0  0  0  0  0  0  0  0  0  0  0
   -3.4333  -11.0106    0.1009 H   0  0  0  0  0  0  0  0  0  0  0  0
   -1.3432  -14.9884    2.4358 H   0  0  0  0  0  0  0  0  0  0  0  0
   -4.4308  -15.8188    1.1698 H   0  0  0  0  0  0  0  0  0  0  0  0
   -5.0400  -15.8301    3.5840 H   0  0  0  0  0  0  0  0  0  0  0  0
   -4.0549  -13.6361    4.6100 H   0  0  0  0  0  0  0  0  0  0  0  0
   -5.1878  -11.5661    3.3918 H   0  0  0  0  0  0  0  0  0  0  0  0
   -6.8747  -12.4846    1.6158 H   0  0  0  0  0  0  0  0  0  0  0  0
   -6.9840  -15.1645    1.8446 H   0  0  0  0  0  0  0  0  0  0  0  0
   -7.2524  -14.3827    3.4229 H   0  0  0  0  0  0  0  0  0  0  0  0
   -5.5368  -13.8105   -0.0139 H   0  0  0  0  0  0  0  0  0  0  0  0
    4.6244   -8.2095    3.1902 H   0  0  0  0  0  0  0  0  0  0  0  0
    6.5852   -7.1473    4.2242 H   0  0  0  0  0  0  0  0  0  0  0  0
    8.9720   -6.2448    3.6950 H   0  0  0  0  0  0  0  0  0  0  0  0
    9.3807   -7.8117    4.3856 H   0  0  0  0  0  0  0  0  0  0  0  0
   10.0460   -7.3456    2.8191 H   0  0  0  0  0  0  0  0  0  0  0  0
    9.0850   -8.8057    1.1942 H   0  0  0  0  0  0  0  0  0  0  0  0
    7.1251   -9.8444    0.1397 H   0  0  0  0  0  0  0  0  0  0  0  0
    3.5995  -10.6316   -1.2710 H   0  0  0  0  0  0  0  0  0  0  0  0
    3.8141  -12.9208   -2.1197 H   0  0  0  0  0  0  0  0  0  0  0  0
    6.1568  -15.3479   -0.9689 H   0  0  0  0  0  0  0  0  0  0  0  0
    4.7286  -15.1119   -1.9875 H   0  0  0  0  0  0  0  0  0  0  0  0
    4.5552  -15.6921   -0.3281 H   0  0  0  0  0  0  0  0  0  0  0  0
    6.1803  -13.9649    1.2729 H   0  0  0  0  0  0  0  0  0  0  0  0
    5.9495  -11.6826    2.1414 H   0  0  0  0  0  0  0  0  0  0  0  0
   -0.8060   -3.2043   -0.7667 H   0  0  0  0  0  0  0  0  0  0  0  0
   -1.7981   -1.5767    0.7716 H   0  0  0  0  0  0  0  0  0  0  0  0
   -2.0905   -0.7211    2.9864 H   0  0  0  0  0  0  0  0  0  0  0  0
   -0.4599   -0.2735    3.4971 H   0  0  0  0  0  0  0  0  0  0  0  0
   -1.3277   -1.5438    4.3542 H   0  0  0  0  0  0  0  0  0  0  0  0
    0.8007   -2.9180    3.8749 H   0  0  0  0  0  0  0  0  0  0  0  0
    1.7603   -4.5844    2.3589 H   0  0  0  0  0  0  0  0  0  0  0  0
   -1.5101   -5.5933   -0.0168 H   0  0  0  0  0  0  0  0  0  0  0  0
   -2.8005   -6.8103   -1.7099 H   0  0  0  0  0  0  0  0  0  0  0  0
   -1.4546   -7.8035   -5.0519 H   0  0  0  0  0  0  0  0  0  0  0  0
   -2.9535   -7.3467   -4.2278 H   0  0  0  0  0  0  0  0  0  0  0  0
   -2.0857   -8.7982   -3.7370 H   0  0  0  0  0  0  0  0  0  0  0  0
    0.6415   -6.9943   -4.2209 H   0  0  0  0  0  0  0  0  0  0  0  0
    1.9337   -5.7571   -2.5358 H   0  0  0  0  0  0  0  0  0  0  0  0
    7.0780   -2.9577    1.9179 H   0  0  0  0  0  0  0  0  0  0  0  0
    9.2251   -4.1495    2.1425 H   0  0  0  0  0  0  0  0  0  0  0  0
    9.8556   -5.8788    0.5087 H   0  0  0  0  0  0  0  0  0  0  0  0
    7.5998   -7.1599   -2.0949 H   0  0  0  0  0  0  0  0  0  0  0  0
    9.1232   -7.4256   -1.2383 H   0  0  0  0  0  0  0  0  0  0  0  0
   10.1482   -5.5097   -2.4677 H   0  0  0  0  0  0  0  0  0  0  0  0
    8.6302   -5.2422   -3.3218 H   0  0  0  0  0  0  0  0  0  0  0  0
    9.5418   -6.7319   -3.5909 H   0  0  0  0  0  0  0  0  0  0  0  0
    6.2476   -5.1573   -1.6443 H   0  0  0  0  0  0  0  0  0  0  0  0
    1.4882   11.2685    0.4615 H   0  0  0  0  0  0  0  0  0  0  0  0
    2.7895   13.3619    0.5039 H   0  0  0  0  0  0  0  0  0  0  0  0
    4.6061   13.7238   -1.1168 H   0  0  0  0  0  0  0  0  0  0  0  0
    5.2353   11.5789   -4.0120 H   0  0  0  0  0  0  0  0  0  0  0  0
    5.6934   13.0764   -3.1866 H   0  0  0  0  0  0  0  0  0  0  0  0
    7.0144   11.7583   -1.5326 H   0  0  0  0  0  0  0  0  0  0  0  0
    6.5439   10.2625   -2.3381 H   0  0  0  0  0  0  0  0  0  0  0  0
    7.5679   11.4330   -3.1788 H   0  0  0  0  0  0  0  0  0  0  0  0
    3.8172    9.9081   -2.8493 H   0  0  0  0  0  0  0  0  0  0  0  0
    1.2151    1.5122   -1.3765 H   0  0  0  0  0  0  0  0  0  0  0  0
    1.6654   -0.1854   -1.3071 H   0  0  0  0  0  0  0  0  0  0  0  0
    1.2974    1.4564    1.2433 H   0  0  0  0  0  0  0  0  0  0  0  0
    1.5106   -0.2852    1.0924 H   0  0  0  0  0  0  0  0  0  0  0  0
    0.0276    0.4583    0.5104 H   0  0  0  0  0  0  0  0  0  0  0  0
    0.8229    2.9875   -0.1152 H   0  0  0  0  0  0  0  0  0  0  0  0
    0.3614    4.6838   -0.1342 H   0  0  0  0  0  0  0  0  0  0  0  0
    0.7962    3.1124   -2.7226 H   0  0  0  0  0  0  0  0  0  0  0  0
    0.1488    4.7379   -2.5413 H   0  0  0  0  0  0  0  0  0  0  0  0
   -0.7830    3.3574   -1.9613 H   0  0  0  0  0  0  0  0  0  0  0  0
    0.4998   11.5283   -2.0630 H   0  0  0  0  0  0  0  0  0  0  0  0
   -1.4014   13.0122   -2.2791 H   0  0  0  0  0  0  0  0  0  0  0  0
   -6.3730   10.1022    0.9064 H   0  0  0  0  0  0  0  0  0  0  0  0
   -8.7298    9.4413    1.1831 H   0  0  0  0  0  0  0  0  0  0  0  0
  -10.4307    7.7716    1.1048 H   0  0  0  0  0  0  0  0  0  0  0  0
   -9.9765    6.0853    0.8249 H   0  0  0  0  0  0  0  0  0  0  0  0
  -11.6213    6.8414   -0.8733 H   0  0  0  0  0  0  0  0  0  0  0  0
  -10.0747    6.4634   -1.6399 H   0  0  0  0  0  0  0  0  0  0  0  0
  -10.5308    8.1413   -1.3672 H   0  0  0  0  0  0  0  0  0  0  0  0
   -7.8659    5.6594   -0.5973 H   0  0  0  0  0  0  0  0  0  0  0  0
   -5.5256    6.3157   -0.8776 H   0  0  0  0  0  0  0  0  0  0  0  0
   -4.6484    7.1122    2.1806 H   0  0  0  0  0  0  0  0  0  0  0  0
   -4.7306    4.8986    3.2308 H   0  0  0  0  0  0  0  0  0  0  0  0
   -3.2989    1.8339    1.7416 H   0  0  0  0  0  0  0  0  0  0  0  0
   -4.4280    2.4618    2.9511 H   0  0  0  0  0  0  0  0  0  0  0  0
   -2.3776    1.6424    4.0632 H   0  0  0  0  0  0  0  0  0  0  0  0
   -2.4916    3.3954    4.2436 H   0  0  0  0  0  0  0  0  0  0  0  0
   -1.3824    2.7049    3.0602 H   0  0  0  0  0  0  0  0  0  0  0  0
   -2.1871    3.3410    0.1840 H   0  0  0  0  0  0  0  0  0  0  0  0
   -2.1058    5.5667   -0.8796 H   0  0  0  0  0  0  0  0  0  0  0  0
   -3.6712   13.6089   -1.6196 H   0  0  0  0  0  0  0  0  0  0  0  0
   -8.7607   14.4831   -0.8519 H   0  0  0  0  0  0  0  0  0  0  0  0
   -8.4697    9.5564   -1.9978 H   0  0  0  0  0  0  0  0  0  0  0  0
  -11.3715   10.2354   -0.2702 H   0  0  0  0  0  0  0  0  0  0  0  0
  -11.9553    9.9054   -2.8523 H   0  0  0  0  0  0  0  0  0  0  0  0
  -14.1949   10.2849   -1.5318 H   0  0  0  0  0  0  0  0  0  0  0  0
  -14.3817   12.8698   -0.9470 H   0  0  0  0  0  0  0  0  0  0  0  0
  -12.2568   14.0810   -1.9058 H   0  0  0  0  0  0  0  0  0  0  0  0
  -10.8412   12.3005   -3.3375 H   0  0  0  0  0  0  0  0  0  0  0  0
  -12.5495   12.2901   -3.8318 H   0  0  0  0  0  0  0  0  0  0  0  0
  -11.5567   12.7640    0.3020 H   0  0  0  0  0  0  0  0  0  0  0  0
  1  2  2  0  0  0  0
  2  3  1  0  0  0  0
  3  4  2  0  0  0  0
  3  5  1  0  0  0  0
  5  6  2  0  0  0  0
  6  7  1  0  0  0  0
  7  8  2  0  0  0  0
  8  9  1  0  0  0  0
  9 10  2  0  0  0  0
 10 11  1  0  0  0  0
 11 12  2  0  0  0  0
 12 13  1  0  0  0  0
 13 14  3  0  0  0  0
 12 15  1  0  0  0  0
 15 16  3  0  0  0  0
  8 17  1  0  0  0  0
 17 18  1  0  0  0  0
 18 19  1  0  0  0  0
 19 20  2  0  0  0  0
 20 21  1  0  0  0  0
 21 22  1  0  0  0  0
 21 23  1  0  0  0  0
  1 24  1  0  0  0  0
 24 25  2  0  0  0  0
 25 26  1  0  0  0  0
 26 27  1  0  0  0  0
 27 28  2  0  0  0  0
 28 29  1  0  0  0  0
 29 30  2  0  0  0  0
 30 31  1  0  0  0  0
 30 32  1  0  0  0  0
 32 33  2  0  0  0  0
 26 34  1  0  0  0  0
 34 35  2  0  0  0  0
 35 36  1  0  0  0  0
 36 37  2  0  0  0  0
 37 38  1  0  0  0  0
 37 39  1  0  0  0  0
 39 40  2  0  0  0  0
 25 41  1  0  0  0  0
 41 42  1  0  0  0  0
 42 43  1  0  0  0  0
 43 44  2  0  0  0  0
 44 45  1  0  0  0  0
 45 46  1  0  0  0  0
 46 47  2  0  0  0  0
 47 48  1  0  0  0  0
 48 49  2  0  0  0  0
 49 50  1  0  0  0  0
 49 51  1  0  0  0  0
 51 52  2  0  0  0  0
 45 53  1  0  0  0  0
 53 54  2  0  0  0  0
 54 55  1  0  0  0  0
 55 56  2  0  0  0  0
 56 57  1  0  0  0  0
 56 58  1  0  0  0  0
 58 59  2  0  0  0  0
 44 60  1  0  0  0  0
 60 61  1  0  0  0  0
 43 62  1  0  0  0  0
 62 63  2  0  0  0  0
 63 64  1  0  0  0  0
 64 65  2  0  0  0  0
 65 66  1  0  0  0  0
 66 67  2  0  0  0  0
 67 68  1  0  0  0  0
 68 69  1  0  0  0  0
 69 70  1  0  0  0  0
 68 71  2  0  0  0  0
 63 72  1  0  0  0  0
 72 73  1  0  0  0  0
 73 74  1  0  0  0  0
 74 75  1  0  0  0  0
 75 76  1  0  0  0  0
 76 77  1  0  0  0  0
 77 78  2  0  0  0  0
 78 79  1  0  0  0  0
 79 80  1  0  0  0  0
 77 81  1  0  0  0  0
 81 82  1  0  0  0  0
 82 83  1  0  0  0  0
 83 84  1  0  0  0  0
 84 85  1  0  0  0  0
 85 86  1  0  0  0  0
 86 87  2  0  0  0  0
 87 88  1  0  0  0  0
 88 89  2  0  0  0  0
 89 90  1  0  0  0  0
 90 91  1  0  0  0  0
 91 92  1  0  0  0  0
 90 93  2  0  0  0  0
 85 94  2  0  0  0  0
 94 95  1  0  0  0  0
 95 96  1  0  0  0  0
 96 97  1  0  0  0  0
 97 98  1  0  0  0  0
 98 99  1  0  0  0  0
 99100  1  0  0  0  0
100101  1  0  0  0  0
101102  1  0  0  0  0
102103  1  0  0  0  0
103104  1  0  0  0  0
101105  1  0  0  0  0
105106  1  0  0  0  0
 98107  1  0  0  0  0
107108  1  0  0  0  0
 94109  1  0  0  0  0
109110  2  0  0  0  0
110111  1  0  0  0  0
111112  2  0  0  0  0
112113  1  0  0  0  0
113114  2  0  0  0  0
114115  1  0  0  0  0
115116  1  0  0  0  0
116117  2  0  0  0  0
117118  1  0  0  0  0
118119  2  0  0  0  0
119120  1  0  0  0  0
120121  1  0  0  0  0
119122  1  0  0  0  0
122123  2  0  0  0  0
115124  2  0  0  0  0
124125  1  0  0  0  0
125126  2  0  0  0  0
124127  1  0  0  0  0
127128  2  0  0  0  0
128129  1  0  0  0  0
129130  2  0  0  0  0
130131  1  0  0  0  0
131132  1  0  0  0  0
130133  1  0  0  0  0
133134  2  0  0  0  0
112135  1  0  0  0  0
135136  2  0  0  0  0
136137  1  0  0  0  0
137138  2  0  0  0  0
137139  1  0  0  0  0
139140  2  0  0  0  0
140141  1  0  0  0  0
141142  2  0  0  0  0
142143  1  0  0  0  0
143144  2  0  0  0  0
144145  1  0  0  0  0
145146  2  0  0  0  0
146147  1  0  0  0  0
147148  3  0  0  0  0
146149  1  0  0  0  0
149150  3  0  0  0  0
142151  1  0  0  0  0
151152  1  0  0  0  0
152153  1  0  0  0  0
153154  2  0  0  0  0
154155  1  0  0  0  0
155156  1  0  0  0  0
155157  1  0  0  0  0
 11  2  1  0  0  0  0
 23 17  1  0  0  0  0
 61 24  1  0  0  0  0
104 62  1  0  0  0  0
126109  1  0  0  0  0
134127  1  0  0  0  0
145136  1  0  0  0  0
157151  1  0  0  0  0
 10  5  1  0  0  0  0
 22 18  1  0  0  0  0
 33 27  1  0  0  0  0
 40 34  1  0  0  0  0
 60 41  2  0  0  0  0
 71 64  1  0  0  0  0
103 72  2  0  0  0  0
126113  1  0  0  0  0
144139  1  0  0  0  0
156152  1  0  0  0  0
 23  7  1  0  0  0  0
 52 46  1  0  0  0  0
 59 53  1  0  0  0  0
102 74  2  0  0  0  0
123116  1  0  0  0  0
157141  1  0  0  0  0
100 75  2  0  0  0  0
 80 76  2  0  0  0  0
 99 81  2  0  0  0  0
 97 82  2  0  0  0  0
 96 84  2  0  0  0  0
 93 86  1  0  0  0  0
  1158  1  0  0  0  0
  6159  1  0  0  0  0
  9160  1  0  0  0  0
 17161  1  0  0  0  0
 18162  1  0  0  0  0
 19163  1  0  0  0  0
 20164  1  0  0  0  0
 21165  1  0  0  0  0
 22166  1  0  0  0  0
 22167  1  0  0  0  0
 23168  1  0  0  0  0
 28169  1  0  0  0  0
 29170  1  0  0  0  0
 31171  1  0  0  0  0
 31172  1  0  0  0  0
 31173  1  0  0  0  0
 32174  1  0  0  0  0
 33175  1  0  0  0  0
 35176  1  0  0  0  0
 36177  1  0  0  0  0
 38178  1  0  0  0  0
 38179  1  0  0  0  0
 38180  1  0  0  0  0
 39181  1  0  0  0  0
 40182  1  0  0  0  0
 47183  1  0  0  0  0
 48184  1  0  0  0  0
 50185  1  0  0  0  0
 50186  1  0  0  0  0
 50187  1  0  0  0  0
 51188  1  0  0  0  0
 52189  1  0  0  0  0
 54190  1  0  0  0  0
 55191  1  0  0  0  0
 57192  1  0  0  0  0
 57193  1  0  0  0  0
 57194  1  0  0  0  0
 58195  1  0  0  0  0
 59196  1  0  0  0  0
 65197  1  0  0  0  0
 66198  1  0  0  0  0
 67199  1  0  0  0  0
 69200  1  0  0  0  0
 69201  1  0  0  0  0
 70202  1  0  0  0  0
 70203  1  0  0  0  0
 70204  1  0  0  0  0
 71205  1  0  0  0  0
 87206  1  0  0  0  0
 88207  1  0  0  0  0
 89208  1  0  0  0  0
 91209  1  0  0  0  0
 91210  1  0  0  0  0
 92211  1  0  0  0  0
 92212  1  0  0  0  0
 92213  1  0  0  0  0
 93214  1  0  0  0  0
105215  1  0  0  0  0
105216  1  0  0  0  0
106217  1  0  0  0  0
106218  1  0  0  0  0
106219  1  0  0  0  0
107220  1  0  0  0  0
107221  1  0  0  0  0
108222  1  0  0  0  0
108223  1  0  0  0  0
108224  1  0  0  0  0
110225  1  0  0  0  0
111226  1  0  0  0  0
117227  1  0  0  0  0
118228  1  0  0  0  0
120229  1  0  0  0  0
120230  1  0  0  0  0
121231  1  0  0  0  0
121232  1  0  0  0  0
121233  1  0  0  0  0
122234  1  0  0  0  0
123235  1  0  0  0  0
128236  1  0  0  0  0
129237  1  0  0  0  0
131238  1  0  0  0  0
131239  1  0  0  0  0
132240  1  0  0  0  0
132241  1  0  0  0  0
132242  1  0  0  0  0
133243  1  0  0  0  0
134244  1  0  0  0  0
135245  1  0  0  0  0
140246  1  0  0  0  0
143247  1  0  0  0  0
151248  1  0  0  0  0
152249  1  0  0  0  0
153250  1  0  0  0  0
154251  1  0  0  0  0
155252  1  0  0  0  0
156253  1  0  0  0  0
156254  1  0  0  0  0
157255  1  0  0  0  0
M  END
