221

C          5.99200       -7.46870        3.91570
C          5.73210       -8.65780        3.26590
C          4.45010       -9.07560        2.70160
O          3.40270       -8.44880        2.66670
C          4.64950      -10.44310        2.18640
C          3.70670      -11.24600        1.54980
C          4.18680      -12.47580        1.16750
C          5.50620      -12.87800        1.40750
C          6.44460      -12.09660        2.04040
C          5.97830      -10.83910        2.43260
C          6.67640       -9.73280        3.09160
C          8.00800       -9.73560        3.43810
C          8.73080       -8.63860        3.94320
N          9.41370       -7.79170        4.31770
C          8.86530      -10.84490        3.30320
N          9.62280      -11.70700        3.24130
C          5.30240      -14.21990        0.74820
C          5.87470      -14.38150       -0.67600
C          5.12790      -15.57190       -1.23260
C          3.87670      -15.19300       -1.45960
C          3.75710      -13.73990       -1.06050
C          5.16340      -13.24890       -1.42760
C          3.82980      -13.77160        0.48080
C          5.19780       -6.33890        4.07540
C          5.65490       -5.15440        4.71570
N          6.76570       -5.05020        5.50330
C          7.21650       -6.09410        6.33400
C          8.58040       -6.24110        6.57230
C          9.03250       -7.25380        7.39390
C          8.14810       -8.14580        7.98880
C          8.66020       -9.26290        8.84460
C          6.78750       -7.97980        7.75770
C          6.31930       -6.96310        6.94960
C          7.38750       -3.78950        5.63180
C          7.66650       -3.26480        6.88910
C          8.27490       -2.03090        7.00140
C          8.61820       -1.29440        5.87420
C          9.31400        0.02500        5.99700
C          8.33400       -1.82800        4.62290
C          7.72780       -3.06160        4.49570
C          4.79430       -4.07970        4.44150
S          4.80740       -2.39210        4.84470
C          3.25500       -2.16990        4.04120
C          2.73950       -3.36970        3.55420
N          1.50160       -3.54460        2.95490
C          1.42660       -4.56140        1.97800
C          2.34540       -4.57090        0.93370
C          2.35010       -5.61070        0.02540
C          1.44150       -6.65570        0.13150
C          1.50030       -7.82060       -0.80690
C          0.50450       -6.61750        1.15690
C          0.49200       -5.58660        2.07400
C          0.33070       -3.00550        3.49050
C          0.24500       -2.61220        4.82500
C         -0.91460       -2.04330        5.31100
C         -2.02610       -1.86210        4.49650
C         -3.27010       -1.21800        5.02810
C         -1.94150       -2.27580        3.17260
C         -0.78380       -2.83180        2.66940
C          3.64630       -4.43780        3.74780
S          3.60720       -6.11580        3.33770
C          2.75120       -0.85680        3.84020
C          3.17990        0.32930        4.41960
C          4.12230        0.44220        5.53500
C          5.19990        1.31680        5.44080
C          6.09010        1.42870        6.49140
C          5.91920        0.66900        7.63400
C          4.84090       -0.19890        7.75200
C          4.62850       -0.98530        9.01340
C          3.86640       -0.15150       10.04510
C          3.94010       -0.29170        6.70360
C          2.57990        1.44590        3.80950
S          2.70210        3.16690        4.09880
C          1.54230        3.43960        2.83980
C          0.86820        4.50370        2.21470
C          0.86030        5.89340        2.46560
C          0.00430        6.73930        1.67990
N          0.06280        8.00690        2.05630
S          1.10690        8.12880        3.28840
N          1.52570        6.56850        3.38940
C         -0.70970        6.17570        0.59960
C         -1.44260        6.76660       -0.44160
S         -1.96740        8.33550       -0.94720
C         -2.63030        7.62520       -2.40030
C         -3.27160        8.17710       -3.52760
C         -3.44840        9.61090       -3.74910
C         -3.77820       10.45210       -2.68740
C         -3.97420       11.80030       -2.91100
C         -3.83620       12.32650       -4.18410
C         -3.47030       11.51170       -5.24760
C         -3.32180       12.06690       -6.63550
C         -4.51940       11.68310       -7.50570
C         -3.27450       10.15860       -5.01660
C         -3.60380        7.18740       -4.44070
S         -3.06270        5.59310       -3.94110
C         -2.44100        6.24100       -2.46760
C         -1.77210        5.74840       -1.34130
N         -1.29320        4.54890       -0.88370
C         -0.64990        4.78220        0.31650
C          0.03880        3.92830        1.21270
N          0.16690        2.54740        1.26420
C          1.08820        2.26330        2.24020
C          1.68170        1.12350        2.79180
S          1.59280       -0.57990        2.54110
C         -0.83240        1.54340        0.96370
C         -1.69290        1.23680        2.18970
C         -1.22310        3.40730       -1.76800
C         -2.58190        2.72760       -1.94070
C         -4.27190        7.28660       -5.69460
S         -3.66950        6.39070       -7.05440
C         -4.88950        7.01010       -8.14910
C         -5.70370        7.88850       -7.45150
S         -7.01530        8.91090       -7.93080
C         -7.21030        9.45370       -6.27830
C         -8.26960       10.44160       -6.07850
O         -8.92260       10.87870       -6.99710
O         -8.40940       10.80380       -4.80170
C         -9.37960       11.81510       -4.52640
C         -8.80750       13.20460       -4.76710
C         -6.31670        8.88490       -5.41150
C         -5.38540        8.03260       -6.07120
Cl        -6.39090        9.08710       -3.72670
C         -4.85740        6.62260       -9.50250
C         -5.83690        6.70350      -10.44820
C         -5.45940        6.66070      -11.89210
O         -4.37790        6.36060      -12.34490
C         -6.66510        7.10110      -12.61470
C         -6.84270        7.34150      -13.96190
C         -8.08280        7.77310      -14.42270
C         -8.28690        8.03200      -15.88150
C         -9.13480        7.96540      -13.51410
C        -10.46810        8.44020      -13.99670
C         -8.95120        7.71360      -12.15660
C         -7.72110        7.27530      -11.70280
C         -7.26170        6.89540      -10.37040
C         -8.07440        6.54450       -9.31980
C         -9.47850        6.66600       -9.33620
N        -10.62330        6.73820       -9.29120
C         -7.60930        5.88490       -8.16600
N         -7.27020        5.31310       -7.22960
H          6.98080       -7.37550        4.34590
H          2.69810      -10.89660        1.39100
H          7.45440      -12.42510        2.22030
H          5.47580      -15.09070        1.37760
H          6.95940      -14.41470       -0.72950
H          5.55750      -16.54990       -1.34690
H          3.05240      -15.79150       -1.80130
H          2.91220      -13.18950       -1.46630
H          5.34650      -13.28820       -2.50030
H          5.39730      -12.25370       -1.05420
H          3.02180      -14.34350        0.93370
H          9.27970       -5.56840        6.10140
H         10.09310       -7.36470        7.56060
H          9.15320      -10.01100        8.22370
H          9.39160       -8.89360        9.56110
H          7.84970       -9.74540        9.38520
H          6.08020       -8.65130        8.22300
H          5.25800       -6.84330        6.78810
H          7.40020       -3.82790        7.77130
H          8.48550       -1.63190        7.98280
H         10.39040       -0.11190        5.88640
H          9.12800        0.47330        6.96920
H          8.98150        0.70880        5.21990
H          8.59760       -1.27250        3.73500
H          7.52130       -3.47380        3.51890
H          3.06460       -3.76820        0.85390
H          3.07940       -5.61600       -0.77210
H          0.51420       -8.25520       -0.95440
H          1.90870       -7.52820       -1.77160
H          2.14920       -8.58790       -0.38310
H         -0.21070       -7.42090        1.25450
H         -0.22330       -5.58240        2.88330
H          1.08930       -2.75910        5.48220
H         -0.96040       -1.74070        6.34760
H         -3.43440       -1.49280        6.06760
H         -3.18060       -0.13180        4.97880
H         -4.13920       -1.51190        4.44450
H         -2.79530       -2.15500        2.52100
H         -0.72870       -3.13160        1.63380
H          5.34160        1.89550        4.54060
H          6.92200        2.11300        6.41660
H          6.62370        0.75350        8.44890
H          5.59440       -1.27970        9.42900
H          4.06340       -1.89260        8.79170
H          4.42760        0.74580       10.29600
H          3.70310       -0.72520       10.95450
H          2.90080        0.15150        9.64640
H          3.08140       -0.94280        6.79050
H         -3.91240       10.04140       -1.69880
H         -4.24250       12.44520       -2.08740
H         -4.00100       13.38120       -4.35190
H         -3.24100       13.15430       -6.59030
H         -2.40950       11.67630       -7.09240
H         -4.57210       10.60340       -7.62530
H         -5.44730       12.02300       -7.05000
H         -4.43400       12.13290       -8.49190
H         -2.96200        9.52350       -5.83320
H         -1.47650        1.89230        0.16600
H         -0.31310        0.63510        0.64250
H         -2.46420        0.52010        1.92310
H         -2.16680        2.14680        2.55290
H         -1.09370        0.80950        2.98920
H         -0.88830        3.76580       -2.74830
H         -0.46610        2.71710       -1.39410
H         -2.46260        1.80600       -2.50340
H         -3.25940        3.37720       -2.48740
H         -3.04210        2.49870       -0.98190
H        -10.25630       11.64850       -5.16060
H         -9.64310       11.67180       -3.47670
H         -8.57340       13.33200       -5.82140
H         -7.90050       13.34240       -4.18260
H         -9.53730       13.95450       -4.47610
H         -3.89920        6.26410       -9.86640
H         -6.02070        7.19050      -14.64570
H         -7.37600        7.83200      -16.43900
H         -9.08190        7.39960      -16.27550
H         -8.57770        9.06850      -16.04970
H        -11.16710        8.52900      -13.17000
H        -10.87980        7.74480      -14.72740
H        -10.37620        9.41130      -14.48220
H         -9.76860        7.87510      -11.47170
