
  xtb     02182223193D
 energy: -431.265431939079 gnorm: 0.000301704700 xtb: 6.4.1 (unknown)
272301  0     0  0            999 V2000
    4.7025   10.1457   -2.7561 C   0  0  0  0  0  0  0  0  0  0  0  0
    6.0315   10.0103   -2.4504 C   0  0  0  0  0  0  0  0  0  0  0  0
    6.9589   11.1527   -2.6070 C   0  0  0  0  0  0  0  0  0  0  0  0
    6.7607   12.1789   -3.2226 O   0  0  0  0  0  0  0  0  0  0  0  0
    8.1476   10.8012   -1.7969 C   0  0  0  0  0  0  0  0  0  0  0  0
    9.2452   11.6074   -1.5043 C   0  0  0  0  0  0  0  0  0  0  0  0
   10.1727   11.0150   -0.6797 C   0  0  0  0  0  0  0  0  0  0  0  0
   10.0183    9.7203   -0.1680 C   0  0  0  0  0  0  0  0  0  0  0  0
    8.9463    8.9087   -0.4546 C   0  0  0  0  0  0  0  0  0  0  0  0
    8.0019    9.4882   -1.3042 C   0  0  0  0  0  0  0  0  0  0  0  0
    6.7666    8.9277   -1.8451 C   0  0  0  0  0  0  0  0  0  0  0  0
    6.5044    7.5856   -1.9867 C   0  0  0  0  0  0  0  0  0  0  0  0
    7.2941    6.5608   -1.4372 C   0  0  0  0  0  0  0  0  0  0  0  0
    7.8896    5.6826   -0.9960 N   0  0  0  0  0  0  0  0  0  0  0  0
    5.4379    7.0905   -2.7618 C   0  0  0  0  0  0  0  0  0  0  0  0
    4.6090    6.6503   -3.4256 N   0  0  0  0  0  0  0  0  0  0  0  0
   11.3193    9.7782    0.5934 C   0  0  0  0  0  0  0  0  0  0  0  0
   12.5090    9.0123   -0.0226 C   0  0  0  0  0  0  0  0  0  0  0  0
   13.7193    9.6280    0.6412 C   0  0  0  0  0  0  0  0  0  0  0  0
   13.8701   10.8513    0.1498 C   0  0  0  0  0  0  0  0  0  0  0  0
   12.7639   11.0829   -0.8543 C   0  0  0  0  0  0  0  0  0  0  0  0
   12.6097    9.6610   -1.4092 C   0  0  0  0  0  0  0  0  0  0  0  0
   11.4966   11.2192    0.0162 C   0  0  0  0  0  0  0  0  0  0  0  0
    3.6534    9.3677   -2.2406 C   0  0  0  0  0  0  0  0  0  0  0  0
    2.3697    9.1339   -2.7615 C   0  0  0  0  0  0  0  0  0  0  0  0
    1.8703    9.5974   -3.9492 N   0  0  0  0  0  0  0  0  0  0  0  0
    2.1254   10.8879   -4.4238 C   0  0  0  0  0  0  0  0  0  0  0  0
    2.2196   11.9608   -3.5380 C   0  0  0  0  0  0  0  0  0  0  0  0
    2.4747   13.2309   -4.0128 C   0  0  0  0  0  0  0  0  0  0  0  0
    2.6316   13.4707   -5.3738 C   0  0  0  0  0  0  0  0  0  0  0  0
    2.9409   14.8483   -5.8703 C   0  0  0  0  0  0  0  0  0  0  0  0
    2.5174   12.3983   -6.2502 C   0  0  0  0  0  0  0  0  0  0  0  0
    2.2695   11.1206   -5.7888 C   0  0  0  0  0  0  0  0  0  0  0  0
    1.0820    8.7050   -4.7104 C   0  0  0  0  0  0  0  0  0  0  0  0
    1.5051    7.3876   -4.8781 C   0  0  0  0  0  0  0  0  0  0  0  0
    0.7026    6.4896   -5.5501 C   0  0  0  0  0  0  0  0  0  0  0  0
   -0.5230    6.8792   -6.0814 C   0  0  0  0  0  0  0  0  0  0  0  0
   -1.3891    5.8756   -6.7786 C   0  0  0  0  0  0  0  0  0  0  0  0
   -0.9118    8.2054   -5.9459 C   0  0  0  0  0  0  0  0  0  0  0  0
   -0.1235    9.1152   -5.2652 C   0  0  0  0  0  0  0  0  0  0  0  0
    1.6742    8.1894   -1.9689 C   0  0  0  0  0  0  0  0  0  0  0  0
    0.1279    7.4246   -2.0860 S   0  0  0  0  0  0  0  0  0  0  0  0
    0.5120    6.3722   -0.7237 C   0  0  0  0  0  0  0  0  0  0  0  0
    1.7886    6.6109   -0.2177 C   0  0  0  0  0  0  0  0  0  0  0  0
    2.4821    5.8243    0.6852 N   0  0  0  0  0  0  0  0  0  0  0  0
    2.4054    4.4212    0.6226 C   0  0  0  0  0  0  0  0  0  0  0  0
    2.5021    3.6845    1.8024 C   0  0  0  0  0  0  0  0  0  0  0  0
    2.3301    2.3164    1.7813 C   0  0  0  0  0  0  0  0  0  0  0  0
    2.0715    1.6433    0.5913 C   0  0  0  0  0  0  0  0  0  0  0  0
    1.8370    0.1636    0.5965 C   0  0  0  0  0  0  0  0  0  0  0  0
    2.0428    2.3786   -0.5863 C   0  0  0  0  0  0  0  0  0  0  0  0
    2.2066    3.7507   -0.5800 C   0  0  0  0  0  0  0  0  0  0  0  0
    3.5781    6.4045    1.3515 C   0  0  0  0  0  0  0  0  0  0  0  0
    4.8364    5.8110    1.2948 C   0  0  0  0  0  0  0  0  0  0  0  0
    5.9197    6.4301    1.8835 C   0  0  0  0  0  0  0  0  0  0  0  0
    5.7804    7.6454    2.5443 C   0  0  0  0  0  0  0  0  0  0  0  0
    6.9736    8.3446    3.1204 C   0  0  0  0  0  0  0  0  0  0  0  0
    4.5142    8.2112    2.6294 C   0  0  0  0  0  0  0  0  0  0  0  0
    3.4209    7.6031    2.0427 C   0  0  0  0  0  0  0  0  0  0  0  0
    2.3904    7.6995   -0.8904 C   0  0  0  0  0  0  0  0  0  0  0  0
    3.9154    8.4831   -0.7343 S   0  0  0  0  0  0  0  0  0  0  0  0
   -0.4195    5.3437   -0.4272 C   0  0  0  0  0  0  0  0  0  0  0  0
   -1.3227    4.8012   -1.3281 C   0  0  0  0  0  0  0  0  0  0  0  0
   -1.9484    3.6692   -0.8223 C   0  0  0  0  0  0  0  0  0  0  0  0
   -2.8189    2.5647   -1.3855 C   0  0  0  0  0  0  0  0  0  0  0  0
   -2.2972    2.2900   -2.7775 C   0  0  0  0  0  0  0  0  0  0  0  0
   -3.0407    2.5457   -3.9185 C   0  0  0  0  0  0  0  0  0  0  0  0
   -2.4720    2.3869   -5.1712 C   0  0  0  0  0  0  0  0  0  0  0  0
   -1.1512    1.9870   -5.3144 C   0  0  0  0  0  0  0  0  0  0  0  0
   -0.5534    1.7728   -6.6749 C   0  0  0  0  0  0  0  0  0  0  0  0
   -0.7107    0.3104   -7.0965 C   0  0  0  0  0  0  0  0  0  0  0  0
   -0.4062    1.7430   -4.1663 C   0  0  0  0  0  0  0  0  0  0  0  0
   -0.9700    1.8944   -2.9154 C   0  0  0  0  0  0  0  0  0  0  0  0
   -4.2874    2.9709   -1.3623 C   0  0  0  0  0  0  0  0  0  0  0  0
   -4.6661    4.2909   -1.1519 C   0  0  0  0  0  0  0  0  0  0  0  0
   -6.0026    4.6462   -1.1336 C   0  0  0  0  0  0  0  0  0  0  0  0
   -6.9987    3.6990   -1.3245 C   0  0  0  0  0  0  0  0  0  0  0  0
   -8.4486    4.0840   -1.2575 C   0  0  0  0  0  0  0  0  0  0  0  0
   -8.9442    4.0509    0.1896 C   0  0  0  0  0  0  0  0  0  0  0  0
   -6.6158    2.3819   -1.5388 C   0  0  0  0  0  0  0  0  0  0  0  0
   -5.2817    2.0205   -1.5597 C   0  0  0  0  0  0  0  0  0  0  0  0
   -2.6002    1.4758   -0.3306 C   0  0  0  0  0  0  0  0  0  0  0  0
   -1.9632    2.0420    0.7645 C   0  0  0  0  0  0  0  0  0  0  0  0
   -1.5441    3.3581    0.4671 C   0  0  0  0  0  0  0  0  0  0  0  0
   -0.4607    4.5167    1.1193 S   0  0  0  0  0  0  0  0  0  0  0  0
   -1.7218    0.9975    2.1065 S   0  0  0  0  0  0  0  0  0  0  0  0
   -2.4771   -0.2876    1.1934 C   0  0  0  0  0  0  0  0  0  0  0  0
   -2.5926   -1.5553    1.7313 C   0  0  0  0  0  0  0  0  0  0  0  0
   -2.2073   -1.7644    3.0336 O   0  0  0  0  0  0  0  0  0  0  0  0
   -3.2854   -1.7499    3.9634 C   0  0  0  0  0  0  0  0  0  0  0  0
   -3.9271   -0.3814    4.1598 C   0  0  0  0  0  0  0  0  0  0  0  0
   -3.0724   -2.5780    0.8973 C   0  0  0  0  0  0  0  0  0  0  0  0
   -3.5264   -2.2000   -0.3994 C   0  0  0  0  0  0  0  0  0  0  0  0
   -3.4174   -0.9264   -0.9338 C   0  0  0  0  0  0  0  0  0  0  0  0
   -2.8803    0.0964   -0.1225 C   0  0  0  0  0  0  0  0  0  0  0  0
   -3.8495   -0.7131   -2.2247 O   0  0  0  0  0  0  0  0  0  0  0  0
   -2.8531   -0.7948   -3.2396 C   0  0  0  0  0  0  0  0  0  0  0  0
   -2.5544   -2.2071   -3.7270 C   0  0  0  0  0  0  0  0  0  0  0  0
   -4.1814   -3.5519   -1.3042 S   0  0  0  0  0  0  0  0  0  0  0  0
   -3.6714   -4.6174   -0.0460 C   0  0  0  0  0  0  0  0  0  0  0  0
   -3.5825   -6.0215    0.0985 C   0  0  0  0  0  0  0  0  0  0  0  0
   -2.9238   -6.2955    1.3007 C   0  0  0  0  0  0  0  0  0  0  0  0
   -2.5515   -5.0116    2.0232 C   0  0  0  0  0  0  0  0  0  0  0  0
   -3.1102   -3.9861    1.0511 C   0  0  0  0  0  0  0  0  0  0  0  0
   -1.0380   -4.9586    2.1458 C   0  0  0  0  0  0  0  0  0  0  0  0
   -0.2622   -4.0187    1.4845 C   0  0  0  0  0  0  0  0  0  0  0  0
    1.1162   -4.0254    1.6109 C   0  0  0  0  0  0  0  0  0  0  0  0
    1.7614   -4.9750    2.3879 C   0  0  0  0  0  0  0  0  0  0  0  0
    3.2593   -5.0077    2.4866 C   0  0  0  0  0  0  0  0  0  0  0  0
    3.8457   -5.9157    1.4038 C   0  0  0  0  0  0  0  0  0  0  0  0
    0.9847   -5.9294    3.0326 C   0  0  0  0  0  0  0  0  0  0  0  0
   -0.3906   -5.9224    2.9142 C   0  0  0  0  0  0  0  0  0  0  0  0
   -3.2785   -4.9671    3.3573 C   0  0  0  0  0  0  0  0  0  0  0  0
   -4.6573   -5.1564    3.3580 C   0  0  0  0  0  0  0  0  0  0  0  0
   -5.3745   -5.1224    4.5375 C   0  0  0  0  0  0  0  0  0  0  0  0
   -4.7350   -4.9093    5.7523 C   0  0  0  0  0  0  0  0  0  0  0  0
   -5.5194   -4.8094    7.0283 C   0  0  0  0  0  0  0  0  0  0  0  0
   -5.9271   -3.3565    7.2830 C   0  0  0  0  0  0  0  0  0  0  0  0
   -3.3600   -4.7266    5.7473 C   0  0  0  0  0  0  0  0  0  0  0  0
   -2.6372   -4.7486    4.5670 C   0  0  0  0  0  0  0  0  0  0  0  0
   -2.7584   -7.6480    1.5041 C   0  0  0  0  0  0  0  0  0  0  0  0
   -3.2816   -8.4214    0.4640 C   0  0  0  0  0  0  0  0  0  0  0  0
   -4.0257   -7.4256   -0.7759 S   0  0  0  0  0  0  0  0  0  0  0  0
   -3.1337   -9.8234    0.4128 C   0  0  0  0  0  0  0  0  0  0  0  0
   -2.1378  -10.5588    1.6416 S   0  0  0  0  0  0  0  0  0  0  0  0
   -2.3551  -12.1471    0.9612 C   0  0  0  0  0  0  0  0  0  0  0  0
   -3.1530  -12.0871   -0.1861 C   0  0  0  0  0  0  0  0  0  0  0  0
   -3.4650  -13.2585   -1.0230 C   0  0  0  0  0  0  0  0  0  0  0  0
   -2.8679  -14.3202   -0.9418 O   0  0  0  0  0  0  0  0  0  0  0  0
   -4.5455  -13.0184   -1.9755 C   0  0  0  0  0  0  0  0  0  0  0  0
   -5.1572  -13.9944   -2.7220 C   0  0  0  0  0  0  0  0  0  0  0  0
   -4.9363  -15.4632   -2.6971 C   0  0  0  0  0  0  0  0  0  0  0  0
   -5.5780  -16.0998   -1.4599 C   0  0  0  0  0  0  0  0  0  0  0  0
   -6.3768  -13.3101   -3.7415 S   0  0  0  0  0  0  0  0  0  0  0  0
   -6.0453  -11.7021   -3.1922 C   0  0  0  0  0  0  0  0  0  0  0  0
   -6.7797  -10.5480   -3.7711 C   0  0  0  0  0  0  0  0  0  0  0  0
   -5.9829   -9.9221   -4.9198 C   0  0  0  0  0  0  0  0  0  0  0  0
   -5.0460  -11.7055   -2.2510 C   0  0  0  0  0  0  0  0  0  0  0  0
   -4.5264  -10.5128   -1.5870 C   0  0  0  0  0  0  0  0  0  0  0  0
   -4.8597   -9.3786   -1.9164 O   0  0  0  0  0  0  0  0  0  0  0  0
   -3.6111  -10.7869   -0.4889 C   0  0  0  0  0  0  0  0  0  0  0  0
   -1.8868  -13.3452    1.5312 C   0  0  0  0  0  0  0  0  0  0  0  0
   -1.0320  -13.5411    2.5782 C   0  0  0  0  0  0  0  0  0  0  0  0
   -0.2292  -12.5192    3.2693 C   0  0  0  0  0  0  0  0  0  0  0  0
   -0.3525  -11.3093    3.2075 O   0  0  0  0  0  0  0  0  0  0  0  0
    0.7775  -13.2567    4.0515 C   0  0  0  0  0  0  0  0  0  0  0  0
    1.8171  -12.7135    4.8030 C   0  0  0  0  0  0  0  0  0  0  0  0
    2.6138  -13.6506    5.4149 C   0  0  0  0  0  0  0  0  0  0  0  0
    2.3980  -15.0294    5.2850 C   0  0  0  0  0  0  0  0  0  0  0  0
    1.3751  -15.5793    4.5490 C   0  0  0  0  0  0  0  0  0  0  0  0
    0.5475  -14.6428    3.9240 C   0  0  0  0  0  0  0  0  0  0  0  0
   -0.6307  -14.8408    3.0845 C   0  0  0  0  0  0  0  0  0  0  0  0
   -1.2968  -16.0216    2.8902 C   0  0  0  0  0  0  0  0  0  0  0  0
   -2.5304  -16.1542    2.2139 C   0  0  0  0  0  0  0  0  0  0  0  0
   -3.5568  -16.3446    1.7356 N   0  0  0  0  0  0  0  0  0  0  0  0
   -0.8779  -17.2617    3.4151 C   0  0  0  0  0  0  0  0  0  0  0  0
   -0.5865  -18.2994    3.8106 N   0  0  0  0  0  0  0  0  0  0  0  0
    3.5744  -15.3765    6.1624 C   0  0  0  0  0  0  0  0  0  0  0  0
    3.2821  -15.8211    7.6167 C   0  0  0  0  0  0  0  0  0  0  0  0
    1.9676  -15.1887    8.0017 C   0  0  0  0  0  0  0  0  0  0  0  0
    2.1678  -13.8837    8.1277 C   0  0  0  0  0  0  0  0  0  0  0  0
    3.6214  -13.6100    7.8303 C   0  0  0  0  0  0  0  0  0  0  0  0
    4.2562  -14.9014    8.3704 C   0  0  0  0  0  0  0  0  0  0  0  0
    3.8121  -13.8406    6.3105 C   0  0  0  0  0  0  0  0  0  0  0  0
    4.4513   10.9846   -3.3957 H   0  0  0  0  0  0  0  0  0  0  0  0
    9.3246   12.6052   -1.9066 H   0  0  0  0  0  0  0  0  0  0  0  0
    8.8257    7.9164   -0.0516 H   0  0  0  0  0  0  0  0  0  0  0  0
   11.2461    9.6556    1.6727 H   0  0  0  0  0  0  0  0  0  0  0  0
   12.4238    7.9299    0.0190 H   0  0  0  0  0  0  0  0  0  0  0  0
   14.2893    9.1475    1.4148 H   0  0  0  0  0  0  0  0  0  0  0  0
   14.5910   11.5966    0.4311 H   0  0  0  0  0  0  0  0  0  0  0  0
   12.9137   11.8867   -1.5702 H   0  0  0  0  0  0  0  0  0  0  0  0
   11.7269    9.5197   -2.0297 H   0  0  0  0  0  0  0  0  0  0  0  0
   13.4938    9.3334   -1.9537 H   0  0  0  0  0  0  0  0  0  0  0  0
   11.5460   12.0562    0.7106 H   0  0  0  0  0  0  0  0  0  0  0  0
    2.0899   11.7894   -2.4792 H   0  0  0  0  0  0  0  0  0  0  0  0
    2.5525   14.0520   -3.3154 H   0  0  0  0  0  0  0  0  0  0  0  0
    2.3599   15.5938   -5.3311 H   0  0  0  0  0  0  0  0  0  0  0  0
    3.9968   15.0680   -5.7102 H   0  0  0  0  0  0  0  0  0  0  0  0
    2.7317   14.9368   -6.9334 H   0  0  0  0  0  0  0  0  0  0  0  0
    2.6353   12.5625   -7.3114 H   0  0  0  0  0  0  0  0  0  0  0  0
    2.1963   10.2939   -6.4796 H   0  0  0  0  0  0  0  0  0  0  0  0
    2.4565    7.0757   -4.4727 H   0  0  0  0  0  0  0  0  0  0  0  0
    1.0279    5.4656   -5.6621 H   0  0  0  0  0  0  0  0  0  0  0  0
   -2.3321    6.3196   -7.0871 H   0  0  0  0  0  0  0  0  0  0  0  0
   -1.5963    5.0342   -6.1175 H   0  0  0  0  0  0  0  0  0  0  0  0
   -0.8821    5.4871   -7.6614 H   0  0  0  0  0  0  0  0  0  0  0  0
   -1.8540    8.5316   -6.3622 H   0  0  0  0  0  0  0  0  0  0  0  0
   -0.4449   10.1397   -5.1477 H   0  0  0  0  0  0  0  0  0  0  0  0
    2.6838    4.2016    2.7326 H   0  0  0  0  0  0  0  0  0  0  0  0
    2.3767    1.7593    2.7054 H   0  0  0  0  0  0  0  0  0  0  0  0
    2.7358   -0.3608    0.9200 H   0  0  0  0  0  0  0  0  0  0  0  0
    1.5660   -0.1932   -0.3947 H   0  0  0  0  0  0  0  0  0  0  0  0
    1.0374   -0.0917    1.2915 H   0  0  0  0  0  0  0  0  0  0  0  0
    1.8944    1.8736   -1.5300 H   0  0  0  0  0  0  0  0  0  0  0  0
    2.1738    4.3034   -1.5074 H   0  0  0  0  0  0  0  0  0  0  0  0
    4.9647    4.8796    0.7635 H   0  0  0  0  0  0  0  0  0  0  0  0
    6.8935    5.9695    1.8058 H   0  0  0  0  0  0  0  0  0  0  0  0
    7.3832    9.0414    2.3869 H   0  0  0  0  0  0  0  0  0  0  0  0
    7.7531    7.6322    3.3797 H   0  0  0  0  0  0  0  0  0  0  0  0
    6.7021    8.9123    4.0076 H   0  0  0  0  0  0  0  0  0  0  0  0
    4.3822    9.1463    3.1543 H   0  0  0  0  0  0  0  0  0  0  0  0
    2.4417    8.0553    2.1053 H   0  0  0  0  0  0  0  0  0  0  0  0
   -1.4405    5.1808   -2.3278 H   0  0  0  0  0  0  0  0  0  0  0  0
   -4.0661    2.8724   -3.8339 H   0  0  0  0  0  0  0  0  0  0  0  0
   -3.0666    2.5859   -6.0521 H   0  0  0  0  0  0  0  0  0  0  0  0
   -1.0518    2.4129   -7.4056 H   0  0  0  0  0  0  0  0  0  0  0  0
    0.5075    2.0306   -6.6602 H   0  0  0  0  0  0  0  0  0  0  0  0
   -0.2863    0.1506   -8.0849 H   0  0  0  0  0  0  0  0  0  0  0  0
   -1.7631    0.0354   -7.1211 H   0  0  0  0  0  0  0  0  0  0  0  0
   -0.2033   -0.3435   -6.3906 H   0  0  0  0  0  0  0  0  0  0  0  0
    0.6274    1.4398   -4.2574 H   0  0  0  0  0  0  0  0  0  0  0  0
   -0.3823    1.7143   -2.0259 H   0  0  0  0  0  0  0  0  0  0  0  0
   -3.9185    5.0555   -1.0064 H   0  0  0  0  0  0  0  0  0  0  0  0
   -6.2730    5.6803   -0.9722 H   0  0  0  0  0  0  0  0  0  0  0  0
   -9.0436    3.3926   -1.8576 H   0  0  0  0  0  0  0  0  0  0  0  0
   -8.5833    5.0903   -1.6602 H   0  0  0  0  0  0  0  0  0  0  0  0
   -8.8286    3.0523    0.6054 H   0  0  0  0  0  0  0  0  0  0  0  0
   -9.9944    4.3293    0.2397 H   0  0  0  0  0  0  0  0  0  0  0  0
   -8.3709    4.7437    0.8016 H   0  0  0  0  0  0  0  0  0  0  0  0
   -7.3708    1.6248   -1.6969 H   0  0  0  0  0  0  0  0  0  0  0  0
   -5.0166    0.9947   -1.7510 H   0  0  0  0  0  0  0  0  0  0  0  0
   -2.8365   -2.0910    4.8974 H   0  0  0  0  0  0  0  0  0  0  0  0
   -4.0519   -2.4715    3.6547 H   0  0  0  0  0  0  0  0  0  0  0  0
   -3.1852    0.3466    4.4771 H   0  0  0  0  0  0  0  0  0  0  0  0
   -4.6947   -0.4616    4.9252 H   0  0  0  0  0  0  0  0  0  0  0  0
   -4.3913   -0.0331    3.2393 H   0  0  0  0  0  0  0  0  0  0  0  0
   -1.9290   -0.3259   -2.8868 H   0  0  0  0  0  0  0  0  0  0  0  0
   -3.2555   -0.1982   -4.0619 H   0  0  0  0  0  0  0  0  0  0  0  0
   -1.9089   -2.1418   -4.5995 H   0  0  0  0  0  0  0  0  0  0  0  0
   -3.4731   -2.7163   -4.0046 H   0  0  0  0  0  0  0  0  0  0  0  0
   -2.0453   -2.7895   -2.9631 H   0  0  0  0  0  0  0  0  0  0  0  0
   -0.7197   -3.2646    0.8648 H   0  0  0  0  0  0  0  0  0  0  0  0
    1.6963   -3.2744    1.0934 H   0  0  0  0  0  0  0  0  0  0  0  0
    3.5575   -5.3810    3.4686 H   0  0  0  0  0  0  0  0  0  0  0  0
    3.6607   -3.9993    2.3678 H   0  0  0  0  0  0  0  0  0  0  0  0
    3.5699   -5.5521    0.4164 H   0  0  0  0  0  0  0  0  0  0  0  0
    3.4646   -6.9285    1.5128 H   0  0  0  0  0  0  0  0  0  0  0  0
    4.9308   -5.9423    1.4741 H   0  0  0  0  0  0  0  0  0  0  0  0
    1.4613   -6.6874    3.6378 H   0  0  0  0  0  0  0  0  0  0  0  0
   -0.9673   -6.6702    3.4364 H   0  0  0  0  0  0  0  0  0  0  0  0
   -5.1740   -5.3265    2.4238 H   0  0  0  0  0  0  0  0  0  0  0  0
   -6.4455   -5.2663    4.5152 H   0  0  0  0  0  0  0  0  0  0  0  0
   -6.4158   -5.4293    6.9644 H   0  0  0  0  0  0  0  0  0  0  0  0
   -4.9155   -5.1657    7.8651 H   0  0  0  0  0  0  0  0  0  0  0  0
   -6.5399   -2.9871    6.4636 H   0  0  0  0  0  0  0  0  0  0  0  0
   -6.4959   -3.2758    8.2064 H   0  0  0  0  0  0  0  0  0  0  0  0
   -5.0449   -2.7246    7.3608 H   0  0  0  0  0  0  0  0  0  0  0  0
   -2.8426   -4.5580    6.6814 H   0  0  0  0  0  0  0  0  0  0  0  0
   -1.5731   -4.5736    4.5941 H   0  0  0  0  0  0  0  0  0  0  0  0
   -2.2789   -8.1019    2.3519 H   0  0  0  0  0  0  0  0  0  0  0  0
   -3.8622  -15.6567   -2.6696 H   0  0  0  0  0  0  0  0  0  0  0  0
   -5.3585  -15.9069   -3.6010 H   0  0  0  0  0  0  0  0  0  0  0  0
   -6.6383  -15.8605   -1.4108 H   0  0  0  0  0  0  0  0  0  0  0  0
   -5.4650  -17.1791   -1.5049 H   0  0  0  0  0  0  0  0  0  0  0  0
   -5.0905  -15.7455   -0.5561 H   0  0  0  0  0  0  0  0  0  0  0  0
   -6.9217   -9.7927   -2.9956 H   0  0  0  0  0  0  0  0  0  0  0  0
   -7.7533  -10.8805   -4.1364 H   0  0  0  0  0  0  0  0  0  0  0  0
   -5.0401   -9.5341   -4.5440 H   0  0  0  0  0  0  0  0  0  0  0  0
   -6.5460   -9.1013   -5.3549 H   0  0  0  0  0  0  0  0  0  0  0  0
   -5.7819  -10.6601   -5.6936 H   0  0  0  0  0  0  0  0  0  0  0  0
   -2.2443  -14.2304    1.0176 H   0  0  0  0  0  0  0  0  0  0  0  0
    1.9517  -11.6453    4.8718 H   0  0  0  0  0  0  0  0  0  0  0  0
    1.2248  -16.6417    4.4522 H   0  0  0  0  0  0  0  0  0  0  0  0
    4.3576  -15.9709    5.6960 H   0  0  0  0  0  0  0  0  0  0  0  0
    3.3684  -16.8907    7.7876 H   0  0  0  0  0  0  0  0  0  0  0  0
    1.0439  -15.7311    8.0833 H   0  0  0  0  0  0  0  0  0  0  0  0
    1.4443  -13.1172    8.3356 H   0  0  0  0  0  0  0  0  0  0  0  0
    4.0172  -12.6663    8.1968 H   0  0  0  0  0  0  0  0  0  0  0  0
    4.1699  -14.9926    9.4521 H   0  0  0  0  0  0  0  0  0  0  0  0
    5.2954  -15.0320    8.0718 H   0  0  0  0  0  0  0  0  0  0  0  0
    4.7520  -13.4321    5.9439 H   0  0  0  0  0  0  0  0  0  0  0  0
  1  2  2  0  0  0  0
  2  3  1  0  0  0  0
  3  4  2  0  0  0  0
  3  5  1  0  0  0  0
  5  6  2  0  0  0  0
  6  7  1  0  0  0  0
  7  8  2  0  0  0  0
  8  9  1  0  0  0  0
  9 10  2  0  0  0  0
 10 11  1  0  0  0  0
 11 12  2  0  0  0  0
 12 13  1  0  0  0  0
 13 14  3  0  0  0  0
 12 15  1  0  0  0  0
 15 16  3  0  0  0  0
  8 17  1  0  0  0  0
 17 18  1  0  0  0  0
 18 19  1  0  0  0  0
 19 20  2  0  0  0  0
 20 21  1  0  0  0  0
 21 22  1  0  0  0  0
 21 23  1  0  0  0  0
  1 24  1  0  0  0  0
 24 25  2  0  0  0  0
 25 26  1  0  0  0  0
 26 27  1  0  0  0  0
 27 28  2  0  0  0  0
 28 29  1  0  0  0  0
 29 30  2  0  0  0  0
 30 31  1  0  0  0  0
 30 32  1  0  0  0  0
 32 33  2  0  0  0  0
 26 34  1  0  0  0  0
 34 35  2  0  0  0  0
 35 36  1  0  0  0  0
 36 37  2  0  0  0  0
 37 38  1  0  0  0  0
 37 39  1  0  0  0  0
 39 40  2  0  0  0  0
 25 41  1  0  0  0  0
 41 42  1  0  0  0  0
 42 43  1  0  0  0  0
 43 44  2  0  0  0  0
 44 45  1  0  0  0  0
 45 46  1  0  0  0  0
 46 47  2  0  0  0  0
 47 48  1  0  0  0  0
 48 49  2  0  0  0  0
 49 50  1  0  0  0  0
 49 51  1  0  0  0  0
 51 52  2  0  0  0  0
 45 53  1  0  0  0  0
 53 54  2  0  0  0  0
 54 55  1  0  0  0  0
 55 56  2  0  0  0  0
 56 57  1  0  0  0  0
 56 58  1  0  0  0  0
 58 59  2  0  0  0  0
 44 60  1  0  0  0  0
 60 61  1  0  0  0  0
 43 62  1  0  0  0  0
 62 63  2  0  0  0  0
 63 64  1  0  0  0  0
 64 65  1  0  0  0  0
 65 66  1  0  0  0  0
 66 67  2  0  0  0  0
 67 68  1  0  0  0  0
 68 69  2  0  0  0  0
 69 70  1  0  0  0  0
 70 71  1  0  0  0  0
 69 72  1  0  0  0  0
 72 73  2  0  0  0  0
 65 74  1  0  0  0  0
 74 75  2  0  0  0  0
 75 76  1  0  0  0  0
 76 77  2  0  0  0  0
 77 78  1  0  0  0  0
 78 79  1  0  0  0  0
 77 80  1  0  0  0  0
 80 81  2  0  0  0  0
 65 82  1  0  0  0  0
 82 83  2  0  0  0  0
 83 84  1  0  0  0  0
 84 85  1  0  0  0  0
 83 86  1  0  0  0  0
 86 87  1  0  0  0  0
 87 88  2  0  0  0  0
 88 89  1  0  0  0  0
 89 90  1  0  0  0  0
 90 91  1  0  0  0  0
 88 92  1  0  0  0  0
 92 93  2  0  0  0  0
 93 94  1  0  0  0  0
 94 95  2  0  0  0  0
 94 96  1  0  0  0  0
 96 97  1  0  0  0  0
 97 98  1  0  0  0  0
 93 99  1  0  0  0  0
 99100  1  0  0  0  0
100101  1  0  0  0  0
101102  2  0  0  0  0
102103  1  0  0  0  0
103104  1  0  0  0  0
103105  1  0  0  0  0
105106  2  0  0  0  0
106107  1  0  0  0  0
107108  2  0  0  0  0
108109  1  0  0  0  0
109110  1  0  0  0  0
108111  1  0  0  0  0
111112  2  0  0  0  0
103113  1  0  0  0  0
113114  2  0  0  0  0
114115  1  0  0  0  0
115116  2  0  0  0  0
116117  1  0  0  0  0
117118  1  0  0  0  0
116119  1  0  0  0  0
119120  2  0  0  0  0
102121  1  0  0  0  0
121122  2  0  0  0  0
122123  1  0  0  0  0
122124  1  0  0  0  0
124125  1  0  0  0  0
125126  1  0  0  0  0
126127  2  0  0  0  0
127128  1  0  0  0  0
128129  2  0  0  0  0
128130  1  0  0  0  0
130131  2  0  0  0  0
131132  1  0  0  0  0
132133  1  0  0  0  0
131134  1  0  0  0  0
134135  1  0  0  0  0
135136  1  0  0  0  0
136137  1  0  0  0  0
135138  2  0  0  0  0
138139  1  0  0  0  0
139140  2  0  0  0  0
139141  1  0  0  0  0
126142  1  0  0  0  0
142143  2  0  0  0  0
143144  1  0  0  0  0
144145  2  0  0  0  0
144146  1  0  0  0  0
146147  2  0  0  0  0
147148  1  0  0  0  0
148149  2  0  0  0  0
149150  1  0  0  0  0
150151  2  0  0  0  0
151152  1  0  0  0  0
152153  2  0  0  0  0
153154  1  0  0  0  0
154155  3  0  0  0  0
153156  1  0  0  0  0
156157  3  0  0  0  0
149158  1  0  0  0  0
158159  1  0  0  0  0
159160  1  0  0  0  0
160161  2  0  0  0  0
161162  1  0  0  0  0
162163  1  0  0  0  0
162164  1  0  0  0  0
 11  2  1  0  0  0  0
 23 17  1  0  0  0  0
 61 24  1  0  0  0  0
 85 62  1  0  0  0  0
 95 87  1  0  0  0  0
104100  2  0  0  0  0
112105  1  0  0  0  0
120113  1  0  0  0  0
141124  2  0  0  0  0
152143  1  0  0  0  0
164158  1  0  0  0  0
 10  5  1  0  0  0  0
 22 18  1  0  0  0  0
 33 27  1  0  0  0  0
 40 34  1  0  0  0  0
 60 41  2  0  0  0  0
 84 64  2  0  0  0  0
104 92  1  0  0  0  0
141127  1  0  0  0  0
151146  1  0  0  0  0
163159  1  0  0  0  0
 23  7  1  0  0  0  0
 52 46  1  0  0  0  0
 59 53  1  0  0  0  0
 73 66  1  0  0  0  0
 81 74  1  0  0  0  0
 95 82  1  0  0  0  0
123101  1  0  0  0  0
138130  1  0  0  0  0
164148  1  0  0  0  0
  1165  1  0  0  0  0
  6166  1  0  0  0  0
  9167  1  0  0  0  0
 17168  1  0  0  0  0
 18169  1  0  0  0  0
 19170  1  0  0  0  0
 20171  1  0  0  0  0
 21172  1  0  0  0  0
 22173  1  0  0  0  0
 22174  1  0  0  0  0
 23175  1  0  0  0  0
 28176  1  0  0  0  0
 29177  1  0  0  0  0
 31178  1  0  0  0  0
 31179  1  0  0  0  0
 31180  1  0  0  0  0
 32181  1  0  0  0  0
 33182  1  0  0  0  0
 35183  1  0  0  0  0
 36184  1  0  0  0  0
 38185  1  0  0  0  0
 38186  1  0  0  0  0
 38187  1  0  0  0  0
 39188  1  0  0  0  0
 40189  1  0  0  0  0
 47190  1  0  0  0  0
 48191  1  0  0  0  0
 50192  1  0  0  0  0
 50193  1  0  0  0  0
 50194  1  0  0  0  0
 51195  1  0  0  0  0
 52196  1  0  0  0  0
 54197  1  0  0  0  0
 55198  1  0  0  0  0
 57199  1  0  0  0  0
 57200  1  0  0  0  0
 57201  1  0  0  0  0
 58202  1  0  0  0  0
 59203  1  0  0  0  0
 63204  1  0  0  0  0
 67205  1  0  0  0  0
 68206  1  0  0  0  0
 70207  1  0  0  0  0
 70208  1  0  0  0  0
 71209  1  0  0  0  0
 71210  1  0  0  0  0
 71211  1  0  0  0  0
 72212  1  0  0  0  0
 73213  1  0  0  0  0
 75214  1  0  0  0  0
 76215  1  0  0  0  0
 78216  1  0  0  0  0
 78217  1  0  0  0  0
 79218  1  0  0  0  0
 79219  1  0  0  0  0
 79220  1  0  0  0  0
 80221  1  0  0  0  0
 81222  1  0  0  0  0
 90223  1  0  0  0  0
 90224  1  0  0  0  0
 91225  1  0  0  0  0
 91226  1  0  0  0  0
 91227  1  0  0  0  0
 97228  1  0  0  0  0
 97229  1  0  0  0  0
 98230  1  0  0  0  0
 98231  1  0  0  0  0
 98232  1  0  0  0  0
106233  1  0  0  0  0
107234  1  0  0  0  0
109235  1  0  0  0  0
109236  1  0  0  0  0
110237  1  0  0  0  0
110238  1  0  0  0  0
110239  1  0  0  0  0
111240  1  0  0  0  0
112241  1  0  0  0  0
114242  1  0  0  0  0
115243  1  0  0  0  0
117244  1  0  0  0  0
117245  1  0  0  0  0
118246  1  0  0  0  0
118247  1  0  0  0  0
118248  1  0  0  0  0
119249  1  0  0  0  0
120250  1  0  0  0  0
121251  1  0  0  0  0
132252  1  0  0  0  0
132253  1  0  0  0  0
133254  1  0  0  0  0
133255  1  0  0  0  0
133256  1  0  0  0  0
136257  1  0  0  0  0
136258  1  0  0  0  0
137259  1  0  0  0  0
137260  1  0  0  0  0
137261  1  0  0  0  0
142262  1  0  0  0  0
147263  1  0  0  0  0
150264  1  0  0  0  0
158265  1  0  0  0  0
159266  1  0  0  0  0
160267  1  0  0  0  0
161268  1  0  0  0  0
162269  1  0  0  0  0
163270  1  0  0  0  0
163271  1  0  0  0  0
164272  1  0  0  0  0
M  END
