179

C         -3.04430        4.94760       -4.91860
C         -2.15060        4.21440       -5.62780
C         -2.29650        4.05940       -7.10140
O         -3.02680        4.69450       -7.82750
C         -1.41050        2.93680       -7.46840
C         -1.27560        2.34520       -8.72280
C         -0.36590        1.31610       -8.76560
C          0.35850        0.89860       -7.63950
C          0.24020        1.47430       -6.39770
C         -0.68200        2.52360       -6.33370
C         -1.03520        3.38600       -5.21010
C         -0.29650        3.53420       -4.06490
C          0.77330        2.69590       -3.69430
N          1.61840        2.01480       -3.31840
C         -0.46070        4.59430       -3.15000
N         -0.46850        5.47720       -2.41650
C          1.07920       -0.18370       -8.40290
C          2.54900        0.08220       -8.81000
C          2.69970        1.57990       -8.91540
C          2.02140        1.98050       -9.98250
C          1.39980        0.76120      -10.61790
C          2.47670       -0.28860      -10.29980
C          0.27950        0.28590       -9.65960
C         -3.27320        4.90170       -3.49810
C         -3.16600        3.69550       -2.79390
C         -3.32770        3.66280       -1.43240
C         -3.54780        4.84040       -0.70500
C         -3.74080        6.03090       -1.41460
C         -3.63260        6.05290       -2.78630
C         -3.49890        4.77900        0.73590
C         -2.94560        5.66560        1.63750
C         -2.35990        6.97700        1.34590
C         -1.46340        7.16010        0.29710
C         -0.89800        8.40390        0.09180
C         -1.20860        9.46440        0.92610
C         -2.09140        9.29390        1.98450
C         -2.38590       10.41520        2.93880
C         -1.47670       10.31550        4.16530
C         -2.65810        8.04440        2.18610
C         -2.87470        5.10270        2.93090
S         -1.98960        5.59560        4.35660
C         -2.23340        4.01660        5.02510
C         -1.69600        3.21450        6.05490
C         -0.75220        3.46610        7.07470
C         -0.17270        2.35320        7.78430
N          0.71000        2.74100        8.69050
S          0.80460        4.35710        8.66250
N         -0.27030        4.62890        7.48250
C         -0.50390        1.03810        7.38740
C          0.15230       -0.19500        7.57600
S          1.64600       -0.81010        8.22010
C          1.46290       -2.27400        7.26350
C          2.33630       -3.34000        6.88840
C          3.70640       -3.52710        7.36220
C          4.27970       -4.79830        7.37660
C          5.57350       -4.97080        7.82690
C          6.31190       -3.88660        8.27040
C          5.76180       -2.61210        8.25810
C          6.53010       -1.42870        8.77270
C          6.11160       -1.10550       10.20810
C          4.46260       -2.44550        7.80260
C          1.74000       -4.15680        5.96060
S          0.09170       -3.68150        5.58090
C          0.24240       -2.30120        6.60000
C         -0.49150       -1.11760        6.75270
N         -1.54050       -0.53400        6.09890
C         -1.53490        0.80690        6.43330
C         -2.19070        1.90640        5.83350
N         -3.09650        1.92040        4.77370
C         -3.04530        3.19490        4.23960
C         -3.39100        3.80950        3.02940
S         -4.01000        3.28270        1.50700
C         -4.35800        1.19460        4.79600
C         -4.74020        0.58110        3.45330
C         -2.09300       -1.19290        4.93570
C         -1.33610       -0.80850        3.66670
C          2.22820       -5.06490        4.90870
C          2.52840       -4.40970        3.71810
C          2.51480       -5.13420        2.54220
N          2.49970       -4.66710        1.25080
C          2.68760       -3.30370        0.83080
C          4.10900       -3.06370        0.32590
C          2.15250       -5.70810        0.42950
C          2.05900       -6.90750        1.18550
C          2.27850       -6.53240        2.55120
C          2.12760       -7.19330        3.76630
C          2.07540       -6.45420        4.93210
C          1.68460       -8.08730        0.55170
C          1.30720       -8.04660       -0.77350
C          1.26060       -6.83060       -1.47650
C          1.75850       -5.66550       -0.89260
C          0.60650       -6.75000       -2.76260
C         -0.19900       -5.73540       -3.15470
C         -0.56020       -5.53710       -4.58560
O         -0.42670       -6.33400       -5.48590
C         -1.05370       -4.14700       -4.67550
C         -1.41850       -3.45280       -5.82890
C         -1.83300       -2.16260       -5.60220
C         -1.86780       -1.58970       -4.32270
C         -1.51050       -2.25720       -3.17710
C         -1.10330       -3.57950       -3.38470
C         -0.73550       -4.60220       -2.41250
C         -1.07350       -4.58230       -1.08610
C         -1.03250       -5.71330       -0.24040
N         -1.13020       -6.60160        0.47930
C         -1.58150       -3.46250       -0.39890
N         -1.94800       -2.58230        0.24250
C         -2.36270       -0.26280       -4.84210
C         -3.85870        0.05810       -4.64130
C         -4.13260        1.15350       -5.64760
C         -4.10300        0.60780       -6.85640
C         -3.81500       -0.86680       -6.68790
C         -4.52590       -1.12570       -5.35320
C         -2.33160       -0.90300       -6.26680
H         -3.68950        5.59640       -5.50250
H         -1.84940        2.69760       -9.56570
H          0.79930        1.13700       -5.54040
H          0.92390       -1.20150       -8.04850
H          3.28590       -0.43280       -8.19960
H          3.22080        2.18120       -8.19370
H          1.86270        2.98410      -10.33090
H          1.09210        0.86430      -11.65500
H          3.41230       -0.10400      -10.82510
H          2.15130       -1.31280      -10.47660
H         -0.39460       -0.42680      -10.13140
H         -2.96790        2.77860       -3.33060
H         -3.23390        2.72420       -0.90560
H         -3.96980        6.93780       -0.87710
H         -3.76550        6.98160       -3.32080
H         -1.20080        6.33500       -0.34570
H         -0.20340        8.54040       -0.72330
H         -0.75790       10.43240        0.75900
H         -3.42870       10.36480        3.25990
H         -2.22590       11.37610        2.44560
H         -1.69210       11.11880        4.86620
H         -0.43290       10.38430        3.86720
H         -1.62430        9.36310        4.66920
H         -3.35090        7.89940        3.00340
H          3.70560       -5.64890        7.04500
H          6.00900       -5.95940        7.83790
H          7.32180       -4.03120        8.62680
H          7.60090       -1.64010        8.74530
H          6.33610       -0.55980        8.14010
H          6.66810       -0.24970       10.58320
H          6.30270       -1.95670       10.85800
H          5.04960       -0.87480       10.24850
H          4.04130       -1.45210        7.78010
H         -5.15000        1.89130        5.10260
H         -4.28850        0.43430        5.57600
H         -5.57700       -0.09860        3.59350
H         -5.04500        1.35390        2.75450
H         -3.91320        0.03470        3.01130
H         -3.15120       -0.97280        4.83560
H         -1.99490       -2.26770        5.10720
H         -0.28090       -1.04790        3.77820
H         -1.72480       -1.36270        2.81640
H         -1.42880        0.25740        3.47130
H          2.64680       -3.33610        3.72150
H          1.96500       -3.07350        0.04150
H          2.47500       -2.64620        1.67600
H          4.22100       -2.03250        0.00260
H          4.32810       -3.71990       -0.51340
H          4.82760       -3.26360        1.11720
H          1.96660       -8.26010        3.78960
H          1.84840       -6.94350        5.86790
H          1.64820       -9.01450        1.10170
H          0.95250       -8.94110       -1.26200
H          1.79630       -4.75020       -1.46530
H          0.77820       -7.54260       -3.48210
H         -1.37010       -3.92600       -6.79720
H         -1.52700       -1.80510       -2.19890
H         -1.71230        0.58590       -4.64050
H         -4.15150        0.25250       -3.61260
H         -4.27170        2.18820       -5.39310
H         -4.20010        1.09870       -7.80670
H         -4.06830       -1.51230       -7.52440
H         -5.60480       -1.00420       -5.43060
H         -4.29890       -2.09390       -4.91050
H         -1.67210       -0.47120       -7.01630
