220

C          3.25000        2.12960        2.69210
C          2.05980        2.52790        3.25190
C          1.05310        1.65170        3.86060
O          1.21310        0.53820        4.33000
C         -0.21220        2.40810        3.83400
C         -1.47280        1.94550        4.20070
C         -2.46800        2.88560        4.08570
C         -2.22670        4.19400        3.64890
C         -0.98800        4.65820        3.27070
C          0.03800        3.71370        3.36870
C          1.46230        3.82780        3.05560
C          2.10110        4.96750        2.63140
C          3.49330        5.09750        2.45860
N          4.61720        5.30450        2.33410
C          1.45660        6.18210        2.34260
N          1.00330        7.20260        2.06900
C         -3.67130        4.60010        3.82100
C         -4.01000        5.42840        5.07870
C         -5.50640        5.27000        5.21900
C         -5.74390        4.02610        5.61520
C         -4.41190        3.32430        5.75020
C         -3.53830        4.50030        6.20510
C         -3.94180        3.13590        4.29250
C          3.76920        0.83890        2.53910
C          4.65300        0.46330        1.49810
N          5.05000        1.28480        0.46970
C          4.18170        2.27840       -0.03550
C          2.81920        2.01870       -0.16820
C          1.95530        3.02620       -0.54540
C          2.42770        4.30280       -0.83060
C          1.48260        5.40190       -1.20650
C          3.79780        4.53100       -0.76850
C          4.67090        3.53670       -0.37020
C          6.25470        1.01670       -0.19560
C          7.37290        0.59180        0.52070
C          8.55380        0.31790       -0.13650
C          8.66300        0.47330       -1.51400
C          9.95720        0.17260       -2.20490
C          7.54920        0.91270       -2.21730
C          6.35620        1.17740       -1.57430
C          4.93960       -0.91000        1.55470
S          5.75500       -2.01480        0.48050
C          5.07100       -3.38180        1.36150
C          4.40940       -2.97920        2.52060
N          3.82500       -3.86150        3.41310
C          2.58670       -3.48380        3.97240
C          2.37910       -3.49700        5.34700
C          1.17610       -3.06180        5.86430
C          0.15960       -2.60170        5.03500
C         -1.11050       -2.06840        5.62050
C          0.36830       -2.61320        3.66290
C          1.56510       -3.05170        3.13230
C          4.53580       -4.95470        3.92040
C          5.92910       -4.97240        3.92710
C          6.60780       -6.07240        4.40900
C          5.92820       -7.18110        4.90240
C          6.68610       -8.36420        5.42240
C          4.54000       -7.15470        4.89600
C          3.84780       -6.06380        4.40880
C          4.30730       -1.57350        2.60160
S          3.30300       -0.53350        3.54030
C          4.84290       -4.62400        0.71680
C          5.28140       -5.03090       -0.54110
C          6.51040       -4.52810       -1.14380
C          7.63880       -4.32420       -0.34830
C          8.80960       -3.86240       -0.91510
C          8.87070       -3.60140       -2.27290
C          7.75830       -3.79790       -3.08130
C          7.80530       -3.46340       -4.54390
C          7.41560       -2.00000       -4.76030
C          6.58550       -4.26160       -2.50750
C          4.35930       -5.91920       -1.13690
S          4.11670       -6.51330       -2.77470
C          2.48140       -6.95920       -2.37170
C          1.24280       -7.17560       -3.01100
C          0.84300       -7.41310       -4.34780
C         -0.55520       -7.31490       -4.69670
N         -0.77260       -7.57770       -5.97310
S          0.64300       -7.91990       -6.68260
N          1.59550       -7.73480       -5.38560
C         -1.47040       -6.81740       -3.73530
C         -2.68760       -6.12660       -3.86890
S         -3.78650       -5.62330       -5.11350
C         -4.47960       -4.45150       -4.00360
C         -5.36390       -3.37770       -4.17870
C         -6.14970       -3.20130       -5.40120
C         -5.54560       -3.27020       -6.65290
C         -6.31440       -3.13640       -7.79420
C         -7.68090       -2.94030       -7.69950
C         -8.30350       -2.88520       -6.45780
C         -9.77590       -2.61590       -6.34130
C        -10.02200       -1.12120       -6.12280
C         -7.52890       -3.02180       -5.31670
C         -5.40810       -2.56410       -3.04110
S         -4.48020       -3.24230       -1.70960
C         -3.92520       -4.52550       -2.72050
C         -2.93490       -5.50400       -2.63670
N         -1.98630       -5.86850       -1.72030
C         -1.05640       -6.64270       -2.38540
C          0.25070       -7.01510       -2.00360
N          0.86440       -6.88090       -0.77320
C          2.20810       -6.77890       -1.01110
C          3.27770       -6.22260       -0.31090
S          3.40840       -5.50690        1.25060
C          0.34440       -7.26220        0.52070
C          1.11170       -8.45190        1.09490
C         -1.85810       -5.11950       -0.48940
C         -0.81490       -4.01050       -0.59780
C         -5.84230       -1.21520       -2.90310
C         -6.36060       -0.43400       -3.93460
C         -6.54500        0.93170       -3.79410
F         -7.02880        1.58570       -4.86680
C         -6.18260        1.68660       -2.67630
C         -5.73830        0.90930       -1.57640
C         -5.60080       -0.51800       -1.68180
N         -5.18750       -1.05960       -0.54360
S         -4.99160        0.09950        0.55850
N         -5.42630        1.35100       -0.36080
C         -6.29500        3.10700       -2.67730
C         -5.60860        4.04370       -1.96970
C         -6.17440        5.41990       -1.88720
O         -7.10520        5.85820       -2.52490
C         -5.39070        6.10880       -0.84630
C         -5.59790        7.39400       -0.34950
C         -4.68560        7.78100        0.60290
C         -3.63360        6.95590        1.02440
C         -3.42040        5.68480        0.54500
C         -4.34780        5.26360       -0.41360
C         -4.41010        4.01210       -1.16530
C         -3.39830        3.08510       -1.22430
C         -2.26920        3.07470       -0.38440
N         -1.33910        2.97020        0.28390
C         -3.31160        2.05270       -2.17780
N         -3.14890        1.21540       -2.94740
C         -3.09390        7.99420        1.97540
C         -1.84480        8.77360        1.51210
C         -1.84520       10.00420        2.39000
C         -2.84100       10.78600        1.99330
C         -3.53510       10.09490        0.84120
C         -2.33500        9.39040        0.19570
C         -4.26930        8.91270        1.50850
H          3.81630        2.89970        2.18480
H         -1.61580        0.93040        4.53680
H         -0.81770        5.66410        2.92420
H         -4.18160        4.95870        2.92900
H         -3.62470        6.44480        5.07820
H         -6.21730        6.03510        4.96710
H         -6.69350        3.54560        5.76240
H         -4.39330        2.42270        6.35680
H         -3.82290        4.86970        7.18910
H         -2.47040        4.29110        6.18880
H         -4.61650        2.52010        3.69980
H          2.43710        1.03300        0.05450
H          0.89610        2.82240       -0.60340
H          1.52900        5.59060       -2.27930
H          1.74180        6.32640       -0.69360
H          0.46100        5.13190       -0.94910
H          4.18550        5.51140       -1.00200
H          5.72760        3.73900       -0.28510
H          7.31230        0.49190        1.59440
H          9.41220       -0.01220        0.43010
H         10.18710       -0.88870       -2.11880
H          9.90940        0.43550       -3.25870
H         10.77340        0.72780       -1.74470
H          7.60940        1.04720       -3.28770
H          5.49580        1.50580       -2.13800
H          3.16980       -3.83000        6.00310
H          1.03050       -3.05780        6.93480
H         -1.43990       -2.67600        6.46130
H         -1.90200       -2.03380        4.87520
H         -0.93450       -1.05660        5.98630
H         -0.41030       -2.26190        3.00090
H          1.72540       -3.04980        2.06330
H          6.47770       -4.11630        3.56240
H          7.68850       -6.06910        4.41060
H          6.00840       -9.12170        5.80770
H          7.28790       -8.80810        4.62980
H          7.36170       -8.06240        6.22180
H          3.98800       -8.00480        5.27070
H          2.76820       -6.06360        4.39810
H          7.59520       -4.55180        0.70680
H          9.68270       -3.71340       -0.29660
H          9.79380       -3.25460       -2.71540
H          8.81270       -3.62920       -4.93080
H          7.11640       -4.10740       -5.09360
H          6.40960       -1.81810       -4.38900
H          7.44870       -1.74900       -5.81800
H          8.09780       -1.34720       -4.22170
H          5.71330       -4.40680       -3.12730
H         -4.47800       -3.40640       -6.72710
H         -5.84280       -3.18230       -8.76440
H         -8.27280       -2.83120       -8.59650
H        -10.19050       -3.17600       -5.50050
H        -10.28550       -2.93680       -7.25150
H         -9.61030       -0.54440       -6.94800
H         -9.54580       -0.78660       -5.20380
H        -11.08790       -0.91720       -6.05460
H         -7.99780       -2.99100       -4.34270
H          0.42390       -6.41500        1.21190
H         -0.70050       -7.54920        0.39360
H          1.09690       -9.28600        0.39670
H          2.14430       -8.18290        1.29970
H          0.64780       -8.76650        2.02580
H         -2.83710       -4.67430       -0.29630
H         -1.62650       -5.78160        0.34250
H          0.16940       -4.41800       -0.81320
H         -0.76860       -3.46250        0.33890
H         -1.08550       -3.31840       -1.39160
H         -6.58110       -0.86630       -4.89560
H         -7.07090        3.51130       -3.32240
H         -6.41130        8.00260       -0.71200
H         -2.61070        5.05920        0.88240
H         -3.04560        7.69880        3.02160
H         -0.92500        8.19800        1.48820
H         -1.17090       10.14930        3.21320
H         -3.17040       11.71550        2.42010
H         -4.15820       10.71450        0.20160
H         -1.61720       10.09630       -0.21780
H         -2.60480        8.65950       -0.56480
H         -5.00820        9.22950        2.24260
