259

C          6.31010       -6.30030       -0.92410
C          6.60140       -5.79730        0.32510
C          6.10880       -4.54190        0.89360
O          5.27020       -3.78510        0.43240
C          6.84380       -4.34340        2.15650
C          6.72040       -3.27290        3.03740
C          7.53350       -3.36220        4.14180
C          8.40510       -4.43760        4.35230
C          8.53740       -5.49920        3.48770
C          7.71880       -5.42850        2.35800
C          7.56140       -6.36290        1.24170
C          8.20820       -7.57060        1.12350
C          7.96330       -8.53840        0.13100
N          7.80530       -9.40090       -0.61360
C          9.20080       -8.03460        2.00830
N         10.03160       -8.47200        2.67100
C          8.90020       -3.88300        5.66490
C          8.35220       -4.51530        6.96810
C          6.99340       -5.07850        6.63390
C          6.16980       -4.05810        6.43480
C          6.95770       -2.78630        6.62990
C          7.93920       -3.24090        7.72180
C          7.93010       -2.68270        5.42910
C          5.42770       -5.84230       -1.89960
C          5.30460       -6.43690       -3.18350
N          6.14730       -7.37720       -3.71000
C          7.53010       -7.39670       -3.44530
C          8.19990       -8.61440       -3.36300
C          9.55440       -8.64000       -3.09710
C         10.27030       -7.46570       -2.89810
C         11.72770       -7.51430       -2.55740
C          9.59630       -6.25450       -3.00670
C          8.24560       -6.21220       -3.28760
C          5.64030       -8.26580       -4.67970
C          4.43260       -8.92290       -4.45780
C          3.92210       -9.77080       -5.41810
C          4.59560       -9.98780       -6.61520
C          4.00610      -10.89380       -7.65090
C          5.81040       -9.34600       -6.81680
C          6.33290       -8.49340       -5.86360
C          4.20380       -5.90350       -3.87770
S          3.49710       -6.18650       -5.44240
C          2.33210       -4.90830       -5.15250
C          2.46700       -4.32260       -3.90160
N          1.65880       -3.32130       -3.37690
C          2.27950       -2.28340       -2.66010
C          1.66440       -1.72590       -1.54260
C          2.27610       -0.69690       -0.85670
C          3.51940       -0.21130       -1.24470
C          4.18900        0.88250       -0.47200
C          4.12990       -0.78010       -2.35440
C          3.51860       -1.79500       -3.06350
C          0.27580       -3.29970       -3.59340
C         -0.40480       -2.09280       -3.75100
C         -1.76180       -2.08490       -4.00620
C         -2.48120       -3.26610       -4.13170
C         -3.94800       -3.25880       -4.43560
C         -1.80150       -4.46580       -3.95600
C         -0.45040       -4.48540       -3.67630
C          3.54330       -4.89710       -3.18470
S          4.24680       -4.55200       -1.64990
C          1.36320       -4.46620       -6.11330
C          0.30960       -5.10760       -6.72680
C          0.06570       -6.54910       -6.75700
C         -0.50220       -7.11120       -7.89940
C         -0.76070       -8.46700       -7.95210
C         -0.48130       -9.27500       -6.86390
C          0.07360       -8.73240       -5.71220
C          0.29290       -9.57710       -4.48970
C         -0.94330       -9.52980       -3.58880
C          0.35510       -7.37600       -5.67710
C         -0.59900       -4.16430       -7.27150
S         -2.26930       -4.32360       -7.76240
C         -2.46460       -2.60820       -7.61140
C         -3.51430       -1.67060       -7.49990
C         -4.91540       -1.73730       -7.67420
C         -5.73040       -0.60040       -7.31590
N         -7.01510       -0.81190       -7.54920
S         -7.19420       -2.30000       -8.16120
N         -5.63620       -2.74100       -8.14670
C         -5.12870        0.50570       -6.67060
C         -5.64920        1.55220       -5.88340
S         -7.17700        2.17960       -5.34270
C         -6.34110        3.17380       -4.16530
C         -6.77870        4.00460       -3.11170
C         -8.18570        4.31190       -2.84660
C         -9.11920        3.28580       -2.73990
C        -10.44050        3.58820       -2.47140
C        -10.83790        4.90380       -2.30560
C         -9.92240        5.94140       -2.42700
C        -10.35320        7.37240       -2.29160
C        -10.76870        7.94090       -3.64940
C         -8.60100        5.63240       -2.71380
C         -5.71240        4.44290       -2.34440
S         -4.16060        3.91700       -2.99030
C         -4.95450        3.04560       -4.24410
C         -4.56010        2.14820       -5.23870
N         -3.39170        1.56480       -5.63810
C         -3.71640        0.55070       -6.51130
C         -2.91140       -0.46980       -7.06060
N         -1.52900       -0.61630       -7.02200
C         -1.27580       -1.94230       -7.30180
C         -0.21580       -2.83550       -7.10510
S          1.33970       -2.72600       -6.37260
C         -0.63340        0.44900       -7.44620
C          0.67170        0.53060       -6.66450
C         -2.16370        1.80060       -4.91480
C         -1.53340        3.14660       -5.26180
C         -5.65190        5.05630       -1.05850
C         -4.58560        4.92370       -0.20950
C         -4.74510        5.56910        1.03470
C         -3.87310        5.54390        2.13710
C         -2.60120        4.81380        2.07290
C         -2.25310        3.90060        3.06370
C         -1.09190        3.15630        2.97990
C         -0.23030        3.30210        1.89880
S          1.25250        2.39020        1.64360
C          1.41210        1.38980        3.17000
C          2.72100        0.62310        3.12610
C         -0.57760        4.24040        0.92470
F          0.24270        4.41730       -0.13390
C         -1.73050        4.98750        0.99690
C         -4.29690        6.20290        3.28200
C         -5.53980        6.89080        3.35550
C         -6.42970        6.88930        2.25690
C         -7.74830        7.52430        2.32120
C         -8.60750        7.29680        3.39300
C         -9.86640        7.86410        3.43680
C        -10.31600        8.68190        2.40600
S        -11.88100        9.48150        2.32580
C        -12.80410        8.82860        3.75890
C        -13.29730        7.41170        3.53230
C         -9.44100        8.90670        1.34040
C         -8.18640        8.34740        1.28400
F         -9.83730        9.70570        0.32890
C         -5.99880        6.22980        1.12120
S         -6.93030        6.01480       -0.34480
C         -5.69020        7.53690        4.59140
C         -4.63470        7.34540        5.46520
S         -3.38150        6.34560        4.75720
C         -4.64120        7.90140        6.76100
C         -3.72050        7.82880        7.76750
C         -2.40950        7.15770        7.70850
O         -1.95640        6.48750        6.80020
C         -1.73730        7.45890        8.98370
C         -0.45710        7.06520        9.36630
C         -0.08810        7.50050       10.61600
C         -0.92920        8.27760       11.42410
C         -2.19290        8.67490       11.05760
C         -2.59250        8.23500        9.79200
C         -3.84900        8.44470        9.07640
C         -4.95570        9.07320        9.58750
C         -5.02980        9.63650       10.87900
N         -5.16890       10.11590       11.91310
C         -6.19510        9.23070        8.93280
N         -7.24170        9.39260        8.48630
C          0.08050        8.35140       12.54170
C         -0.14460        7.44460       13.77680
C         -0.93860        6.25500       13.29700
C         -0.14280        5.51840       12.53330
C          1.20380        6.19700       12.48250
C          1.25090        6.81060       13.89100
C          1.01710        7.48470       11.64210
H          6.85490       -7.19130       -1.20790
H          6.03310       -2.46600        2.83520
H          9.21480       -6.31770        3.66530
H          9.96650       -3.67290        5.72350
H          9.04200       -5.19100        7.46660
H          6.79100       -6.12760        6.52230
H          5.14210       -4.08480        6.12270
H          6.37820       -1.88660        6.82130
H          7.44680       -3.45270        8.66980
H          8.76230       -2.54570        7.88190
H          8.36440       -1.68930        5.33130
H          7.65230       -9.53470       -3.49200
H         10.05940       -9.59100       -3.02120
H         11.85680       -7.84530       -1.52650
H         12.24990       -8.22080       -3.19960
H         12.18730       -6.53470       -2.66250
H         10.13730       -5.32810       -2.87620
H          7.73780       -5.26280       -3.37510
H          3.90680       -8.76520       -3.52720
H          2.98510      -10.27600       -5.24180
H          3.86580      -11.89490       -7.24500
H          4.64900      -10.96000       -8.52460
H          3.03070      -10.52080       -7.96170
H          6.35330       -9.50520       -7.73700
H          7.27330       -7.99090       -6.03550
H          0.70510       -2.10320       -1.21970
H          1.77860       -0.25890       -0.00350
H          4.88120        1.43560       -1.10250
H          3.45470        1.57190       -0.06130
H          4.75580        0.45450        0.35560
H          5.09450       -0.41610       -2.67770
H          3.99540       -2.20890       -3.94050
H          0.14250       -1.16440       -3.68020
H         -2.27510       -1.14080       -4.12170
H         -4.32010       -2.24170       -4.53940
H         -4.50380       -3.75320       -3.63940
H         -4.14930       -3.79610       -5.36160
H         -2.33960       -5.39930       -4.03710
H          0.05270       -5.42490       -3.51020
H         -0.72650       -6.48490       -8.74960
H         -1.19170       -8.89510       -8.84520
H         -0.70050      -10.33250       -6.90570
H          0.48360      -10.61280       -4.77920
H          1.15560       -9.20700       -3.93210
H         -0.79100      -10.13890       -2.70070
H         -1.81460       -9.90370       -4.12200
H         -1.14630       -8.50720       -3.27830
H          0.78650       -6.95720       -4.78190
H         -8.80390        2.25920       -2.85110
H        -11.16430        2.79120       -2.38370
H        -11.87070        5.12950       -2.08220
H        -11.19420        7.44290       -1.59960
H         -9.53290        7.96820       -1.88870
H        -11.07980        8.97720       -3.54370
H         -9.93730        7.89610       -4.34950
H        -11.59560        7.36820       -4.06400
H         -7.88520        6.43020       -2.85290
H         -0.39630        0.29810       -8.50800
H         -1.18800        1.38400       -7.36880
H          0.50430        0.51870       -5.59150
H          1.32270       -0.30160       -6.91230
H          1.18400        1.45330       -6.92400
H         -1.48080        0.97750       -5.11170
H         -2.40130        1.79590       -3.84430
H         -2.20940        3.95590       -4.99890
H         -1.30680        3.22250       -6.32230
H         -0.61350        3.27180       -4.69810
H         -3.72420        4.33030       -0.45720
H         -2.91180        3.74790        3.90410
H         -0.87020        2.45110        3.76380
H          0.56310        0.70710        3.21660
H          1.39150        2.07550        4.01720
H          2.74190       -0.05800        2.27870
H          3.56010        1.30970        3.03840
H          2.83670        0.04420        4.04010
H         -1.93390        5.71350        0.22530
H         -8.29910        6.64180        4.19380
H        -10.49400        7.66120        4.28890
H        -13.64320        9.51750        3.85730
H        -12.17750        8.91900        4.64500
H        -13.85930        7.07270        4.40040
H        -12.46790        6.72780        3.36550
H        -13.94800        7.37680        2.66170
H         -7.54860        8.57460        0.44480
H         -6.53920        8.14640        4.84680
H         -5.53610        8.47920        6.95940
H          0.15870        6.47190        8.70860
H         -2.82250        9.27800       11.68980
H          0.41660        9.34940       12.81560
H         -0.53410        7.96060       14.65020
H         -1.98120        6.10640       13.50910
H         -0.38780        4.63110       11.97930
H          2.04300        5.57690       12.17820
H          1.30870        6.05830       14.67620
H          2.04960        7.53970       14.02040
H          1.96560        7.91670       11.32850
