
  xtb     02192220053D
 energy: -316.699638505590 gnorm: 0.000390425504 xtb: 6.4.1 (unknown)
200221  0     0  0            999 V2000
    6.1488    6.3014    1.7681 C   0  0  0  0  0  0  0  0  0  0  0  0
    7.4558    5.8842    1.6462 C   0  0  0  0  0  0  0  0  0  0  0  0
    8.0239    5.1227    0.5329 C   0  0  0  0  0  0  0  0  0  0  0  0
    7.4427    4.6691   -0.4396 O   0  0  0  0  0  0  0  0  0  0  0  0
    9.4721    5.0260    0.7948 C   0  0  0  0  0  0  0  0  0  0  0  0
   10.4252    4.3785    0.0128 C   0  0  0  0  0  0  0  0  0  0  0  0
   11.7014    4.4432    0.5193 C   0  0  0  0  0  0  0  0  0  0  0  0
   12.0071    5.1099    1.7121 C   0  0  0  0  0  0  0  0  0  0  0  0
   11.0758    5.7553    2.4914 C   0  0  0  0  0  0  0  0  0  0  0  0
    9.7698    5.6956    1.9977 C   0  0  0  0  0  0  0  0  0  0  0  0
    8.5229    6.2200    2.5572 C   0  0  0  0  0  0  0  0  0  0  0  0
    8.4114    6.8778    3.7596 C   0  0  0  0  0  0  0  0  0  0  0  0
    7.2064    7.2576    4.3801 C   0  0  0  0  0  0  0  0  0  0  0  0
    6.2772    7.5701    4.9821 N   0  0  0  0  0  0  0  0  0  0  0  0
    9.5006    7.2413    4.5756 C   0  0  0  0  0  0  0  0  0  0  0  0
   10.3356    7.5895    5.2842 N   0  0  0  0  0  0  0  0  0  0  0  0
   13.4726    4.7617    1.6258 C   0  0  0  0  0  0  0  0  0  0  0  0
   13.9632    3.6205    2.5418 C   0  0  0  0  0  0  0  0  0  0  0  0
   15.2668    3.1859    1.9122 C   0  0  0  0  0  0  0  0  0  0  0  0
   14.9779    2.5528    0.7825 C   0  0  0  0  0  0  0  0  0  0  0  0
   13.4739    2.5487    0.6298 C   0  0  0  0  0  0  0  0  0  0  0  0
   13.0595    2.4605    2.1042 C   0  0  0  0  0  0  0  0  0  0  0  0
   13.1316    4.0163    0.2957 C   0  0  0  0  0  0  0  0  0  0  0  0
    5.0295    6.0007    0.9956 C   0  0  0  0  0  0  0  0  0  0  0  0
    3.7359    6.5137    1.2751 C   0  0  0  0  0  0  0  0  0  0  0  0
    3.4530    7.5203    2.1579 N   0  0  0  0  0  0  0  0  0  0  0  0
    2.2127    7.5024    2.8260 C   0  0  0  0  0  0  0  0  0  0  0  0
    1.4457    8.6573    2.9319 C   0  0  0  0  0  0  0  0  0  0  0  0
    0.2300    8.6210    3.5868 C   0  0  0  0  0  0  0  0  0  0  0  0
   -0.2507    7.4428    4.1437 C   0  0  0  0  0  0  0  0  0  0  0  0
   -1.5770    7.3932    4.8367 C   0  0  0  0  0  0  0  0  0  0  0  0
    0.5279    6.2951    4.0388 C   0  0  0  0  0  0  0  0  0  0  0  0
    1.7468    6.3189    3.3936 C   0  0  0  0  0  0  0  0  0  0  0  0
    4.3049    8.6250    2.3422 C   0  0  0  0  0  0  0  0  0  0  0  0
    4.4111    9.2206    3.5966 C   0  0  0  0  0  0  0  0  0  0  0  0
    5.2496   10.3021    3.7774 C   0  0  0  0  0  0  0  0  0  0  0  0
    6.0058   10.8103    2.7278 C   0  0  0  0  0  0  0  0  0  0  0  0
    6.9427   11.9563    2.9554 C   0  0  0  0  0  0  0  0  0  0  0  0
    5.8767   10.2213    1.4753 C   0  0  0  0  0  0  0  0  0  0  0  0
    5.0313    9.1485    1.2753 C   0  0  0  0  0  0  0  0  0  0  0  0
    2.7602    5.8457    0.5139 C   0  0  0  0  0  0  0  0  0  0  0  0
    1.0280    5.9200    0.4301 S   0  0  0  0  0  0  0  0  0  0  0  0
    1.0264    4.6974   -0.8286 C   0  0  0  0  0  0  0  0  0  0  0  0
    2.2958    4.2313   -1.1299 C   0  0  0  0  0  0  0  0  0  0  0  0
    2.5832    3.1927   -1.9999 N   0  0  0  0  0  0  0  0  0  0  0  0
    1.7610    2.0615   -2.0690 C   0  0  0  0  0  0  0  0  0  0  0  0
    1.5725    1.4016   -3.2818 C   0  0  0  0  0  0  0  0  0  0  0  0
    0.7147    0.3225   -3.3609 C   0  0  0  0  0  0  0  0  0  0  0  0
    0.0039   -0.1179   -2.2497 C   0  0  0  0  0  0  0  0  0  0  0  0
   -0.9619   -1.2568   -2.3639 C   0  0  0  0  0  0  0  0  0  0  0  0
    0.2285    0.5181   -1.0365 C   0  0  0  0  0  0  0  0  0  0  0  0
    1.1055    1.5806   -0.9378 C   0  0  0  0  0  0  0  0  0  0  0  0
    3.7878    3.2481   -2.7209 C   0  0  0  0  0  0  0  0  0  0  0  0
    4.2182    4.4555   -3.2649 C   0  0  0  0  0  0  0  0  0  0  0  0
    5.4274    4.5276   -3.9260 C   0  0  0  0  0  0  0  0  0  0  0  0
    6.2302    3.4039   -4.0743 C   0  0  0  0  0  0  0  0  0  0  0  0
    7.5630    3.5041   -4.7495 C   0  0  0  0  0  0  0  0  0  0  0  0
    5.7799    2.1976   -3.5528 C   0  0  0  0  0  0  0  0  0  0  0  0
    4.5773    2.1137   -2.8804 C   0  0  0  0  0  0  0  0  0  0  0  0
    3.2814    4.9096   -0.3697 C   0  0  0  0  0  0  0  0  0  0  0  0
    5.0029    4.8092   -0.3082 S   0  0  0  0  0  0  0  0  0  0  0  0
   -0.2011    4.1691   -1.3524 C   0  0  0  0  0  0  0  0  0  0  0  0
   -1.3765    3.4652   -0.2735 S   0  0  0  0  0  0  0  0  0  0  0  0
   -2.2481    2.8176   -1.6173 C   0  0  0  0  0  0  0  0  0  0  0  0
   -3.2491    1.8001   -1.5311 C   0  0  0  0  0  0  0  0  0  0  0  0
   -3.5632    1.1561   -2.7460 C   0  0  0  0  0  0  0  0  0  0  0  0
   -3.0946    1.5615   -3.9472 O   0  0  0  0  0  0  0  0  0  0  0  0
   -2.4028    2.8114   -4.0980 C   0  0  0  0  0  0  0  0  0  0  0  0
   -3.4147    3.9083   -4.5084 C   0  0  0  0  0  0  0  0  0  0  0  0
   -4.4644    4.2304   -3.4516 C   0  0  0  0  0  0  0  0  0  0  0  0
   -1.3697    2.5871   -5.2205 C   0  0  0  0  0  0  0  0  0  0  0  0
   -1.9619    2.0015   -6.4974 C   0  0  0  0  0  0  0  0  0  0  0  0
   -1.7081    3.2038   -2.8221 C   0  0  0  0  0  0  0  0  0  0  0  0
   -0.5356    3.9600   -2.6658 C   0  0  0  0  0  0  0  0  0  0  0  0
   -4.3169   -0.0035   -2.7113 C   0  0  0  0  0  0  0  0  0  0  0  0
   -4.7823   -0.5160   -1.5018 C   0  0  0  0  0  0  0  0  0  0  0  0
   -5.3969   -1.7983   -1.3594 C   0  0  0  0  0  0  0  0  0  0  0  0
   -5.8805   -2.2427   -0.1461 C   0  0  0  0  0  0  0  0  0  0  0  0
   -5.9568   -1.2818    1.0096 C   0  0  0  0  0  0  0  0  0  0  0  0
   -4.9465   -0.2681    0.9119 O   0  0  0  0  0  0  0  0  0  0  0  0
   -4.5438    0.1810   -0.2989 C   0  0  0  0  0  0  0  0  0  0  0  0
   -3.7657    1.3249   -0.3310 C   0  0  0  0  0  0  0  0  0  0  0  0
   -7.3494   -0.6062    0.9521 C   0  0  0  0  0  0  0  0  0  0  0  0
   -7.5674    0.4381    2.0398 C   0  0  0  0  0  0  0  0  0  0  0  0
   -5.7065   -1.9761    2.3563 C   0  0  0  0  0  0  0  0  0  0  0  0
   -4.3810   -2.7289    2.3832 C   0  0  0  0  0  0  0  0  0  0  0  0
   -6.3071   -3.5722   -0.1861 C   0  0  0  0  0  0  0  0  0  0  0  0
   -6.1481   -4.1558   -1.4253 C   0  0  0  0  0  0  0  0  0  0  0  0
   -5.4756   -3.0252   -2.5753 S   0  0  0  0  0  0  0  0  0  0  0  0
   -6.4036   -5.5052   -1.7745 C   0  0  0  0  0  0  0  0  0  0  0  0
   -6.3730   -6.0542   -3.0424 C   0  0  0  0  0  0  0  0  0  0  0  0
   -6.6056   -7.4255   -3.0394 C   0  0  0  0  0  0  0  0  0  0  0  0
   -6.6826   -8.4640   -4.4410 S   0  0  0  0  0  0  0  0  0  0  0  0
   -6.0106   -7.4216   -5.7834 C   0  0  0  0  0  0  0  0  0  0  0  0
   -4.5166   -7.2003   -5.6478 C   0  0  0  0  0  0  0  0  0  0  0  0
   -6.8034   -7.9576   -1.7472 C   0  0  0  0  0  0  0  0  0  0  0  0
   -6.7291   -6.6867   -0.5464 S   0  0  0  0  0  0  0  0  0  0  0  0
   -6.9729   -9.3218   -1.5077 C   0  0  0  0  0  0  0  0  0  0  0  0
   -7.0914  -10.0079   -0.3220 C   0  0  0  0  0  0  0  0  0  0  0  0
   -7.0934   -9.4128    1.0150 C   0  0  0  0  0  0  0  0  0  0  0  0
   -7.0773   -8.2265    1.3040 O   0  0  0  0  0  0  0  0  0  0  0  0
   -7.1172  -10.5337    1.9696 C   0  0  0  0  0  0  0  0  0  0  0  0
   -7.0745  -10.4523    3.3596 C   0  0  0  0  0  0  0  0  0  0  0  0
   -7.0793  -11.6729    3.9905 C   0  0  0  0  0  0  0  0  0  0  0  0
   -7.1234  -12.8848    3.2898 C   0  0  0  0  0  0  0  0  0  0  0  0
   -7.1665  -12.9780    1.9184 C   0  0  0  0  0  0  0  0  0  0  0  0
   -7.1636  -11.7473    1.2556 C   0  0  0  0  0  0  0  0  0  0  0  0
   -7.1801  -11.4446   -0.1770 C   0  0  0  0  0  0  0  0  0  0  0  0
   -7.2736  -12.3783   -1.1788 C   0  0  0  0  0  0  0  0  0  0  0  0
   -7.3748  -13.7684   -0.9661 C   0  0  0  0  0  0  0  0  0  0  0  0
   -7.4614  -14.9103   -0.8751 N   0  0  0  0  0  0  0  0  0  0  0  0
   -7.2986  -12.1129   -2.5639 C   0  0  0  0  0  0  0  0  0  0  0  0
   -7.3273  -12.0050   -3.7077 N   0  0  0  0  0  0  0  0  0  0  0  0
   -7.0967  -13.7089    4.5534 C   0  0  0  0  0  0  0  0  0  0  0  0
   -8.4389  -14.3187    5.0095 C   0  0  0  0  0  0  0  0  0  0  0  0
   -8.2122  -14.6404    6.4691 C   0  0  0  0  0  0  0  0  0  0  0  0
   -8.1701  -13.4925    7.1334 C   0  0  0  0  0  0  0  0  0  0  0  0
   -8.3677  -12.3757    6.1339 C   0  0  0  0  0  0  0  0  0  0  0  0
   -9.3171  -13.0685    5.1479 C   0  0  0  0  0  0  0  0  0  0  0  0
   -7.0475  -12.3569    5.3350 C   0  0  0  0  0  0  0  0  0  0  0  0
    5.9412    6.9531    2.6071 H   0  0  0  0  0  0  0  0  0  0  0  0
   10.1443    3.8770   -0.9002 H   0  0  0  0  0  0  0  0  0  0  0  0
   11.3295    6.2643    3.4061 H   0  0  0  0  0  0  0  0  0  0  0  0
   14.1609    5.6040    1.5893 H   0  0  0  0  0  0  0  0  0  0  0  0
   13.9877    3.8653    3.6001 H   0  0  0  0  0  0  0  0  0  0  0  0
   16.2351    3.4247    2.3116 H   0  0  0  0  0  0  0  0  0  0  0  0
   15.6567    2.1572    0.0497 H   0  0  0  0  0  0  0  0  0  0  0  0
   13.0536    1.8154   -0.0535 H   0  0  0  0  0  0  0  0  0  0  0  0
   11.9992    2.6340    2.2782 H   0  0  0  0  0  0  0  0  0  0  0  0
   13.3534    1.5157    2.5587 H   0  0  0  0  0  0  0  0  0  0  0  0
   13.5936    4.3615   -0.6275 H   0  0  0  0  0  0  0  0  0  0  0  0
    1.8043    9.5777    2.4955 H   0  0  0  0  0  0  0  0  0  0  0  0
   -0.3579    9.5245    3.6585 H   0  0  0  0  0  0  0  0  0  0  0  0
   -2.0001    8.3886    4.9427 H   0  0  0  0  0  0  0  0  0  0  0  0
   -2.2741    6.7799    4.2663 H   0  0  0  0  0  0  0  0  0  0  0  0
   -1.4755    6.9481    5.8251 H   0  0  0  0  0  0  0  0  0  0  0  0
    0.1749    5.3718    4.4743 H   0  0  0  0  0  0  0  0  0  0  0  0
    2.3503    5.4253    3.3308 H   0  0  0  0  0  0  0  0  0  0  0  0
    3.8485    8.8236    4.4265 H   0  0  0  0  0  0  0  0  0  0  0  0
    5.3337   10.7460    4.7578 H   0  0  0  0  0  0  0  0  0  0  0  0
    7.7760   11.6376    3.5818 H   0  0  0  0  0  0  0  0  0  0  0  0
    7.3415   12.3287    2.0152 H   0  0  0  0  0  0  0  0  0  0  0  0
    6.4351   12.7704    3.4698 H   0  0  0  0  0  0  0  0  0  0  0  0
    6.4407   10.6111    0.6401 H   0  0  0  0  0  0  0  0  0  0  0  0
    4.9374    8.7064    0.2942 H   0  0  0  0  0  0  0  0  0  0  0  0
    2.0952    1.7495   -4.1610 H   0  0  0  0  0  0  0  0  0  0  0  0
    0.5792   -0.1813   -4.3078 H   0  0  0  0  0  0  0  0  0  0  0  0
   -1.5714   -1.1517   -3.2593 H   0  0  0  0  0  0  0  0  0  0  0  0
   -1.6200   -1.2948   -1.4989 H   0  0  0  0  0  0  0  0  0  0  0  0
   -0.4258   -2.2040   -2.4313 H   0  0  0  0  0  0  0  0  0  0  0  0
   -0.2929    0.1795   -0.1526 H   0  0  0  0  0  0  0  0  0  0  0  0
    1.2799    2.0496    0.0194 H   0  0  0  0  0  0  0  0  0  0  0  0
    3.6013    5.3367   -3.1598 H   0  0  0  0  0  0  0  0  0  0  0  0
    5.7550    5.4738   -4.3317 H   0  0  0  0  0  0  0  0  0  0  0  0
    8.3062    3.8555   -4.0333 H   0  0  0  0  0  0  0  0  0  0  0  0
    7.5301    4.2137   -5.5736 H   0  0  0  0  0  0  0  0  0  0  0  0
    7.8847    2.5364   -5.1272 H   0  0  0  0  0  0  0  0  0  0  0  0
    6.3881    1.3108   -3.6588 H   0  0  0  0  0  0  0  0  0  0  0  0
    4.2490    1.1733   -2.4627 H   0  0  0  0  0  0  0  0  0  0  0  0
   -2.8495    4.8115   -4.7469 H   0  0  0  0  0  0  0  0  0  0  0  0
   -3.9221    3.5681   -5.4114 H   0  0  0  0  0  0  0  0  0  0  0  0
   -4.0053    4.6055   -2.5397 H   0  0  0  0  0  0  0  0  0  0  0  0
   -5.1401    4.9936   -3.8314 H   0  0  0  0  0  0  0  0  0  0  0  0
   -5.0514    3.3480   -3.2064 H   0  0  0  0  0  0  0  0  0  0  0  0
   -0.6135    1.9035   -4.8318 H   0  0  0  0  0  0  0  0  0  0  0  0
   -0.8871    3.5389   -5.4439 H   0  0  0  0  0  0  0  0  0  0  0  0
   -2.5409    1.1121   -6.2670 H   0  0  0  0  0  0  0  0  0  0  0  0
   -2.6054    2.7172   -7.0019 H   0  0  0  0  0  0  0  0  0  0  0  0
   -1.1595    1.7294   -7.1792 H   0  0  0  0  0  0  0  0  0  0  0  0
    0.0627    4.3362   -3.4750 H   0  0  0  0  0  0  0  0  0  0  0  0
   -4.5153   -0.5384   -3.6273 H   0  0  0  0  0  0  0  0  0  0  0  0
   -3.5213    1.8272    0.5920 H   0  0  0  0  0  0  0  0  0  0  0  0
   -8.1124   -1.3841    1.0126 H   0  0  0  0  0  0  0  0  0  0  0  0
   -7.4368   -0.1258   -0.0269 H   0  0  0  0  0  0  0  0  0  0  0  0
   -8.4719    1.0045    1.8311 H   0  0  0  0  0  0  0  0  0  0  0  0
   -6.7263    1.1265    2.0696 H   0  0  0  0  0  0  0  0  0  0  0  0
   -7.6749   -0.0274    3.0156 H   0  0  0  0  0  0  0  0  0  0  0  0
   -6.5338   -2.6545    2.5650 H   0  0  0  0  0  0  0  0  0  0  0  0
   -5.6869   -1.2046    3.1256 H   0  0  0  0  0  0  0  0  0  0  0  0
   -3.5648   -2.0505    2.1469 H   0  0  0  0  0  0  0  0  0  0  0  0
   -4.2104   -3.1448    3.3729 H   0  0  0  0  0  0  0  0  0  0  0  0
   -4.3753   -3.5435    1.6627 H   0  0  0  0  0  0  0  0  0  0  0  0
   -6.7171   -4.1157    0.6457 H   0  0  0  0  0  0  0  0  0  0  0  0
   -6.1996   -5.4531   -3.9165 H   0  0  0  0  0  0  0  0  0  0  0  0
   -6.5712   -6.4885   -5.8101 H   0  0  0  0  0  0  0  0  0  0  0  0
   -6.2379   -7.9929   -6.6833 H   0  0  0  0  0  0  0  0  0  0  0  0
   -4.1539   -6.6130   -6.4891 H   0  0  0  0  0  0  0  0  0  0  0  0
   -4.2796   -6.6707   -4.7276 H   0  0  0  0  0  0  0  0  0  0  0  0
   -3.9955   -8.1546   -5.6391 H   0  0  0  0  0  0  0  0  0  0  0  0
   -6.9714   -9.9146   -2.4155 H   0  0  0  0  0  0  0  0  0  0  0  0
   -7.0334   -9.4960    3.8573 H   0  0  0  0  0  0  0  0  0  0  0  0
   -7.1907  -13.9201    1.3973 H   0  0  0  0  0  0  0  0  0  0  0  0
   -6.2604  -14.3985    4.6523 H   0  0  0  0  0  0  0  0  0  0  0  0
   -8.8090  -15.1247    4.3819 H   0  0  0  0  0  0  0  0  0  0  0  0
   -8.0544  -15.6334    6.8472 H   0  0  0  0  0  0  0  0  0  0  0  0
   -7.9700  -13.3352    8.1772 H   0  0  0  0  0  0  0  0  0  0  0  0
   -8.6738  -11.4117    6.5316 H   0  0  0  0  0  0  0  0  0  0  0  0
   -9.4637  -12.5244    4.2168 H   0  0  0  0  0  0  0  0  0  0  0  0
  -10.2841  -13.2921    5.5955 H   0  0  0  0  0  0  0  0  0  0  0  0
   -6.1777  -12.1457    5.9547 H   0  0  0  0  0  0  0  0  0  0  0  0
  1  2  2  0  0  0  0
  2  3  1  0  0  0  0
  3  4  2  0  0  0  0
  3  5  1  0  0  0  0
  5  6  2  0  0  0  0
  6  7  1  0  0  0  0
  7  8  2  0  0  0  0
  8  9  1  0  0  0  0
  9 10  2  0  0  0  0
 10 11  1  0  0  0  0
 11 12  2  0  0  0  0
 12 13  1  0  0  0  0
 13 14  3  0  0  0  0
 12 15  1  0  0  0  0
 15 16  3  0  0  0  0
  8 17  1  0  0  0  0
 17 18  1  0  0  0  0
 18 19  1  0  0  0  0
 19 20  2  0  0  0  0
 20 21  1  0  0  0  0
 21 22  1  0  0  0  0
 21 23  1  0  0  0  0
  1 24  1  0  0  0  0
 24 25  2  0  0  0  0
 25 26  1  0  0  0  0
 26 27  1  0  0  0  0
 27 28  2  0  0  0  0
 28 29  1  0  0  0  0
 29 30  2  0  0  0  0
 30 31  1  0  0  0  0
 30 32  1  0  0  0  0
 32 33  2  0  0  0  0
 26 34  1  0  0  0  0
 34 35  2  0  0  0  0
 35 36  1  0  0  0  0
 36 37  2  0  0  0  0
 37 38  1  0  0  0  0
 37 39  1  0  0  0  0
 39 40  2  0  0  0  0
 25 41  1  0  0  0  0
 41 42  1  0  0  0  0
 42 43  1  0  0  0  0
 43 44  2  0  0  0  0
 44 45  1  0  0  0  0
 45 46  1  0  0  0  0
 46 47  2  0  0  0  0
 47 48  1  0  0  0  0
 48 49  2  0  0  0  0
 49 50  1  0  0  0  0
 49 51  1  0  0  0  0
 51 52  2  0  0  0  0
 45 53  1  0  0  0  0
 53 54  2  0  0  0  0
 54 55  1  0  0  0  0
 55 56  2  0  0  0  0
 56 57  1  0  0  0  0
 56 58  1  0  0  0  0
 58 59  2  0  0  0  0
 44 60  1  0  0  0  0
 60 61  1  0  0  0  0
 43 62  1  0  0  0  0
 62 63  1  0  0  0  0
 63 64  1  0  0  0  0
 64 65  1  0  0  0  0
 65 66  2  0  0  0  0
 66 67  1  0  0  0  0
 67 68  1  0  0  0  0
 68 69  1  0  0  0  0
 69 70  1  0  0  0  0
 68 71  1  0  0  0  0
 71 72  1  0  0  0  0
 68 73  1  0  0  0  0
 73 74  1  0  0  0  0
 66 75  1  0  0  0  0
 75 76  2  0  0  0  0
 76 77  1  0  0  0  0
 77 78  2  0  0  0  0
 78 79  1  0  0  0  0
 79 80  1  0  0  0  0
 80 81  1  0  0  0  0
 81 82  2  0  0  0  0
 79 83  1  0  0  0  0
 83 84  1  0  0  0  0
 79 85  1  0  0  0  0
 85 86  1  0  0  0  0
 78 87  1  0  0  0  0
 87 88  2  0  0  0  0
 88 89  1  0  0  0  0
 88 90  1  0  0  0  0
 90 91  2  0  0  0  0
 91 92  1  0  0  0  0
 92 93  1  0  0  0  0
 93 94  1  0  0  0  0
 94 95  1  0  0  0  0
 92 96  2  0  0  0  0
 96 97  1  0  0  0  0
 96 98  1  0  0  0  0
 98 99  2  0  0  0  0
 99100  1  0  0  0  0
100101  2  0  0  0  0
100102  1  0  0  0  0
102103  2  0  0  0  0
103104  1  0  0  0  0
104105  2  0  0  0  0
105106  1  0  0  0  0
106107  2  0  0  0  0
107108  1  0  0  0  0
108109  2  0  0  0  0
109110  1  0  0  0  0
110111  3  0  0  0  0
109112  1  0  0  0  0
112113  3  0  0  0  0
105114  1  0  0  0  0
114115  1  0  0  0  0
115116  1  0  0  0  0
116117  2  0  0  0  0
117118  1  0  0  0  0
118119  1  0  0  0  0
118120  1  0  0  0  0
 11  2  1  0  0  0  0
 23 17  1  0  0  0  0
 61 24  1  0  0  0  0
 74 62  2  0  0  0  0
 81 76  1  0  0  0  0
 97 90  1  0  0  0  0
108 99  1  0  0  0  0
120114  1  0  0  0  0
 10  5  1  0  0  0  0
 22 18  1  0  0  0  0
 33 27  1  0  0  0  0
 40 34  1  0  0  0  0
 60 41  2  0  0  0  0
 73 64  2  0  0  0  0
 89 77  1  0  0  0  0
107102  1  0  0  0  0
119115  1  0  0  0  0
 23  7  1  0  0  0  0
 52 46  1  0  0  0  0
 59 53  1  0  0  0  0
 82 65  1  0  0  0  0
120104  1  0  0  0  0
  1121  1  0  0  0  0
  6122  1  0  0  0  0
  9123  1  0  0  0  0
 17124  1  0  0  0  0
 18125  1  0  0  0  0
 19126  1  0  0  0  0
 20127  1  0  0  0  0
 21128  1  0  0  0  0
 22129  1  0  0  0  0
 22130  1  0  0  0  0
 23131  1  0  0  0  0
 28132  1  0  0  0  0
 29133  1  0  0  0  0
 31134  1  0  0  0  0
 31135  1  0  0  0  0
 31136  1  0  0  0  0
 32137  1  0  0  0  0
 33138  1  0  0  0  0
 35139  1  0  0  0  0
 36140  1  0  0  0  0
 38141  1  0  0  0  0
 38142  1  0  0  0  0
 38143  1  0  0  0  0
 39144  1  0  0  0  0
 40145  1  0  0  0  0
 47146  1  0  0  0  0
 48147  1  0  0  0  0
 50148  1  0  0  0  0
 50149  1  0  0  0  0
 50150  1  0  0  0  0
 51151  1  0  0  0  0
 52152  1  0  0  0  0
 54153  1  0  0  0  0
 55154  1  0  0  0  0
 57155  1  0  0  0  0
 57156  1  0  0  0  0
 57157  1  0  0  0  0
 58158  1  0  0  0  0
 59159  1  0  0  0  0
 69160  1  0  0  0  0
 69161  1  0  0  0  0
 70162  1  0  0  0  0
 70163  1  0  0  0  0
 70164  1  0  0  0  0
 71165  1  0  0  0  0
 71166  1  0  0  0  0
 72167  1  0  0  0  0
 72168  1  0  0  0  0
 72169  1  0  0  0  0
 74170  1  0  0  0  0
 75171  1  0  0  0  0
 82172  1  0  0  0  0
 83173  1  0  0  0  0
 83174  1  0  0  0  0
 84175  1  0  0  0  0
 84176  1  0  0  0  0
 84177  1  0  0  0  0
 85178  1  0  0  0  0
 85179  1  0  0  0  0
 86180  1  0  0  0  0
 86181  1  0  0  0  0
 86182  1  0  0  0  0
 87183  1  0  0  0  0
 91184  1  0  0  0  0
 94185  1  0  0  0  0
 94186  1  0  0  0  0
 95187  1  0  0  0  0
 95188  1  0  0  0  0
 95189  1  0  0  0  0
 98190  1  0  0  0  0
103191  1  0  0  0  0
106192  1  0  0  0  0
114193  1  0  0  0  0
115194  1  0  0  0  0
116195  1  0  0  0  0
117196  1  0  0  0  0
118197  1  0  0  0  0
119198  1  0  0  0  0
119199  1  0  0  0  0
120200  1  0  0  0  0
M  END
