
  xtb     02212205053D
 energy: -393.285043241804 gnorm: 0.000595409878 xtb: 6.4.1 (unknown)
237264  0     0  0            999 V2000
    5.1529    9.6514    3.1226 C   0  0  0  0  0  0  0  0  0  0  0  0
    5.4386    9.8732    4.4528 C   0  0  0  0  0  0  0  0  0  0  0  0
    4.6087    9.4937    5.5960 C   0  0  0  0  0  0  0  0  0  0  0  0
    3.5783    8.8397    5.5929 O   0  0  0  0  0  0  0  0  0  0  0  0
    5.2542   10.0773    6.7872 C   0  0  0  0  0  0  0  0  0  0  0  0
    4.8154    9.9927    8.1060 C   0  0  0  0  0  0  0  0  0  0  0  0
    5.6246   10.6426    9.0072 C   0  0  0  0  0  0  0  0  0  0  0  0
    6.7830   11.3288    8.6232 C   0  0  0  0  0  0  0  0  0  0  0  0
    7.2255   11.4215    7.3242 C   0  0  0  0  0  0  0  0  0  0  0  0
    6.4182   10.7645    6.3917 C   0  0  0  0  0  0  0  0  0  0  0  0
    6.5701   10.6214    4.9425 C   0  0  0  0  0  0  0  0  0  0  0  0
    7.6317   11.0973    4.2086 C   0  0  0  0  0  0  0  0  0  0  0  0
    7.8672   10.8422    2.8446 C   0  0  0  0  0  0  0  0  0  0  0  0
    8.1655   10.6536    1.7496 N   0  0  0  0  0  0  0  0  0  0  0  0
    8.6726   11.8893    4.7306 C   0  0  0  0  0  0  0  0  0  0  0  0
    9.5446   12.5539    5.0749 N   0  0  0  0  0  0  0  0  0  0  0  0
    7.1076   11.7375   10.0391 C   0  0  0  0  0  0  0  0  0  0  0  0
    8.2258   10.9444   10.7477 C   0  0  0  0  0  0  0  0  0  0  0  0
    7.9930   11.2233   12.2149 C   0  0  0  0  0  0  0  0  0  0  0  0
    6.8951   10.5736   12.5799 C   0  0  0  0  0  0  0  0  0  0  0  0
    6.3677    9.8444   11.3653 C   0  0  0  0  0  0  0  0  0  0  0  0
    7.6902    9.5092   10.6637 C   0  0  0  0  0  0  0  0  0  0  0  0
    5.8149   10.9717   10.4677 C   0  0  0  0  0  0  0  0  0  0  0  0
    4.1147    8.9429    2.5255 C   0  0  0  0  0  0  0  0  0  0  0  0
    3.9679    8.8163    1.1185 C   0  0  0  0  0  0  0  0  0  0  0  0
    4.6374    9.5432    0.1734 N   0  0  0  0  0  0  0  0  0  0  0  0
    4.7717    9.0026   -1.1225 C   0  0  0  0  0  0  0  0  0  0  0  0
    4.4318    9.7552   -2.2421 C   0  0  0  0  0  0  0  0  0  0  0  0
    4.5061    9.1939   -3.5008 C   0  0  0  0  0  0  0  0  0  0  0  0
    4.9307    7.8828   -3.6779 C   0  0  0  0  0  0  0  0  0  0  0  0
    4.9580    7.2584   -5.0378 C   0  0  0  0  0  0  0  0  0  0  0  0
    5.3113    7.1539   -2.5574 C   0  0  0  0  0  0  0  0  0  0  0  0
    5.2359    7.7012   -1.2923 C   0  0  0  0  0  0  0  0  0  0  0  0
    5.0116   10.8876    0.3672 C   0  0  0  0  0  0  0  0  0  0  0  0
    6.1931   11.3582   -0.1990 C   0  0  0  0  0  0  0  0  0  0  0  0
    6.5676   12.6745   -0.0185 C   0  0  0  0  0  0  0  0  0  0  0  0
    5.7867   13.5473    0.7300 C   0  0  0  0  0  0  0  0  0  0  0  0
    6.2338   14.9584    0.9564 C   0  0  0  0  0  0  0  0  0  0  0  0
    4.5968   13.0728    1.2701 C   0  0  0  0  0  0  0  0  0  0  0  0
    4.2020   11.7626    1.0867 C   0  0  0  0  0  0  0  0  0  0  0  0
    3.0072    7.8398    0.8066 C   0  0  0  0  0  0  0  0  0  0  0  0
    2.3816    7.2118   -0.6814 S   0  0  0  0  0  0  0  0  0  0  0  0
    1.2297    6.2192    0.2049 C   0  0  0  0  0  0  0  0  0  0  0  0
    1.3177    6.4003    1.5809 C   0  0  0  0  0  0  0  0  0  0  0  0
    0.4917    5.8261    2.5307 N   0  0  0  0  0  0  0  0  0  0  0  0
   -0.8596    5.5791    2.2715 C   0  0  0  0  0  0  0  0  0  0  0  0
   -1.4853    4.4629    2.8231 C   0  0  0  0  0  0  0  0  0  0  0  0
   -2.7931    4.1645    2.4938 C   0  0  0  0  0  0  0  0  0  0  0  0
   -3.5108    4.9580    1.6088 C   0  0  0  0  0  0  0  0  0  0  0  0
   -4.9102    4.6089    1.2022 C   0  0  0  0  0  0  0  0  0  0  0  0
   -2.8945    6.0948    1.0958 C   0  0  0  0  0  0  0  0  0  0  0  0
   -1.5945    6.4111    1.4284 C   0  0  0  0  0  0  0  0  0  0  0  0
    1.0171    5.5909    3.8147 C   0  0  0  0  0  0  0  0  0  0  0  0
    0.2897    5.9340    4.9494 C   0  0  0  0  0  0  0  0  0  0  0  0
    0.8387    5.7521    6.2025 C   0  0  0  0  0  0  0  0  0  0  0  0
    2.1175    5.2317    6.3578 C   0  0  0  0  0  0  0  0  0  0  0  0
    2.7353    5.1005    7.7154 C   0  0  0  0  0  0  0  0  0  0  0  0
    2.8256    4.8671    5.2198 C   0  0  0  0  0  0  0  0  0  0  0  0
    2.2855    5.0369    3.9610 C   0  0  0  0  0  0  0  0  0  0  0  0
    2.3538    7.3097    1.9113 C   0  0  0  0  0  0  0  0  0  0  0  0
    2.9311    7.9645    3.4027 S   0  0  0  0  0  0  0  0  0  0  0  0
    0.3944    5.3329   -0.5386 C   0  0  0  0  0  0  0  0  0  0  0  0
   -0.0865    5.5103   -1.8235 C   0  0  0  0  0  0  0  0  0  0  0  0
    0.1241    6.7307   -2.6074 C   0  0  0  0  0  0  0  0  0  0  0  0
    0.6856    6.6586   -3.8778 C   0  0  0  0  0  0  0  0  0  0  0  0
    0.9644    7.8214   -4.5705 C   0  0  0  0  0  0  0  0  0  0  0  0
    0.6931    9.0557   -4.0061 C   0  0  0  0  0  0  0  0  0  0  0  0
    0.1023    9.1445   -2.7528 C   0  0  0  0  0  0  0  0  0  0  0  0
   -0.1638   10.4712   -2.1003 C   0  0  0  0  0  0  0  0  0  0  0  0
    0.8495   10.7288   -0.9832 C   0  0  0  0  0  0  0  0  0  0  0  0
   -0.1899    7.9738   -2.0713 C   0  0  0  0  0  0  0  0  0  0  0  0
   -0.7989    4.3822   -2.2693 C   0  0  0  0  0  0  0  0  0  0  0  0
   -1.6700    4.0356   -3.7443 S   0  0  0  0  0  0  0  0  0  0  0  0
   -2.1070    2.4893   -3.0941 C   0  0  0  0  0  0  0  0  0  0  0  0
   -2.8388    1.3457   -3.4539 C   0  0  0  0  0  0  0  0  0  0  0  0
   -3.6219    1.0648   -4.5944 C   0  0  0  0  0  0  0  0  0  0  0  0
   -4.3197   -0.1869   -4.6671 C   0  0  0  0  0  0  0  0  0  0  0  0
   -5.0458   -0.2988   -5.7684 N   0  0  0  0  0  0  0  0  0  0  0  0
   -4.8641    1.0535   -6.6410 S   0  0  0  0  0  0  0  0  0  0  0  0
   -3.8516    1.8340   -5.6471 N   0  0  0  0  0  0  0  0  0  0  0  0
   -4.1171   -1.1402   -3.6459 C   0  0  0  0  0  0  0  0  0  0  0  0
   -4.5220   -2.4807   -3.5455 C   0  0  0  0  0  0  0  0  0  0  0  0
   -5.4461   -3.6451   -4.4316 S   0  0  0  0  0  0  0  0  0  0  0  0
   -4.9783   -4.8690   -3.2745 C   0  0  0  0  0  0  0  0  0  0  0  0
   -5.2537   -6.2473   -3.1750 C   0  0  0  0  0  0  0  0  0  0  0  0
   -6.1645   -6.9641   -4.0623 C   0  0  0  0  0  0  0  0  0  0  0  0
   -7.0588   -7.9060   -3.5571 C   0  0  0  0  0  0  0  0  0  0  0  0
   -7.9238   -8.5621   -4.4100 C   0  0  0  0  0  0  0  0  0  0  0  0
   -7.9134   -8.2838   -5.7667 C   0  0  0  0  0  0  0  0  0  0  0  0
   -7.0329   -7.3435   -6.2861 C   0  0  0  0  0  0  0  0  0  0  0  0
   -7.0411   -6.9948   -7.7467 C   0  0  0  0  0  0  0  0  0  0  0  0
   -7.8579   -5.7226   -7.9818 C   0  0  0  0  0  0  0  0  0  0  0  0
   -6.1657   -6.6883   -5.4247 C   0  0  0  0  0  0  0  0  0  0  0  0
   -4.6150   -6.8034   -2.0802 C   0  0  0  0  0  0  0  0  0  0  0  0
   -3.7376   -5.6128   -1.1306 S   0  0  0  0  0  0  0  0  0  0  0  0
   -4.1697   -4.3715   -2.2494 C   0  0  0  0  0  0  0  0  0  0  0  0
   -3.9103   -3.0046   -2.4047 C   0  0  0  0  0  0  0  0  0  0  0  0
   -3.1798   -2.0337   -1.7743 N   0  0  0  0  0  0  0  0  0  0  0  0
   -3.2852   -0.8722   -2.5214 C   0  0  0  0  0  0  0  0  0  0  0  0
   -2.7276    0.4251   -2.3735 C   0  0  0  0  0  0  0  0  0  0  0  0
   -1.9835    1.0240   -1.3661 N   0  0  0  0  0  0  0  0  0  0  0  0
   -1.6097    2.2636   -1.8098 C   0  0  0  0  0  0  0  0  0  0  0  0
   -0.8628    3.3484   -1.3348 C   0  0  0  0  0  0  0  0  0  0  0  0
    0.0039    3.7431    0.1040 S   0  0  0  0  0  0  0  0  0  0  0  0
   -1.9512    0.7491    0.0540 C   0  0  0  0  0  0  0  0  0  0  0  0
   -3.3574    0.6913    0.6445 C   0  0  0  0  0  0  0  0  0  0  0  0
   -2.2175   -2.4089   -0.7642 C   0  0  0  0  0  0  0  0  0  0  0  0
   -0.7866   -2.3075   -1.2865 C   0  0  0  0  0  0  0  0  0  0  0  0
   -4.5297   -8.1646   -1.6738 C   0  0  0  0  0  0  0  0  0  0  0  0
   -4.4047   -9.2983   -2.4641 C   0  0  0  0  0  0  0  0  0  0  0  0
   -4.1689   -9.3413   -3.9136 C   0  0  0  0  0  0  0  0  0  0  0  0
   -3.8695   -8.4062   -4.6156 O   0  0  0  0  0  0  0  0  0  0  0  0
   -4.2623  -10.6075   -4.3408 O   0  0  0  0  0  0  0  0  0  0  0  0
   -3.9872  -10.8627   -5.7155 C   0  0  0  0  0  0  0  0  0  0  0  0
   -5.2272  -10.6628   -6.5740 C   0  0  0  0  0  0  0  0  0  0  0  0
   -4.3537  -10.4691   -1.6775 C   0  0  0  0  0  0  0  0  0  0  0  0
   -4.4092  -10.2274   -0.3055 C   0  0  0  0  0  0  0  0  0  0  0  0
   -4.5588   -8.5450    0.0422 S   0  0  0  0  0  0  0  0  0  0  0  0
   -4.2809  -11.3787    0.4742 C   0  0  0  0  0  0  0  0  0  0  0  0
   -4.2668  -11.3353    1.9447 C   0  0  0  0  0  0  0  0  0  0  0  0
   -3.8909  -12.2177    2.6782 O   0  0  0  0  0  0  0  0  0  0  0  0
   -4.7223  -10.1482    2.3670 O   0  0  0  0  0  0  0  0  0  0  0  0
   -4.7343   -9.9181    3.7750 C   0  0  0  0  0  0  0  0  0  0  0  0
   -3.3902   -9.3918    4.2567 C   0  0  0  0  0  0  0  0  0  0  0  0
   -4.1209  -12.5226   -0.3258 C   0  0  0  0  0  0  0  0  0  0  0  0
   -4.1240  -12.1304   -2.0396 S   0  0  0  0  0  0  0  0  0  0  0  0
   -4.0298  -13.8190    0.2151 C   0  0  0  0  0  0  0  0  0  0  0  0
   -3.7180  -14.9989   -0.3974 C   0  0  0  0  0  0  0  0  0  0  0  0
   -3.2367  -15.1733   -1.7773 C   0  0  0  0  0  0  0  0  0  0  0  0
   -3.2845  -14.3676   -2.6889 O   0  0  0  0  0  0  0  0  0  0  0  0
   -2.6584  -16.5267   -1.8359 C   0  0  0  0  0  0  0  0  0  0  0  0
   -1.9909  -17.1071   -2.9122 C   0  0  0  0  0  0  0  0  0  0  0  0
   -1.5274  -18.3763   -2.6638 C   0  0  0  0  0  0  0  0  0  0  0  0
   -1.7140  -19.0246   -1.4352 C   0  0  0  0  0  0  0  0  0  0  0  0
   -2.3829  -18.4699   -0.3699 C   0  0  0  0  0  0  0  0  0  0  0  0
   -2.8624  -17.1780   -0.6012 C   0  0  0  0  0  0  0  0  0  0  0  0
   -3.6125  -16.2824    0.2746 C   0  0  0  0  0  0  0  0  0  0  0  0
   -4.2005  -16.6196    1.4632 C   0  0  0  0  0  0  0  0  0  0  0  0
   -5.0778  -15.7855    2.1926 C   0  0  0  0  0  0  0  0  0  0  0  0
   -5.8465  -15.1993    2.8114 N   0  0  0  0  0  0  0  0  0  0  0  0
   -4.0805  -17.8845    2.0755 C   0  0  0  0  0  0  0  0  0  0  0  0
   -4.0159  -18.8899    2.6257 N   0  0  0  0  0  0  0  0  0  0  0  0
   -0.9623  -20.2539   -1.8795 C   0  0  0  0  0  0  0  0  0  0  0  0
    0.4893  -20.4331   -1.3690 C   0  0  0  0  0  0  0  0  0  0  0  0
    1.0219  -19.0493   -1.0909 C   0  0  0  0  0  0  0  0  0  0  0  0
    1.1945  -18.4398   -2.2562 C   0  0  0  0  0  0  0  0  0  0  0  0
    0.7811  -19.4007   -3.3435 C   0  0  0  0  0  0  0  0  0  0  0  0
    1.1973  -20.7329   -2.6999 C   0  0  0  0  0  0  0  0  0  0  0  0
   -0.7592  -19.5344   -3.2501 C   0  0  0  0  0  0  0  0  0  0  0  0
    5.8480   10.0875    2.4168 H   0  0  0  0  0  0  0  0  0  0  0  0
    3.9126    9.4570    8.3559 H   0  0  0  0  0  0  0  0  0  0  0  0
    8.1169   11.9583    7.0461 H   0  0  0  0  0  0  0  0  0  0  0  0
    7.1636   12.8087   10.2235 H   0  0  0  0  0  0  0  0  0  0  0  0
    9.2265   11.1291   10.3666 H   0  0  0  0  0  0  0  0  0  0  0  0
    8.5986   11.8878   12.8030 H   0  0  0  0  0  0  0  0  0  0  0  0
    6.4004   10.5872   13.5335 H   0  0  0  0  0  0  0  0  0  0  0  0
    5.6759    9.0263   11.5483 H   0  0  0  0  0  0  0  0  0  0  0  0
    7.5715    9.1393    9.6470 H   0  0  0  0  0  0  0  0  0  0  0  0
    8.2954    8.8096   11.2381 H   0  0  0  0  0  0  0  0  0  0  0  0
    5.0095   11.5336   10.9375 H   0  0  0  0  0  0  0  0  0  0  0  0
    4.1032   10.7768   -2.1187 H   0  0  0  0  0  0  0  0  0  0  0  0
    4.2201    9.7826   -4.3599 H   0  0  0  0  0  0  0  0  0  0  0  0
    5.0028    8.0168   -5.8153 H   0  0  0  0  0  0  0  0  0  0  0  0
    4.0522    6.6700   -5.1871 H   0  0  0  0  0  0  0  0  0  0  0  0
    5.8114    6.5921   -5.1428 H   0  0  0  0  0  0  0  0  0  0  0  0
    5.6680    6.1413   -2.6766 H   0  0  0  0  0  0  0  0  0  0  0  0
    5.5334    7.1263   -0.4277 H   0  0  0  0  0  0  0  0  0  0  0  0
    6.8178   10.6855   -0.7652 H   0  0  0  0  0  0  0  0  0  0  0  0
    7.4933   13.0242   -0.4495 H   0  0  0  0  0  0  0  0  0  0  0  0
    7.0688   14.9748    1.6572 H   0  0  0  0  0  0  0  0  0  0  0  0
    5.4294   15.5633    1.3674 H   0  0  0  0  0  0  0  0  0  0  0  0
    6.5743   15.4082    0.0258 H   0  0  0  0  0  0  0  0  0  0  0  0
    3.9640   13.7398    1.8379 H   0  0  0  0  0  0  0  0  0  0  0  0
    3.2705   11.4104    1.5049 H   0  0  0  0  0  0  0  0  0  0  0  0
   -0.9301    3.8213    3.4911 H   0  0  0  0  0  0  0  0  0  0  0  0
   -3.2571    3.2872    2.9216 H   0  0  0  0  0  0  0  0  0  0  0  0
   -4.9398    4.3387    0.1459 H   0  0  0  0  0  0  0  0  0  0  0  0
   -5.5737    5.4608    1.3418 H   0  0  0  0  0  0  0  0  0  0  0  0
   -5.2900    3.7732    1.7851 H   0  0  0  0  0  0  0  0  0  0  0  0
   -3.4441    6.7403    0.4257 H   0  0  0  0  0  0  0  0  0  0  0  0
   -1.1347    7.3052    1.0347 H   0  0  0  0  0  0  0  0  0  0  0  0
   -0.6979    6.3581    4.8407 H   0  0  0  0  0  0  0  0  0  0  0  0
    0.2699    6.0378    7.0754 H   0  0  0  0  0  0  0  0  0  0  0  0
    1.9731    5.0154    8.4863 H   0  0  0  0  0  0  0  0  0  0  0  0
    3.3354    5.9863    7.9264 H   0  0  0  0  0  0  0  0  0  0  0  0
    3.3894    4.2325    7.7651 H   0  0  0  0  0  0  0  0  0  0  0  0
    3.8169    4.4490    5.3200 H   0  0  0  0  0  0  0  0  0  0  0  0
    2.8451    4.7497    3.0825 H   0  0  0  0  0  0  0  0  0  0  0  0
    0.9176    5.6945   -4.3052 H   0  0  0  0  0  0  0  0  0  0  0  0
    1.4068    7.7664   -5.5543 H   0  0  0  0  0  0  0  0  0  0  0  0
    0.9357    9.9592   -4.5468 H   0  0  0  0  0  0  0  0  0  0  0  0
   -1.1724   10.4809   -1.6798 H   0  0  0  0  0  0  0  0  0  0  0  0
   -0.0967   11.2699   -2.8411 H   0  0  0  0  0  0  0  0  0  0  0  0
    1.8611   10.6965   -1.3804 H   0  0  0  0  0  0  0  0  0  0  0  0
    0.6817   11.7040   -0.5313 H   0  0  0  0  0  0  0  0  0  0  0  0
    0.7675    9.9691   -0.2088 H   0  0  0  0  0  0  0  0  0  0  0  0
   -0.6609    8.0243   -1.1002 H   0  0  0  0  0  0  0  0  0  0  0  0
   -7.0860   -8.1083   -2.4964 H   0  0  0  0  0  0  0  0  0  0  0  0
   -8.6150   -9.2922   -4.0149 H   0  0  0  0  0  0  0  0  0  0  0  0
   -8.5926   -8.8034   -6.4276 H   0  0  0  0  0  0  0  0  0  0  0  0
   -6.0178   -6.8326   -8.0912 H   0  0  0  0  0  0  0  0  0  0  0  0
   -7.4722   -7.8154   -8.3238 H   0  0  0  0  0  0  0  0  0  0  0  0
   -8.8852   -5.8676   -7.6544 H   0  0  0  0  0  0  0  0  0  0  0  0
   -7.8632   -5.4639   -9.0380 H   0  0  0  0  0  0  0  0  0  0  0  0
   -7.4342   -4.8923   -7.4217 H   0  0  0  0  0  0  0  0  0  0  0  0
   -5.4583   -5.9773   -5.8224 H   0  0  0  0  0  0  0  0  0  0  0  0
   -1.4041    1.5747    0.5162 H   0  0  0  0  0  0  0  0  0  0  0  0
   -1.3899   -0.1625    0.2617 H   0  0  0  0  0  0  0  0  0  0  0  0
   -3.8541    1.6485    0.5046 H   0  0  0  0  0  0  0  0  0  0  0  0
   -3.9566   -0.0783    0.1632 H   0  0  0  0  0  0  0  0  0  0  0  0
   -3.3024    0.4804    1.7092 H   0  0  0  0  0  0  0  0  0  0  0  0
   -2.3605   -1.8155    0.1394 H   0  0  0  0  0  0  0  0  0  0  0  0
   -2.4317   -3.4482   -0.5028 H   0  0  0  0  0  0  0  0  0  0  0  0
   -0.0852   -2.5844   -0.5040 H   0  0  0  0  0  0  0  0  0  0  0  0
   -0.6520   -2.9838   -2.1274 H   0  0  0  0  0  0  0  0  0  0  0  0
   -0.5602   -1.2986   -1.6227 H   0  0  0  0  0  0  0  0  0  0  0  0
   -3.6475  -11.9002   -5.7437 H   0  0  0  0  0  0  0  0  0  0  0  0
   -3.1858  -10.1933   -6.0461 H   0  0  0  0  0  0  0  0  0  0  0  0
   -5.5468   -9.6242   -6.5290 H   0  0  0  0  0  0  0  0  0  0  0  0
   -5.0025  -10.9214   -7.6048 H   0  0  0  0  0  0  0  0  0  0  0  0
   -6.0357  -11.2948   -6.2150 H   0  0  0  0  0  0  0  0  0  0  0  0
   -4.9822  -10.8553    4.2839 H   0  0  0  0  0  0  0  0  0  0  0  0
   -5.5260   -9.1833    3.9346 H   0  0  0  0  0  0  0  0  0  0  0  0
   -2.6199  -10.1433    4.1012 H   0  0  0  0  0  0  0  0  0  0  0  0
   -3.1229   -8.4911    3.7089 H   0  0  0  0  0  0  0  0  0  0  0  0
   -3.4478   -9.1619    5.3166 H   0  0  0  0  0  0  0  0  0  0  0  0
   -4.1804  -13.8440    1.2888 H   0  0  0  0  0  0  0  0  0  0  0  0
   -1.8659  -16.5723   -3.8407 H   0  0  0  0  0  0  0  0  0  0  0  0
   -2.5183  -18.9786    0.5702 H   0  0  0  0  0  0  0  0  0  0  0  0
   -1.5229  -21.1865   -1.8697 H   0  0  0  0  0  0  0  0  0  0  0  0
    0.5991  -21.1592   -0.5681 H   0  0  0  0  0  0  0  0  0  0  0  0
    1.1599  -18.6478   -0.1040 H   0  0  0  0  0  0  0  0  0  0  0  0
    1.5053  -17.4275   -2.4373 H   0  0  0  0  0  0  0  0  0  0  0  0
    1.1565  -19.1876   -4.3410 H   0  0  0  0  0  0  0  0  0  0  0  0
    2.2766  -20.8284   -2.5906 H   0  0  0  0  0  0  0  0  0  0  0  0
    0.8009  -21.6067   -3.2153 H   0  0  0  0  0  0  0  0  0  0  0  0
   -1.1911  -19.9954   -4.1362 H   0  0  0  0  0  0  0  0  0  0  0  0
  1  2  2  0  0  0  0
  2  3  1  0  0  0  0
  3  4  2  0  0  0  0
  3  5  1  0  0  0  0
  5  6  2  0  0  0  0
  6  7  1  0  0  0  0
  7  8  2  0  0  0  0
  8  9  1  0  0  0  0
  9 10  2  0  0  0  0
 10 11  1  0  0  0  0
 11 12  2  0  0  0  0
 12 13  1  0  0  0  0
 13 14  3  0  0  0  0
 12 15  1  0  0  0  0
 15 16  3  0  0  0  0
  8 17  1  0  0  0  0
 17 18  1  0  0  0  0
 18 19  1  0  0  0  0
 19 20  2  0  0  0  0
 20 21  1  0  0  0  0
 21 22  1  0  0  0  0
 21 23  1  0  0  0  0
  1 24  1  0  0  0  0
 24 25  2  0  0  0  0
 25 26  1  0  0  0  0
 26 27  1  0  0  0  0
 27 28  2  0  0  0  0
 28 29  1  0  0  0  0
 29 30  2  0  0  0  0
 30 31  1  0  0  0  0
 30 32  1  0  0  0  0
 32 33  2  0  0  0  0
 26 34  1  0  0  0  0
 34 35  2  0  0  0  0
 35 36  1  0  0  0  0
 36 37  2  0  0  0  0
 37 38  1  0  0  0  0
 37 39  1  0  0  0  0
 39 40  2  0  0  0  0
 25 41  1  0  0  0  0
 41 42  1  0  0  0  0
 42 43  1  0  0  0  0
 43 44  2  0  0  0  0
 44 45  1  0  0  0  0
 45 46  1  0  0  0  0
 46 47  2  0  0  0  0
 47 48  1  0  0  0  0
 48 49  2  0  0  0  0
 49 50  1  0  0  0  0
 49 51  1  0  0  0  0
 51 52  2  0  0  0  0
 45 53  1  0  0  0  0
 53 54  2  0  0  0  0
 54 55  1  0  0  0  0
 55 56  2  0  0  0  0
 56 57  1  0  0  0  0
 56 58  1  0  0  0  0
 58 59  2  0  0  0  0
 44 60  1  0  0  0  0
 60 61  1  0  0  0  0
 43 62  1  0  0  0  0
 62 63  2  0  0  0  0
 63 64  1  0  0  0  0
 64 65  2  0  0  0  0
 65 66  1  0  0  0  0
 66 67  2  0  0  0  0
 67 68  1  0  0  0  0
 68 69  1  0  0  0  0
 69 70  1  0  0  0  0
 68 71  2  0  0  0  0
 63 72  1  0  0  0  0
 72 73  1  0  0  0  0
 73 74  1  0  0  0  0
 74 75  1  0  0  0  0
 75 76  1  0  0  0  0
 76 77  1  0  0  0  0
 77 78  2  0  0  0  0
 78 79  1  0  0  0  0
 79 80  1  0  0  0  0
 77 81  1  0  0  0  0
 81 82  1  0  0  0  0
 82 83  1  0  0  0  0
 83 84  1  0  0  0  0
 84 85  1  0  0  0  0
 85 86  1  0  0  0  0
 86 87  2  0  0  0  0
 87 88  1  0  0  0  0
 88 89  2  0  0  0  0
 89 90  1  0  0  0  0
 90 91  1  0  0  0  0
 91 92  1  0  0  0  0
 90 93  2  0  0  0  0
 85 94  2  0  0  0  0
 94 95  1  0  0  0  0
 95 96  1  0  0  0  0
 96 97  1  0  0  0  0
 97 98  1  0  0  0  0
 98 99  1  0  0  0  0
 99100  1  0  0  0  0
100101  1  0  0  0  0
101102  1  0  0  0  0
102103  1  0  0  0  0
103104  1  0  0  0  0
101105  1  0  0  0  0
105106  1  0  0  0  0
 98107  1  0  0  0  0
107108  1  0  0  0  0
 94109  1  0  0  0  0
109110  2  0  0  0  0
110111  1  0  0  0  0
111112  2  0  0  0  0
111113  1  0  0  0  0
113114  1  0  0  0  0
114115  1  0  0  0  0
110116  1  0  0  0  0
116117  2  0  0  0  0
117118  1  0  0  0  0
117119  1  0  0  0  0
119120  1  0  0  0  0
120121  2  0  0  0  0
120122  1  0  0  0  0
122123  1  0  0  0  0
123124  1  0  0  0  0
119125  2  0  0  0  0
125126  1  0  0  0  0
125127  1  0  0  0  0
127128  2  0  0  0  0
128129  1  0  0  0  0
129130  2  0  0  0  0
129131  1  0  0  0  0
131132  2  0  0  0  0
132133  1  0  0  0  0
133134  2  0  0  0  0
134135  1  0  0  0  0
135136  2  0  0  0  0
136137  1  0  0  0  0
137138  2  0  0  0  0
138139  1  0  0  0  0
139140  3  0  0  0  0
138141  1  0  0  0  0
141142  3  0  0  0  0
134143  1  0  0  0  0
143144  1  0  0  0  0
144145  1  0  0  0  0
145146  2  0  0  0  0
146147  1  0  0  0  0
147148  1  0  0  0  0
147149  1  0  0  0  0
 11  2  1  0  0  0  0
 23 17  1  0  0  0  0
 61 24  1  0  0  0  0
104 62  1  0  0  0  0
118109  1  0  0  0  0
137128  1  0  0  0  0
149143  1  0  0  0  0
 10  5  1  0  0  0  0
 22 18  1  0  0  0  0
 33 27  1  0  0  0  0
 40 34  1  0  0  0  0
 60 41  2  0  0  0  0
 71 64  1  0  0  0  0
103 72  2  0  0  0  0
126116  1  0  0  0  0
136131  1  0  0  0  0
148144  1  0  0  0  0
 23  7  1  0  0  0  0
 52 46  1  0  0  0  0
 59 53  1  0  0  0  0
102 74  2  0  0  0  0
149133  1  0  0  0  0
100 75  2  0  0  0  0
 80 76  2  0  0  0  0
 99 81  2  0  0  0  0
 97 82  2  0  0  0  0
 96 84  2  0  0  0  0
 93 86  1  0  0  0  0
  1150  1  0  0  0  0
  6151  1  0  0  0  0
  9152  1  0  0  0  0
 17153  1  0  0  0  0
 18154  1  0  0  0  0
 19155  1  0  0  0  0
 20156  1  0  0  0  0
 21157  1  0  0  0  0
 22158  1  0  0  0  0
 22159  1  0  0  0  0
 23160  1  0  0  0  0
 28161  1  0  0  0  0
 29162  1  0  0  0  0
 31163  1  0  0  0  0
 31164  1  0  0  0  0
 31165  1  0  0  0  0
 32166  1  0  0  0  0
 33167  1  0  0  0  0
 35168  1  0  0  0  0
 36169  1  0  0  0  0
 38170  1  0  0  0  0
 38171  1  0  0  0  0
 38172  1  0  0  0  0
 39173  1  0  0  0  0
 40174  1  0  0  0  0
 47175  1  0  0  0  0
 48176  1  0  0  0  0
 50177  1  0  0  0  0
 50178  1  0  0  0  0
 50179  1  0  0  0  0
 51180  1  0  0  0  0
 52181  1  0  0  0  0
 54182  1  0  0  0  0
 55183  1  0  0  0  0
 57184  1  0  0  0  0
 57185  1  0  0  0  0
 57186  1  0  0  0  0
 58187  1  0  0  0  0
 59188  1  0  0  0  0
 65189  1  0  0  0  0
 66190  1  0  0  0  0
 67191  1  0  0  0  0
 69192  1  0  0  0  0
 69193  1  0  0  0  0
 70194  1  0  0  0  0
 70195  1  0  0  0  0
 70196  1  0  0  0  0
 71197  1  0  0  0  0
 87198  1  0  0  0  0
 88199  1  0  0  0  0
 89200  1  0  0  0  0
 91201  1  0  0  0  0
 91202  1  0  0  0  0
 92203  1  0  0  0  0
 92204  1  0  0  0  0
 92205  1  0  0  0  0
 93206  1  0  0  0  0
105207  1  0  0  0  0
105208  1  0  0  0  0
106209  1  0  0  0  0
106210  1  0  0  0  0
106211  1  0  0  0  0
107212  1  0  0  0  0
107213  1  0  0  0  0
108214  1  0  0  0  0
108215  1  0  0  0  0
108216  1  0  0  0  0
114217  1  0  0  0  0
114218  1  0  0  0  0
115219  1  0  0  0  0
115220  1  0  0  0  0
115221  1  0  0  0  0
123222  1  0  0  0  0
123223  1  0  0  0  0
124224  1  0  0  0  0
124225  1  0  0  0  0
124226  1  0  0  0  0
127227  1  0  0  0  0
132228  1  0  0  0  0
135229  1  0  0  0  0
143230  1  0  0  0  0
144231  1  0  0  0  0
145232  1  0  0  0  0
146233  1  0  0  0  0
147234  1  0  0  0  0
148235  1  0  0  0  0
148236  1  0  0  0  0
149237  1  0  0  0  0
M  END
