
  xtb     02232217443D
 energy: -324.524444252071 gnorm: 0.000579549343 xtb: 6.4.1 (unknown)
198220  0     0  0            999 V2000
    1.4968    2.9314   -7.5294 C   0  0  0  0  0  0  0  0  0  0  0  0
    1.5102    2.1386   -8.6537 C   0  0  0  0  0  0  0  0  0  0  0  0
    1.1141    0.7311   -8.7305 C   0  0  0  0  0  0  0  0  0  0  0  0
    0.5555    0.0638   -7.8760 O   0  0  0  0  0  0  0  0  0  0  0  0
    1.5389    0.2555  -10.0600 C   0  0  0  0  0  0  0  0  0  0  0  0
    1.4048   -1.0316  -10.5727 C   0  0  0  0  0  0  0  0  0  0  0  0
    1.9182   -1.1852  -11.8384 C   0  0  0  0  0  0  0  0  0  0  0  0
    2.5172   -0.1339  -12.5433 C   0  0  0  0  0  0  0  0  0  0  0  0
    2.6456    1.1443  -12.0519 C   0  0  0  0  0  0  0  0  0  0  0  0
    2.1340    1.3212  -10.7641 C   0  0  0  0  0  0  0  0  0  0  0  0
    2.0788    2.5188   -9.9249 C   0  0  0  0  0  0  0  0  0  0  0  0
    2.4809    3.7768  -10.3065 C   0  0  0  0  0  0  0  0  0  0  0  0
    3.1201    4.0757  -11.5251 C   0  0  0  0  0  0  0  0  0  0  0  0
    3.6685    4.3883  -12.4854 N   0  0  0  0  0  0  0  0  0  0  0  0
    2.2840    4.9563   -9.5636 C   0  0  0  0  0  0  0  0  0  0  0  0
    2.1282    5.9718   -9.0464 N   0  0  0  0  0  0  0  0  0  0  0  0
    2.8238   -1.0031  -13.7374 C   0  0  0  0  0  0  0  0  0  0  0  0
    4.2804   -1.4988  -13.9141 C   0  0  0  0  0  0  0  0  0  0  0  0
    4.8909   -1.5397  -12.5353 C   0  0  0  0  0  0  0  0  0  0  0  0
    4.3213   -2.5354  -11.8696 C   0  0  0  0  0  0  0  0  0  0  0  0
    3.3151   -3.1856  -12.7865 C   0  0  0  0  0  0  0  0  0  0  0  0
    4.0199   -2.9969  -14.1392 C   0  0  0  0  0  0  0  0  0  0  0  0
    2.1536   -2.1746  -12.9526 C   0  0  0  0  0  0  0  0  0  0  0  0
    1.0690    2.6589   -6.2307 C   0  0  0  0  0  0  0  0  0  0  0  0
    1.2567    3.5557   -5.1480 C   0  0  0  0  0  0  0  0  0  0  0  0
    1.9812    4.7171   -5.1782 N   0  0  0  0  0  0  0  0  0  0  0  0
    3.1637    4.8697   -5.9251 C   0  0  0  0  0  0  0  0  0  0  0  0
    3.4681    6.1047   -6.4918 C   0  0  0  0  0  0  0  0  0  0  0  0
    4.6251    6.2596   -7.2287 C   0  0  0  0  0  0  0  0  0  0  0  0
    5.4969    5.1964   -7.4305 C   0  0  0  0  0  0  0  0  0  0  0  0
    6.7182    5.3677   -8.2795 C   0  0  0  0  0  0  0  0  0  0  0  0
    5.1947    3.9736   -6.8417 C   0  0  0  0  0  0  0  0  0  0  0  0
    4.0505    3.8079   -6.0875 C   0  0  0  0  0  0  0  0  0  0  0  0
    1.5999    5.7583   -4.3073 C   0  0  0  0  0  0  0  0  0  0  0  0
    0.2620    6.1323   -4.2166 C   0  0  0  0  0  0  0  0  0  0  0  0
   -0.1162    7.1405   -3.3549 C   0  0  0  0  0  0  0  0  0  0  0  0
    0.8200    7.7967   -2.5644 C   0  0  0  0  0  0  0  0  0  0  0  0
    0.3862    8.8590   -1.6036 C   0  0  0  0  0  0  0  0  0  0  0  0
    2.1548    7.4271   -2.6745 C   0  0  0  0  0  0  0  0  0  0  0  0
    2.5476    6.4210   -3.5351 C   0  0  0  0  0  0  0  0  0  0  0  0
    0.6049    3.0876   -3.9930 C   0  0  0  0  0  0  0  0  0  0  0  0
    0.4849    3.6478   -2.3553 S   0  0  0  0  0  0  0  0  0  0  0  0
   -0.4386    2.2126   -1.9125 C   0  0  0  0  0  0  0  0  0  0  0  0
   -0.5987    1.3433   -2.9758 C   0  0  0  0  0  0  0  0  0  0  0  0
   -1.3250    0.1535   -2.9594 N   0  0  0  0  0  0  0  0  0  0  0  0
   -2.2438   -0.0484   -3.9989 C   0  0  0  0  0  0  0  0  0  0  0  0
   -2.9869    1.0258   -4.4828 C   0  0  0  0  0  0  0  0  0  0  0  0
   -3.8785    0.8482   -5.5214 C   0  0  0  0  0  0  0  0  0  0  0  0
   -4.0639   -0.4002   -6.0998 C   0  0  0  0  0  0  0  0  0  0  0  0
   -5.0122   -0.5895   -7.2440 C   0  0  0  0  0  0  0  0  0  0  0  0
   -3.3238   -1.4689   -5.6073 C   0  0  0  0  0  0  0  0  0  0  0  0
   -2.4221   -1.3027   -4.5766 C   0  0  0  0  0  0  0  0  0  0  0  0
   -0.9493   -0.8897   -2.1096 C   0  0  0  0  0  0  0  0  0  0  0  0
   -1.9163   -1.7309   -1.5595 C   0  0  0  0  0  0  0  0  0  0  0  0
   -1.5455   -2.7367   -0.6934 C   0  0  0  0  0  0  0  0  0  0  0  0
   -0.2113   -2.9390   -0.3514 C   0  0  0  0  0  0  0  0  0  0  0  0
    0.1675   -4.0501    0.5810 C   0  0  0  0  0  0  0  0  0  0  0  0
    0.7465   -2.1064   -0.9120 C   0  0  0  0  0  0  0  0  0  0  0  0
    0.3896   -1.0939   -1.7828 C   0  0  0  0  0  0  0  0  0  0  0  0
   -0.0172    1.8595   -4.1601 C   0  0  0  0  0  0  0  0  0  0  0  0
    0.1635    1.2183   -5.7515 S   0  0  0  0  0  0  0  0  0  0  0  0
   -0.8941    2.1190   -0.5541 C   0  0  0  0  0  0  0  0  0  0  0  0
   -1.4946    3.1261    0.1802 C   0  0  0  0  0  0  0  0  0  0  0  0
   -1.9920    4.3786   -0.3871 C   0  0  0  0  0  0  0  0  0  0  0  0
   -1.9224    5.5648    0.3382 C   0  0  0  0  0  0  0  0  0  0  0  0
   -2.4395    6.7297   -0.1951 C   0  0  0  0  0  0  0  0  0  0  0  0
   -3.0208    6.7297   -1.4511 C   0  0  0  0  0  0  0  0  0  0  0  0
   -3.0914    5.5581   -2.1940 C   0  0  0  0  0  0  0  0  0  0  0  0
   -3.7395    5.5287   -3.5494 C   0  0  0  0  0  0  0  0  0  0  0  0
   -5.1675    4.9886   -3.4583 C   0  0  0  0  0  0  0  0  0  0  0  0
   -2.5845    4.3914   -1.6462 C   0  0  0  0  0  0  0  0  0  0  0  0
   -1.6592    2.7475    1.5314 C   0  0  0  0  0  0  0  0  0  0  0  0
   -2.3616    3.5386    2.9252 S   0  0  0  0  0  0  0  0  0  0  0  0
   -2.0114    2.1332    3.8773 C   0  0  0  0  0  0  0  0  0  0  0  0
   -2.1729    1.6569    5.1878 C   0  0  0  0  0  0  0  0  0  0  0  0
   -2.8088    2.2457    6.3010 C   0  0  0  0  0  0  0  0  0  0  0  0
   -2.9042    1.4964    7.5183 C   0  0  0  0  0  0  0  0  0  0  0  0
   -3.5515    2.1515    8.4694 N   0  0  0  0  0  0  0  0  0  0  0  0
   -4.0013    3.5923    7.8801 S   0  0  0  0  0  0  0  0  0  0  0  0
   -3.3865    3.4337    6.3904 N   0  0  0  0  0  0  0  0  0  0  0  0
   -2.2907    0.2276    7.5850 C   0  0  0  0  0  0  0  0  0  0  0  0
   -2.1448   -0.6511    8.6683 C   0  0  0  0  0  0  0  0  0  0  0  0
   -2.5941   -0.7687   10.3358 S   0  0  0  0  0  0  0  0  0  0  0  0
   -1.6861   -2.2595   10.4490 C   0  0  0  0  0  0  0  0  0  0  0  0
   -1.4715   -3.1609   11.5091 C   0  0  0  0  0  0  0  0  0  0  0  0
   -2.1194   -2.9901   12.8113 C   0  0  0  0  0  0  0  0  0  0  0  0
   -2.8418   -4.0295   13.3928 C   0  0  0  0  0  0  0  0  0  0  0  0
   -3.5021   -3.8218   14.5882 C   0  0  0  0  0  0  0  0  0  0  0  0
   -3.4541   -2.5847   15.2089 C   0  0  0  0  0  0  0  0  0  0  0  0
   -2.7428   -1.5364   14.6401 C   0  0  0  0  0  0  0  0  0  0  0  0
   -2.7338   -0.1732   15.2682 C   0  0  0  0  0  0  0  0  0  0  0  0
   -3.8080    0.7082   14.6274 C   0  0  0  0  0  0  0  0  0  0  0  0
   -2.0819   -1.7506   13.4394 C   0  0  0  0  0  0  0  0  0  0  0  0
   -0.6591   -4.2131   11.1153 C   0  0  0  0  0  0  0  0  0  0  0  0
   -0.2013   -4.1057    9.4199 S   0  0  0  0  0  0  0  0  0  0  0  0
   -1.0816   -2.6302    9.2455 C   0  0  0  0  0  0  0  0  0  0  0  0
   -1.3544   -1.7119    8.2244 C   0  0  0  0  0  0  0  0  0  0  0  0
   -1.0211   -1.5284    6.9108 N   0  0  0  0  0  0  0  0  0  0  0  0
   -1.5993   -0.3478    6.4776 C   0  0  0  0  0  0  0  0  0  0  0  0
   -1.6093    0.3467    5.2340 C   0  0  0  0  0  0  0  0  0  0  0  0
   -1.1599    0.0373    3.9611 N   0  0  0  0  0  0  0  0  0  0  0  0
   -1.3908    1.1161    3.1551 C   0  0  0  0  0  0  0  0  0  0  0  0
   -1.1941    1.4647    1.8125 C   0  0  0  0  0  0  0  0  0  0  0  0
   -0.5401    0.6988    0.4131 S   0  0  0  0  0  0  0  0  0  0  0  0
   -0.6756   -1.1814    3.3563 C   0  0  0  0  0  0  0  0  0  0  0  0
    0.8339   -1.1380    3.1162 C   0  0  0  0  0  0  0  0  0  0  0  0
   -0.1016   -2.4578    6.2992 C   0  0  0  0  0  0  0  0  0  0  0  0
   -0.8015   -3.7461    5.8643 C   0  0  0  0  0  0  0  0  0  0  0  0
   -0.1027   -5.2709   11.8844 C   0  0  0  0  0  0  0  0  0  0  0  0
   -0.0036   -5.3922   13.2610 C   0  0  0  0  0  0  0  0  0  0  0  0
    0.6499   -6.5491   13.6604 C   0  0  0  0  0  0  0  0  0  0  0  0
    1.0779   -7.3459   12.6087 C   0  0  0  0  0  0  0  0  0  0  0  0
    0.6414   -6.6238   11.0845 S   0  0  0  0  0  0  0  0  0  0  0  0
    1.7797   -8.5615   12.7176 C   0  0  0  0  0  0  0  0  0  0  0  0
    2.2487   -9.3507   11.7181 C   0  0  0  0  0  0  0  0  0  0  0  0
    2.1071   -9.0766    9.9953 S   0  0  0  0  0  0  0  0  0  0  0  0
    3.0203  -10.5776    9.6313 C   0  0  0  0  0  0  0  0  0  0  0  0
    3.2739  -10.9521    8.5230 O   0  0  0  0  0  0  0  0  0  0  0  0
    3.3691  -11.1835   10.8011 N   0  0  0  0  0  0  0  0  0  0  0  0
    4.0975  -12.4414   10.7942 C   0  0  0  0  0  0  0  0  0  0  0  0
    3.1555  -13.6226   10.6030 C   0  0  0  0  0  0  0  0  0  0  0  0
    2.9824  -10.5838   11.9903 C   0  0  0  0  0  0  0  0  0  0  0  0
    3.2420  -11.0374   13.0821 O   0  0  0  0  0  0  0  0  0  0  0  0
    1.9135    3.9227   -7.6520 H   0  0  0  0  0  0  0  0  0  0  0  0
    0.9347   -1.8119   -9.9947 H   0  0  0  0  0  0  0  0  0  0  0  0
    3.1060    1.9428  -12.6094 H   0  0  0  0  0  0  0  0  0  0  0  0
    2.3735   -0.6969  -14.6796 H   0  0  0  0  0  0  0  0  0  0  0  0
    4.8481   -0.9692  -14.6745 H   0  0  0  0  0  0  0  0  0  0  0  0
    5.6093   -0.8257  -12.1774 H   0  0  0  0  0  0  0  0  0  0  0  0
    4.4685   -2.8195  -10.8440 H   0  0  0  0  0  0  0  0  0  0  0  0
    3.0035   -4.1925  -12.5206 H   0  0  0  0  0  0  0  0  0  0  0  0
    3.3783   -3.2019  -14.9952 H   0  0  0  0  0  0  0  0  0  0  0  0
    4.9381   -3.5769  -14.2205 H   0  0  0  0  0  0  0  0  0  0  0  0
    1.2642   -2.6317  -13.3824 H   0  0  0  0  0  0  0  0  0  0  0  0
    2.7881    6.9322   -6.3646 H   0  0  0  0  0  0  0  0  0  0  0  0
    4.8425    7.2183   -7.6744 H   0  0  0  0  0  0  0  0  0  0  0  0
    7.4112    4.5415   -8.1404 H   0  0  0  0  0  0  0  0  0  0  0  0
    6.4355    5.4048   -9.3321 H   0  0  0  0  0  0  0  0  0  0  0  0
    7.2262    6.2998   -8.0402 H   0  0  0  0  0  0  0  0  0  0  0  0
    5.8685    3.1383   -6.9685 H   0  0  0  0  0  0  0  0  0  0  0  0
    3.8330    2.8533   -5.6308 H   0  0  0  0  0  0  0  0  0  0  0  0
   -0.4733    5.6333   -4.8305 H   0  0  0  0  0  0  0  0  0  0  0  0
   -1.1553    7.4237   -3.2927 H   0  0  0  0  0  0  0  0  0  0  0  0
    1.2264    9.4766   -1.2966 H   0  0  0  0  0  0  0  0  0  0  0  0
   -0.0425    8.3939   -0.7157 H   0  0  0  0  0  0  0  0  0  0  0  0
   -0.3769    9.4939   -2.0485 H   0  0  0  0  0  0  0  0  0  0  0  0
    2.8990    7.9276   -2.0724 H   0  0  0  0  0  0  0  0  0  0  0  0
    3.5871    6.1374   -3.6079 H   0  0  0  0  0  0  0  0  0  0  0  0
   -2.8611    2.0050   -4.0435 H   0  0  0  0  0  0  0  0  0  0  0  0
   -4.4427    1.6954   -5.8849 H   0  0  0  0  0  0  0  0  0  0  0  0
   -5.5117   -1.5539   -7.1784 H   0  0  0  0  0  0  0  0  0  0  0  0
   -5.7633    0.1968   -7.2620 H   0  0  0  0  0  0  0  0  0  0  0  0
   -4.4657   -0.5586   -8.1873 H   0  0  0  0  0  0  0  0  0  0  0  0
   -3.4458   -2.4474   -6.0491 H   0  0  0  0  0  0  0  0  0  0  0  0
   -1.8411   -2.1412   -4.2231 H   0  0  0  0  0  0  0  0  0  0  0  0
   -2.9554   -1.5777   -1.8104 H   0  0  0  0  0  0  0  0  0  0  0  0
   -2.3048   -3.3768   -0.2665 H   0  0  0  0  0  0  0  0  0  0  0  0
    0.0309   -5.0139    0.0905 H   0  0  0  0  0  0  0  0  0  0  0  0
   -0.4617   -4.0401    1.4699 H   0  0  0  0  0  0  0  0  0  0  0  0
    1.2088   -3.9682    0.8826 H   0  0  0  0  0  0  0  0  0  0  0  0
    1.7894   -2.2512   -0.6695 H   0  0  0  0  0  0  0  0  0  0  0  0
    1.1457   -0.4543   -2.2141 H   0  0  0  0  0  0  0  0  0  0  0  0
   -1.4585    5.5723    1.3125 H   0  0  0  0  0  0  0  0  0  0  0  0
   -2.3942    7.6456    0.3762 H   0  0  0  0  0  0  0  0  0  0  0  0
   -3.4272    7.6461   -1.8559 H   0  0  0  0  0  0  0  0  0  0  0  0
   -3.7615    6.5347   -3.9736 H   0  0  0  0  0  0  0  0  0  0  0  0
   -3.1576    4.8907   -4.2194 H   0  0  0  0  0  0  0  0  0  0  0  0
   -5.1676    3.9792   -3.0529 H   0  0  0  0  0  0  0  0  0  0  0  0
   -5.6293    4.9672   -4.4429 H   0  0  0  0  0  0  0  0  0  0  0  0
   -5.7686    5.6184   -2.8064 H   0  0  0  0  0  0  0  0  0  0  0  0
   -2.6657    3.4667   -2.1992 H   0  0  0  0  0  0  0  0  0  0  0  0
   -2.8915   -4.9883   12.8985 H   0  0  0  0  0  0  0  0  0  0  0  0
   -4.0643   -4.6279   15.0364 H   0  0  0  0  0  0  0  0  0  0  0  0
   -3.9771   -2.4309   16.1418 H   0  0  0  0  0  0  0  0  0  0  0  0
   -2.9230   -0.2552   16.3402 H   0  0  0  0  0  0  0  0  0  0  0  0
   -1.7565    0.2928   15.1269 H   0  0  0  0  0  0  0  0  0  0  0  0
   -4.7920    0.2666   14.7684 H   0  0  0  0  0  0  0  0  0  0  0  0
   -3.6286    0.8080   13.5594 H   0  0  0  0  0  0  0  0  0  0  0  0
   -3.8040    1.6987   15.0761 H   0  0  0  0  0  0  0  0  0  0  0  0
   -1.5202   -0.9449   12.9897 H   0  0  0  0  0  0  0  0  0  0  0  0
   -1.1737   -1.2836    2.3855 H   0  0  0  0  0  0  0  0  0  0  0  0
   -0.9663   -2.0319    3.9661 H   0  0  0  0  0  0  0  0  0  0  0  0
    1.3753   -0.8602    4.0184 H   0  0  0  0  0  0  0  0  0  0  0  0
    1.0659   -0.4063    2.3474 H   0  0  0  0  0  0  0  0  0  0  0  0
    1.1807   -2.1099    2.7784 H   0  0  0  0  0  0  0  0  0  0  0  0
    0.4115   -1.9760    5.4728 H   0  0  0  0  0  0  0  0  0  0  0  0
    0.6514   -2.7115    7.0534 H   0  0  0  0  0  0  0  0  0  0  0  0
   -0.1062   -4.3786    5.3197 H   0  0  0  0  0  0  0  0  0  0  0  0
   -1.6628   -3.5380    5.2322 H   0  0  0  0  0  0  0  0  0  0  0  0
   -1.1511   -4.2928    6.7359 H   0  0  0  0  0  0  0  0  0  0  0  0
   -0.3805   -4.6502   13.9403 H   0  0  0  0  0  0  0  0  0  0  0  0
    0.8262   -6.8127   14.6881 H   0  0  0  0  0  0  0  0  0  0  0  0
    1.9817   -8.9134   13.7229 H   0  0  0  0  0  0  0  0  0  0  0  0
    4.8280  -12.4001    9.9831 H   0  0  0  0  0  0  0  0  0  0  0  0
    4.6077  -12.5078   11.7580 H   0  0  0  0  0  0  0  0  0  0  0  0
    2.4238  -13.6550   11.4071 H   0  0  0  0  0  0  0  0  0  0  0  0
    3.7245  -14.5478   10.6103 H   0  0  0  0  0  0  0  0  0  0  0  0
    2.6360  -13.5385    9.6513 H   0  0  0  0  0  0  0  0  0  0  0  0
  1  2  2  0  0  0  0
  2  3  1  0  0  0  0
  3  4  2  0  0  0  0
  3  5  1  0  0  0  0
  5  6  2  0  0  0  0
  6  7  1  0  0  0  0
  7  8  2  0  0  0  0
  8  9  1  0  0  0  0
  9 10  2  0  0  0  0
 10 11  1  0  0  0  0
 11 12  2  0  0  0  0
 12 13  1  0  0  0  0
 13 14  3  0  0  0  0
 12 15  1  0  0  0  0
 15 16  3  0  0  0  0
  8 17  1  0  0  0  0
 17 18  1  0  0  0  0
 18 19  1  0  0  0  0
 19 20  2  0  0  0  0
 20 21  1  0  0  0  0
 21 22  1  0  0  0  0
 21 23  1  0  0  0  0
  1 24  1  0  0  0  0
 24 25  2  0  0  0  0
 25 26  1  0  0  0  0
 26 27  1  0  0  0  0
 27 28  2  0  0  0  0
 28 29  1  0  0  0  0
 29 30  2  0  0  0  0
 30 31  1  0  0  0  0
 30 32  1  0  0  0  0
 32 33  2  0  0  0  0
 26 34  1  0  0  0  0
 34 35  2  0  0  0  0
 35 36  1  0  0  0  0
 36 37  2  0  0  0  0
 37 38  1  0  0  0  0
 37 39  1  0  0  0  0
 39 40  2  0  0  0  0
 25 41  1  0  0  0  0
 41 42  1  0  0  0  0
 42 43  1  0  0  0  0
 43 44  2  0  0  0  0
 44 45  1  0  0  0  0
 45 46  1  0  0  0  0
 46 47  2  0  0  0  0
 47 48  1  0  0  0  0
 48 49  2  0  0  0  0
 49 50  1  0  0  0  0
 49 51  1  0  0  0  0
 51 52  2  0  0  0  0
 45 53  1  0  0  0  0
 53 54  2  0  0  0  0
 54 55  1  0  0  0  0
 55 56  2  0  0  0  0
 56 57  1  0  0  0  0
 56 58  1  0  0  0  0
 58 59  2  0  0  0  0
 44 60  1  0  0  0  0
 60 61  1  0  0  0  0
 43 62  1  0  0  0  0
 62 63  2  0  0  0  0
 63 64  1  0  0  0  0
 64 65  2  0  0  0  0
 65 66  1  0  0  0  0
 66 67  2  0  0  0  0
 67 68  1  0  0  0  0
 68 69  1  0  0  0  0
 69 70  1  0  0  0  0
 68 71  2  0  0  0  0
 63 72  1  0  0  0  0
 72 73  1  0  0  0  0
 73 74  1  0  0  0  0
 74 75  1  0  0  0  0
 75 76  1  0  0  0  0
 76 77  1  0  0  0  0
 77 78  2  0  0  0  0
 78 79  1  0  0  0  0
 79 80  1  0  0  0  0
 77 81  1  0  0  0  0
 81 82  1  0  0  0  0
 82 83  1  0  0  0  0
 83 84  1  0  0  0  0
 84 85  1  0  0  0  0
 85 86  1  0  0  0  0
 86 87  2  0  0  0  0
 87 88  1  0  0  0  0
 88 89  2  0  0  0  0
 89 90  1  0  0  0  0
 90 91  1  0  0  0  0
 91 92  1  0  0  0  0
 90 93  2  0  0  0  0
 85 94  2  0  0  0  0
 94 95  1  0  0  0  0
 95 96  1  0  0  0  0
 96 97  1  0  0  0  0
 97 98  1  0  0  0  0
 98 99  1  0  0  0  0
 99100  1  0  0  0  0
100101  1  0  0  0  0
101102  1  0  0  0  0
102103  1  0  0  0  0
103104  1  0  0  0  0
101105  1  0  0  0  0
105106  1  0  0  0  0
 98107  1  0  0  0  0
107108  1  0  0  0  0
 94109  1  0  0  0  0
109110  2  0  0  0  0
110111  1  0  0  0  0
111112  2  0  0  0  0
112113  1  0  0  0  0
112114  1  0  0  0  0
114115  2  0  0  0  0
115116  1  0  0  0  0
116117  1  0  0  0  0
117118  2  0  0  0  0
117119  1  0  0  0  0
119120  1  0  0  0  0
120121  1  0  0  0  0
119122  1  0  0  0  0
122123  2  0  0  0  0
 11  2  1  0  0  0  0
 23 17  1  0  0  0  0
 61 24  1  0  0  0  0
104 62  1  0  0  0  0
113109  1  0  0  0  0
122115  1  0  0  0  0
 10  5  1  0  0  0  0
 22 18  1  0  0  0  0
 33 27  1  0  0  0  0
 40 34  1  0  0  0  0
 60 41  2  0  0  0  0
 71 64  1  0  0  0  0
103 72  2  0  0  0  0
 23  7  1  0  0  0  0
 52 46  1  0  0  0  0
 59 53  1  0  0  0  0
102 74  2  0  0  0  0
100 75  2  0  0  0  0
 80 76  2  0  0  0  0
 99 81  2  0  0  0  0
 97 82  2  0  0  0  0
 96 84  2  0  0  0  0
 93 86  1  0  0  0  0
  1124  1  0  0  0  0
  6125  1  0  0  0  0
  9126  1  0  0  0  0
 17127  1  0  0  0  0
 18128  1  0  0  0  0
 19129  1  0  0  0  0
 20130  1  0  0  0  0
 21131  1  0  0  0  0
 22132  1  0  0  0  0
 22133  1  0  0  0  0
 23134  1  0  0  0  0
 28135  1  0  0  0  0
 29136  1  0  0  0  0
 31137  1  0  0  0  0
 31138  1  0  0  0  0
 31139  1  0  0  0  0
 32140  1  0  0  0  0
 33141  1  0  0  0  0
 35142  1  0  0  0  0
 36143  1  0  0  0  0
 38144  1  0  0  0  0
 38145  1  0  0  0  0
 38146  1  0  0  0  0
 39147  1  0  0  0  0
 40148  1  0  0  0  0
 47149  1  0  0  0  0
 48150  1  0  0  0  0
 50151  1  0  0  0  0
 50152  1  0  0  0  0
 50153  1  0  0  0  0
 51154  1  0  0  0  0
 52155  1  0  0  0  0
 54156  1  0  0  0  0
 55157  1  0  0  0  0
 57158  1  0  0  0  0
 57159  1  0  0  0  0
 57160  1  0  0  0  0
 58161  1  0  0  0  0
 59162  1  0  0  0  0
 65163  1  0  0  0  0
 66164  1  0  0  0  0
 67165  1  0  0  0  0
 69166  1  0  0  0  0
 69167  1  0  0  0  0
 70168  1  0  0  0  0
 70169  1  0  0  0  0
 70170  1  0  0  0  0
 71171  1  0  0  0  0
 87172  1  0  0  0  0
 88173  1  0  0  0  0
 89174  1  0  0  0  0
 91175  1  0  0  0  0
 91176  1  0  0  0  0
 92177  1  0  0  0  0
 92178  1  0  0  0  0
 92179  1  0  0  0  0
 93180  1  0  0  0  0
105181  1  0  0  0  0
105182  1  0  0  0  0
106183  1  0  0  0  0
106184  1  0  0  0  0
106185  1  0  0  0  0
107186  1  0  0  0  0
107187  1  0  0  0  0
108188  1  0  0  0  0
108189  1  0  0  0  0
108190  1  0  0  0  0
110191  1  0  0  0  0
111192  1  0  0  0  0
114193  1  0  0  0  0
120194  1  0  0  0  0
120195  1  0  0  0  0
121196  1  0  0  0  0
121197  1  0  0  0  0
121198  1  0  0  0  0
M  END
