
  xtb     02082207483D
 energy: -402.811579353477 gnorm: 0.000745601692 xtb: 6.4.1 (unknown)
244271  0     0  0            999 V2000
   -4.7876   -3.3604   -3.9532 C   0  0  0  0  0  0  0  0  0  0  0  0
   -3.8672   -2.9017   -4.8466 C   0  0  0  0  0  0  0  0  0  0  0  0
   -2.6416   -2.1745   -4.4602 C   0  0  0  0  0  0  0  0  0  0  0  0
   -2.4212   -1.5596   -3.4365 O   0  0  0  0  0  0  0  0  0  0  0  0
   -1.6739   -2.4303   -5.5441 C   0  0  0  0  0  0  0  0  0  0  0  0
   -0.3188   -2.1024   -5.5391 C   0  0  0  0  0  0  0  0  0  0  0  0
    0.3787   -2.5877   -6.6188 C   0  0  0  0  0  0  0  0  0  0  0  0
   -0.2298   -3.3340   -7.6376 C   0  0  0  0  0  0  0  0  0  0  0  0
   -1.5689   -3.6448   -7.6659 C   0  0  0  0  0  0  0  0  0  0  0  0
   -2.2937   -3.1768   -6.5653 C   0  0  0  0  0  0  0  0  0  0  0  0
   -3.6849   -3.4142   -6.1904 C   0  0  0  0  0  0  0  0  0  0  0  0
   -4.6327   -4.0474   -6.9459 C   0  0  0  0  0  0  0  0  0  0  0  0
   -5.9723   -4.2377   -6.5448 C   0  0  0  0  0  0  0  0  0  0  0  0
   -7.0747   -4.4306   -6.2892 N   0  0  0  0  0  0  0  0  0  0  0  0
   -4.3921   -4.6100   -8.2151 C   0  0  0  0  0  0  0  0  0  0  0  0
   -4.2460   -5.1191   -9.2339 N   0  0  0  0  0  0  0  0  0  0  0  0
    1.0772   -3.5687   -8.3560 C   0  0  0  0  0  0  0  0  0  0  0  0
    1.3511   -2.7271   -9.6183 C   0  0  0  0  0  0  0  0  0  0  0  0
    2.8483   -2.8217   -9.8040 C   0  0  0  0  0  0  0  0  0  0  0  0
    3.4207   -2.1063   -8.8445 C   0  0  0  0  0  0  0  0  0  0  0  0
    2.3199   -1.5177   -7.9916 C   0  0  0  0  0  0  0  0  0  0  0  0
    1.2448   -1.3018   -9.0637 C   0  0  0  0  0  0  0  0  0  0  0  0
    1.7543   -2.7300   -7.2240 C   0  0  0  0  0  0  0  0  0  0  0  0
   -4.8594   -3.0360   -2.5723 C   0  0  0  0  0  0  0  0  0  0  0  0
   -4.9471   -3.9969   -1.5602 C   0  0  0  0  0  0  0  0  0  0  0  0
   -4.9064   -5.3553   -1.7933 N   0  0  0  0  0  0  0  0  0  0  0  0
   -4.1830   -5.8563   -2.8966 C   0  0  0  0  0  0  0  0  0  0  0  0
   -4.7519   -6.8034   -3.7443 C   0  0  0  0  0  0  0  0  0  0  0  0
   -4.0728   -7.2157   -4.8727 C   0  0  0  0  0  0  0  0  0  0  0  0
   -2.8140   -6.7085   -5.1824 C   0  0  0  0  0  0  0  0  0  0  0  0
   -2.1126   -7.1332   -6.4357 C   0  0  0  0  0  0  0  0  0  0  0  0
   -2.2327   -5.8061   -4.3014 C   0  0  0  0  0  0  0  0  0  0  0  0
   -2.9012   -5.3853   -3.1676 C   0  0  0  0  0  0  0  0  0  0  0  0
   -5.5277   -6.2403   -0.9038 C   0  0  0  0  0  0  0  0  0  0  0  0
   -4.9783   -7.4960   -0.6594 C   0  0  0  0  0  0  0  0  0  0  0  0
   -5.5963   -8.3645    0.2184 C   0  0  0  0  0  0  0  0  0  0  0  0
   -6.7648   -8.0085    0.8795 C   0  0  0  0  0  0  0  0  0  0  0  0
   -7.4255   -8.9391    1.8494 C   0  0  0  0  0  0  0  0  0  0  0  0
   -7.3098   -6.7548    0.6250 C   0  0  0  0  0  0  0  0  0  0  0  0
   -6.7099   -5.8814   -0.2583 C   0  0  0  0  0  0  0  0  0  0  0  0
   -4.9181   -3.3854   -0.2900 C   0  0  0  0  0  0  0  0  0  0  0  0
   -4.7698   -3.9727    1.3337 S   0  0  0  0  0  0  0  0  0  0  0  0
   -4.6240   -2.3251    1.9345 C   0  0  0  0  0  0  0  0  0  0  0  0
   -4.7693   -1.3844    0.9333 C   0  0  0  0  0  0  0  0  0  0  0  0
   -4.7898   -0.0191    1.1764 N   0  0  0  0  0  0  0  0  0  0  0  0
   -4.1674    0.8522    0.2714 C   0  0  0  0  0  0  0  0  0  0  0  0
   -2.9291    0.5230   -0.2750 C   0  0  0  0  0  0  0  0  0  0  0  0
   -2.2948    1.3936   -1.1399 C   0  0  0  0  0  0  0  0  0  0  0  0
   -2.8785    2.6069   -1.4859 C   0  0  0  0  0  0  0  0  0  0  0  0
   -2.1930    3.5635   -2.4158 C   0  0  0  0  0  0  0  0  0  0  0  0
   -4.1208    2.9220   -0.9474 C   0  0  0  0  0  0  0  0  0  0  0  0
   -4.7624    2.0616   -0.0812 C   0  0  0  0  0  0  0  0  0  0  0  0
   -5.7443    0.4800    2.0835 C   0  0  0  0  0  0  0  0  0  0  0  0
   -7.0244   -0.0621    2.1371 C   0  0  0  0  0  0  0  0  0  0  0  0
   -7.9782    0.4912    2.9668 C   0  0  0  0  0  0  0  0  0  0  0  0
   -7.6844    1.5874    3.7670 C   0  0  0  0  0  0  0  0  0  0  0  0
   -8.7511    2.2281    4.5999 C   0  0  0  0  0  0  0  0  0  0  0  0
   -6.3924    2.0979    3.7363 C   0  0  0  0  0  0  0  0  0  0  0  0
   -5.4306    1.5555    2.9080 C   0  0  0  0  0  0  0  0  0  0  0  0
   -4.8881   -1.9967   -0.3411 C   0  0  0  0  0  0  0  0  0  0  0  0
   -4.7797   -1.4025   -1.9514 S   0  0  0  0  0  0  0  0  0  0  0  0
   -3.9596   -2.0519    3.1939 C   0  0  0  0  0  0  0  0  0  0  0  0
   -4.3451   -1.5228    4.4022 C   0  0  0  0  0  0  0  0  0  0  0  0
   -5.7281   -1.4136    4.8584 C   0  0  0  0  0  0  0  0  0  0  0  0
   -6.7082   -2.2648    4.3543 C   0  0  0  0  0  0  0  0  0  0  0  0
   -7.9895   -2.2197    4.8686 C   0  0  0  0  0  0  0  0  0  0  0  0
   -8.3013   -1.3469    5.8941 C   0  0  0  0  0  0  0  0  0  0  0  0
   -7.3375   -0.4879    6.4141 C   0  0  0  0  0  0  0  0  0  0  0  0
   -7.7060    0.4079    7.5676 C   0  0  0  0  0  0  0  0  0  0  0  0
   -6.6864    1.4878    7.9072 C   0  0  0  0  0  0  0  0  0  0  0  0
   -6.0634   -0.5223    5.8750 C   0  0  0  0  0  0  0  0  0  0  0  0
   -3.2070   -1.2069    5.2013 C   0  0  0  0  0  0  0  0  0  0  0  0
   -2.9744   -0.4059    6.7456 S   0  0  0  0  0  0  0  0  0  0  0  0
   -1.2522   -0.5362    6.5652 C   0  0  0  0  0  0  0  0  0  0  0  0
   -0.0582   -0.0496    7.1365 C   0  0  0  0  0  0  0  0  0  0  0  0
    0.1929    0.9235    8.1327 C   0  0  0  0  0  0  0  0  0  0  0  0
    1.4823    1.5712    8.1748 C   0  0  0  0  0  0  0  0  0  0  0  0
    1.5255    2.5451    9.0684 N   0  0  0  0  0  0  0  0  0  0  0  0
    0.0866    2.6359    9.8065 S   0  0  0  0  0  0  0  0  0  0  0  0
   -0.6570    1.4430    9.0023 N   0  0  0  0  0  0  0  0  0  0  0  0
    2.5083    1.1300    7.3077 C   0  0  0  0  0  0  0  0  0  0  0  0
    3.7647    1.6563    6.9308 C   0  0  0  0  0  0  0  0  0  0  0  0
    4.6126    3.1734    6.9743 S   0  0  0  0  0  0  0  0  0  0  0  0
    5.5658    2.6866    5.5778 C   0  0  0  0  0  0  0  0  0  0  0  0
    6.1515    3.4413    4.5189 C   0  0  0  0  0  0  0  0  0  0  0  0
    6.4462    4.8681    4.5824 C   0  0  0  0  0  0  0  0  0  0  0  0
    6.7376    5.6096    3.4357 C   0  0  0  0  0  0  0  0  0  0  0  0
    7.0292    6.9552    3.5302 C   0  0  0  0  0  0  0  0  0  0  0  0
    7.0458    7.5857    4.7628 C   0  0  0  0  0  0  0  0  0  0  0  0
    6.7736    6.8668    5.9192 C   0  0  0  0  0  0  0  0  0  0  0  0
    6.8468    7.5196    7.2693 C   0  0  0  0  0  0  0  0  0  0  0  0
    8.2448    7.3490    7.8670 C   0  0  0  0  0  0  0  0  0  0  0  0
    6.4824    5.5156    5.8164 C   0  0  0  0  0  0  0  0  0  0  0  0
    6.3652    2.6515    3.4028 C   0  0  0  0  0  0  0  0  0  0  0  0
    6.0218    0.9377    3.7157 S   0  0  0  0  0  0  0  0  0  0  0  0
    5.3376    1.3552    5.2455 C   0  0  0  0  0  0  0  0  0  0  0  0
    4.3117    0.7742    5.9988 C   0  0  0  0  0  0  0  0  0  0  0  0
    3.4682   -0.2893    5.7917 N   0  0  0  0  0  0  0  0  0  0  0  0
    2.3162   -0.0316    6.5160 C   0  0  0  0  0  0  0  0  0  0  0  0
    1.0018   -0.5161    6.3125 C   0  0  0  0  0  0  0  0  0  0  0  0
    0.4674   -1.2330    5.2631 N   0  0  0  0  0  0  0  0  0  0  0  0
   -0.8905   -1.2188    5.4043 C   0  0  0  0  0  0  0  0  0  0  0  0
   -1.9970   -1.5676    4.6202 C   0  0  0  0  0  0  0  0  0  0  0  0
   -2.2122   -2.2448    3.0540 S   0  0  0  0  0  0  0  0  0  0  0  0
    1.0674   -1.7524    4.0578 C   0  0  0  0  0  0  0  0  0  0  0  0
    1.1401   -3.2788    4.0739 C   0  0  0  0  0  0  0  0  0  0  0  0
    3.9949   -1.5784    5.3976 C   0  0  0  0  0  0  0  0  0  0  0  0
    5.1507   -1.9987    6.3046 C   0  0  0  0  0  0  0  0  0  0  0  0
    5.9954    2.9810    2.0307 C   0  0  0  0  0  0  0  0  0  0  0  0
    4.6681    3.1576    1.7535 C   0  0  0  0  0  0  0  0  0  0  0  0
    4.5226    2.9994    0.3577 C   0  0  0  0  0  0  0  0  0  0  0  0
    3.3712    2.8398   -0.4221 C   0  0  0  0  0  0  0  0  0  0  0  0
    2.0658    2.6904    0.2359 C   0  0  0  0  0  0  0  0  0  0  0  0
    1.9805    1.7714    1.2829 C   0  0  0  0  0  0  0  0  0  0  0  0
    0.7972    1.5889    1.9643 C   0  0  0  0  0  0  0  0  0  0  0  0
   -0.3349    2.3249    1.6358 C   0  0  0  0  0  0  0  0  0  0  0  0
   -1.6084    2.1223    2.4059 C   0  0  0  0  0  0  0  0  0  0  0  0
   -1.4659    2.5242    3.8749 C   0  0  0  0  0  0  0  0  0  0  0  0
   -0.2484    3.2331    0.5893 C   0  0  0  0  0  0  0  0  0  0  0  0
    0.9304    3.4069   -0.1160 C   0  0  0  0  0  0  0  0  0  0  0  0
    3.6376    2.6473   -1.7653 C   0  0  0  0  0  0  0  0  0  0  0  0
    4.9601    2.5587   -2.3043 C   0  0  0  0  0  0  0  0  0  0  0  0
    6.1129    2.6078   -1.4852 C   0  0  0  0  0  0  0  0  0  0  0  0
    7.4667    2.3933   -1.9931 C   0  0  0  0  0  0  0  0  0  0  0  0
    7.7347    1.4162   -2.9507 C   0  0  0  0  0  0  0  0  0  0  0  0
    9.0195    1.2268   -3.4185 C   0  0  0  0  0  0  0  0  0  0  0  0
   10.0736    2.0010   -2.9484 C   0  0  0  0  0  0  0  0  0  0  0  0
   11.4581    1.8283   -3.5003 C   0  0  0  0  0  0  0  0  0  0  0  0
   11.6595    2.7283   -4.7217 C   0  0  0  0  0  0  0  0  0  0  0  0
    9.8066    2.9672   -1.9854 C   0  0  0  0  0  0  0  0  0  0  0  0
    8.5262    3.1587   -1.5076 C   0  0  0  0  0  0  0  0  0  0  0  0
    5.8407    2.8268   -0.1425 C   0  0  0  0  0  0  0  0  0  0  0  0
    6.7239    2.7969    0.9005 O   0  0  0  0  0  0  0  0  0  0  0  0
    4.7656    2.3511   -3.6845 C   0  0  0  0  0  0  0  0  0  0  0  0
    3.3948    2.2773   -3.8970 C   0  0  0  0  0  0  0  0  0  0  0  0
    2.7239    2.4651   -2.7341 O   0  0  0  0  0  0  0  0  0  0  0  0
    2.7502    2.0348   -5.1288 C   0  0  0  0  0  0  0  0  0  0  0  0
    1.4284    1.7815   -5.3854 C   0  0  0  0  0  0  0  0  0  0  0  0
    0.3502    1.5596   -4.3875 C   0  0  0  0  0  0  0  0  0  0  0  0
    0.4170    1.5653   -3.1811 O   0  0  0  0  0  0  0  0  0  0  0  0
   -0.8636    1.2502   -5.1803 C   0  0  0  0  0  0  0  0  0  0  0  0
   -2.1362    0.9762   -4.7248 C   0  0  0  0  0  0  0  0  0  0  0  0
   -3.1018    0.6305   -5.6616 C   0  0  0  0  0  0  0  0  0  0  0  0
   -4.8774    0.3223   -5.0926 Br  0  0  0  0  0  0  0  0  0  0  0  0
   -2.7656    0.5135   -7.0108 C   0  0  0  0  0  0  0  0  0  0  0  0
   -4.0399   -0.1346   -8.2516 Br  0  0  0  0  0  0  0  0  0  0  0  0
   -1.4960    0.8421   -7.4707 C   0  0  0  0  0  0  0  0  0  0  0  0
   -0.5427    1.2397   -6.5477 C   0  0  0  0  0  0  0  0  0  0  0  0
    0.8509    1.6444   -6.7093 C   0  0  0  0  0  0  0  0  0  0  0  0
    1.4396    1.9378   -7.9134 C   0  0  0  0  0  0  0  0  0  0  0  0
    0.7446    1.9470   -9.1413 C   0  0  0  0  0  0  0  0  0  0  0  0
    0.2305    2.0067  -10.1659 N   0  0  0  0  0  0  0  0  0  0  0  0
    2.7858    2.3079   -8.1075 C   0  0  0  0  0  0  0  0  0  0  0  0
    3.8715    2.5900   -8.3549 N   0  0  0  0  0  0  0  0  0  0  0  0
   -5.4558   -4.1498   -4.2774 H   0  0  0  0  0  0  0  0  0  0  0  0
    0.1135   -1.5502   -4.7181 H   0  0  0  0  0  0  0  0  0  0  0  0
   -2.0201   -4.2306   -8.4487 H   0  0  0  0  0  0  0  0  0  0  0  0
    1.3652   -4.6123   -8.4705 H   0  0  0  0  0  0  0  0  0  0  0  0
    0.7339   -2.9763  -10.4765 H   0  0  0  0  0  0  0  0  0  0  0  0
    3.3226   -3.4210  -10.5584 H   0  0  0  0  0  0  0  0  0  0  0  0
    4.4676   -1.9864   -8.6364 H   0  0  0  0  0  0  0  0  0  0  0  0
    2.5931   -0.6719   -7.3645 H   0  0  0  0  0  0  0  0  0  0  0  0
    1.5331   -0.5551   -9.8013 H   0  0  0  0  0  0  0  0  0  0  0  0
    0.2612   -1.0640   -8.6623 H   0  0  0  0  0  0  0  0  0  0  0  0
    2.4967   -3.2139   -6.5910 H   0  0  0  0  0  0  0  0  0  0  0  0
   -5.7367   -7.1886   -3.5258 H   0  0  0  0  0  0  0  0  0  0  0  0
   -4.5345   -7.9293   -5.5391 H   0  0  0  0  0  0  0  0  0  0  0  0
   -1.2039   -6.5549   -6.5865 H   0  0  0  0  0  0  0  0  0  0  0  0
   -2.7608   -6.9978   -7.3006 H   0  0  0  0  0  0  0  0  0  0  0  0
   -1.8480   -8.1889   -6.3834 H   0  0  0  0  0  0  0  0  0  0  0  0
   -1.2449   -5.4175   -4.5074 H   0  0  0  0  0  0  0  0  0  0  0  0
   -2.4427   -4.6702   -2.4999 H   0  0  0  0  0  0  0  0  0  0  0  0
   -4.0643   -7.7838   -1.1577 H   0  0  0  0  0  0  0  0  0  0  0  0
   -5.1560   -9.3348    0.3970 H   0  0  0  0  0  0  0  0  0  0  0  0
   -6.9917   -9.9341    1.7922 H   0  0  0  0  0  0  0  0  0  0  0  0
   -8.4930   -9.0090    1.6478 H   0  0  0  0  0  0  0  0  0  0  0  0
   -7.3029   -8.5685    2.8673 H   0  0  0  0  0  0  0  0  0  0  0  0
   -8.2250   -6.4631    1.1194 H   0  0  0  0  0  0  0  0  0  0  0  0
   -7.1626   -4.9228   -0.4644 H   0  0  0  0  0  0  0  0  0  0  0  0
   -2.4574   -0.4119   -0.0097 H   0  0  0  0  0  0  0  0  0  0  0  0
   -1.3226    1.1359   -1.5321 H   0  0  0  0  0  0  0  0  0  0  0  0
   -2.2181    4.5756   -2.0142 H   0  0  0  0  0  0  0  0  0  0  0  0
   -1.1582    3.2690   -2.5662 H   0  0  0  0  0  0  0  0  0  0  0  0
   -2.6969    3.5848   -3.3836 H   0  0  0  0  0  0  0  0  0  0  0  0
   -4.5952    3.8562   -1.2134 H   0  0  0  0  0  0  0  0  0  0  0  0
   -5.7296    2.3208    0.3229 H   0  0  0  0  0  0  0  0  0  0  0  0
   -7.2768   -0.9006    1.5045 H   0  0  0  0  0  0  0  0  0  0  0  0
   -8.9745    0.0743    2.9803 H   0  0  0  0  0  0  0  0  0  0  0  0
   -9.3009    2.9552    4.0005 H   0  0  0  0  0  0  0  0  0  0  0  0
   -8.3232    2.7507    5.4512 H   0  0  0  0  0  0  0  0  0  0  0  0
   -9.4597    1.4839    4.9553 H   0  0  0  0  0  0  0  0  0  0  0  0
   -6.1364    2.9412    4.3622 H   0  0  0  0  0  0  0  0  0  0  0  0
   -4.4355    1.9708    2.8791 H   0  0  0  0  0  0  0  0  0  0  0  0
   -6.4610   -2.9763    3.5816 H   0  0  0  0  0  0  0  0  0  0  0  0
   -8.7472   -2.8827    4.4767 H   0  0  0  0  0  0  0  0  0  0  0  0
   -9.3012   -1.3356    6.3053 H   0  0  0  0  0  0  0  0  0  0  0  0
   -8.6692    0.8767    7.3492 H   0  0  0  0  0  0  0  0  0  0  0  0
   -7.8567   -0.2254    8.4483 H   0  0  0  0  0  0  0  0  0  0  0  0
   -5.7574    1.0514    8.2658 H   0  0  0  0  0  0  0  0  0  0  0  0
   -7.0809    2.1318    8.6904 H   0  0  0  0  0  0  0  0  0  0  0  0
   -6.4691    2.1003    7.0355 H   0  0  0  0  0  0  0  0  0  0  0  0
   -5.3093    0.1506    6.2452 H   0  0  0  0  0  0  0  0  0  0  0  0
    6.7320    5.1316    2.4690 H   0  0  0  0  0  0  0  0  0  0  0  0
    7.2477    7.5186    2.6348 H   0  0  0  0  0  0  0  0  0  0  0  0
    7.2747    8.6395    4.8274 H   0  0  0  0  0  0  0  0  0  0  0  0
    6.6204    8.5837    7.1792 H   0  0  0  0  0  0  0  0  0  0  0  0
    6.1118    7.0672    7.9376 H   0  0  0  0  0  0  0  0  0  0  0  0
    8.4834    6.2934    7.9745 H   0  0  0  0  0  0  0  0  0  0  0  0
    8.2998    7.8191    8.8459 H   0  0  0  0  0  0  0  0  0  0  0  0
    8.9916    7.8042    7.2201 H   0  0  0  0  0  0  0  0  0  0  0  0
    6.2926    4.9578    6.7207 H   0  0  0  0  0  0  0  0  0  0  0  0
    2.0478   -1.3008    3.9167 H   0  0  0  0  0  0  0  0  0  0  0  0
    0.4335   -1.4500    3.2167 H   0  0  0  0  0  0  0  0  0  0  0  0
    0.1368   -3.6968    4.0791 H   0  0  0  0  0  0  0  0  0  0  0  0
    1.6626   -3.6461    4.9546 H   0  0  0  0  0  0  0  0  0  0  0  0
    1.6564   -3.6322    3.1861 H   0  0  0  0  0  0  0  0  0  0  0  0
    4.3495   -1.5220    4.3621 H   0  0  0  0  0  0  0  0  0  0  0  0
    3.2014   -2.3179    5.4766 H   0  0  0  0  0  0  0  0  0  0  0  0
    4.8266   -2.0260    7.3428 H   0  0  0  0  0  0  0  0  0  0  0  0
    5.4964   -2.9886    6.0193 H   0  0  0  0  0  0  0  0  0  0  0  0
    5.9816   -1.3036    6.2169 H   0  0  0  0  0  0  0  0  0  0  0  0
    3.8930    3.3238    2.4729 H   0  0  0  0  0  0  0  0  0  0  0  0
    2.8486    1.1826    1.5443 H   0  0  0  0  0  0  0  0  0  0  0  0
    0.7501    0.8680    2.7678 H   0  0  0  0  0  0  0  0  0  0  0  0
   -1.8921    1.0671    2.3526 H   0  0  0  0  0  0  0  0  0  0  0  0
   -2.4050    2.7059    1.9403 H   0  0  0  0  0  0  0  0  0  0  0  0
   -2.3954    2.3421    4.4108 H   0  0  0  0  0  0  0  0  0  0  0  0
   -0.6786    1.9525    4.3622 H   0  0  0  0  0  0  0  0  0  0  0  0
   -1.2194    3.5804    3.9579 H   0  0  0  0  0  0  0  0  0  0  0  0
   -1.1193    3.8116    0.3207 H   0  0  0  0  0  0  0  0  0  0  0  0
    0.9768    4.1140   -0.9303 H   0  0  0  0  0  0  0  0  0  0  0  0
    6.9361    0.7796   -3.3013 H   0  0  0  0  0  0  0  0  0  0  0  0
    9.2109    0.4601   -4.1560 H   0  0  0  0  0  0  0  0  0  0  0  0
   12.1961    2.0858   -2.7381 H   0  0  0  0  0  0  0  0  0  0  0  0
   11.6147    0.7876   -3.7911 H   0  0  0  0  0  0  0  0  0  0  0  0
   10.9396    2.4797   -5.4982 H   0  0  0  0  0  0  0  0  0  0  0  0
   12.6618    2.6037   -5.1244 H   0  0  0  0  0  0  0  0  0  0  0  0
   11.5214    3.7722   -4.4494 H   0  0  0  0  0  0  0  0  0  0  0  0
   10.6148    3.5749   -1.6042 H   0  0  0  0  0  0  0  0  0  0  0  0
    8.3369    3.9177   -0.7639 H   0  0  0  0  0  0  0  0  0  0  0  0
    5.5160    2.2701   -4.4448 H   0  0  0  0  0  0  0  0  0  0  0  0
    3.4334    2.0452   -5.9677 H   0  0  0  0  0  0  0  0  0  0  0  0
   -2.3728    1.0021   -3.6723 H   0  0  0  0  0  0  0  0  0  0  0  0
   -1.2865    0.7747   -8.5259 H   0  0  0  0  0  0  0  0  0  0  0  0
  1  2  2  0  0  0  0
  2  3  1  0  0  0  0
  3  4  2  0  0  0  0
  3  5  1  0  0  0  0
  5  6  2  0  0  0  0
  6  7  1  0  0  0  0
  7  8  2  0  0  0  0
  8  9  1  0  0  0  0
  9 10  2  0  0  0  0
 10 11  1  0  0  0  0
 11 12  2  0  0  0  0
 12 13  1  0  0  0  0
 13 14  3  0  0  0  0
 12 15  1  0  0  0  0
 15 16  3  0  0  0  0
  8 17  1  0  0  0  0
 17 18  1  0  0  0  0
 18 19  1  0  0  0  0
 19 20  2  0  0  0  0
 20 21  1  0  0  0  0
 21 22  1  0  0  0  0
 21 23  1  0  0  0  0
  1 24  1  0  0  0  0
 24 25  2  0  0  0  0
 25 26  1  0  0  0  0
 26 27  1  0  0  0  0
 27 28  2  0  0  0  0
 28 29  1  0  0  0  0
 29 30  2  0  0  0  0
 30 31  1  0  0  0  0
 30 32  1  0  0  0  0
 32 33  2  0  0  0  0
 26 34  1  0  0  0  0
 34 35  2  0  0  0  0
 35 36  1  0  0  0  0
 36 37  2  0  0  0  0
 37 38  1  0  0  0  0
 37 39  1  0  0  0  0
 39 40  2  0  0  0  0
 25 41  1  0  0  0  0
 41 42  1  0  0  0  0
 42 43  1  0  0  0  0
 43 44  2  0  0  0  0
 44 45  1  0  0  0  0
 45 46  1  0  0  0  0
 46 47  2  0  0  0  0
 47 48  1  0  0  0  0
 48 49  2  0  0  0  0
 49 50  1  0  0  0  0
 49 51  1  0  0  0  0
 51 52  2  0  0  0  0
 45 53  1  0  0  0  0
 53 54  2  0  0  0  0
 54 55  1  0  0  0  0
 55 56  2  0  0  0  0
 56 57  1  0  0  0  0
 56 58  1  0  0  0  0
 58 59  2  0  0  0  0
 44 60  1  0  0  0  0
 60 61  1  0  0  0  0
 43 62  1  0  0  0  0
 62 63  2  0  0  0  0
 63 64  1  0  0  0  0
 64 65  2  0  0  0  0
 65 66  1  0  0  0  0
 66 67  2  0  0  0  0
 67 68  1  0  0  0  0
 68 69  1  0  0  0  0
 69 70  1  0  0  0  0
 68 71  2  0  0  0  0
 63 72  1  0  0  0  0
 72 73  1  0  0  0  0
 73 74  1  0  0  0  0
 74 75  1  0  0  0  0
 75 76  1  0  0  0  0
 76 77  1  0  0  0  0
 77 78  2  0  0  0  0
 78 79  1  0  0  0  0
 79 80  1  0  0  0  0
 77 81  1  0  0  0  0
 81 82  1  0  0  0  0
 82 83  1  0  0  0  0
 83 84  1  0  0  0  0
 84 85  1  0  0  0  0
 85 86  1  0  0  0  0
 86 87  2  0  0  0  0
 87 88  1  0  0  0  0
 88 89  2  0  0  0  0
 89 90  1  0  0  0  0
 90 91  1  0  0  0  0
 91 92  1  0  0  0  0
 90 93  2  0  0  0  0
 85 94  2  0  0  0  0
 94 95  1  0  0  0  0
 95 96  1  0  0  0  0
 96 97  1  0  0  0  0
 97 98  1  0  0  0  0
 98 99  1  0  0  0  0
 99100  1  0  0  0  0
100101  1  0  0  0  0
101102  1  0  0  0  0
102103  1  0  0  0  0
103104  1  0  0  0  0
101105  1  0  0  0  0
105106  1  0  0  0  0
 98107  1  0  0  0  0
107108  1  0  0  0  0
 94109  1  0  0  0  0
109110  2  0  0  0  0
110111  1  0  0  0  0
111112  2  0  0  0  0
112113  1  0  0  0  0
113114  2  0  0  0  0
114115  1  0  0  0  0
115116  2  0  0  0  0
116117  1  0  0  0  0
117118  1  0  0  0  0
116119  1  0  0  0  0
119120  2  0  0  0  0
112121  1  0  0  0  0
121122  2  0  0  0  0
122123  1  0  0  0  0
123124  1  0  0  0  0
124125  2  0  0  0  0
125126  1  0  0  0  0
126127  2  0  0  0  0
127128  1  0  0  0  0
128129  1  0  0  0  0
127130  1  0  0  0  0
130131  2  0  0  0  0
123132  2  0  0  0  0
132133  1  0  0  0  0
122134  1  0  0  0  0
134135  2  0  0  0  0
135136  1  0  0  0  0
135137  1  0  0  0  0
137138  2  0  0  0  0
138139  1  0  0  0  0
139140  2  0  0  0  0
139141  1  0  0  0  0
141142  2  0  0  0  0
142143  1  0  0  0  0
143144  1  0  0  0  0
143145  2  0  0  0  0
145146  1  0  0  0  0
145147  1  0  0  0  0
147148  2  0  0  0  0
148149  1  0  0  0  0
149150  2  0  0  0  0
150151  1  0  0  0  0
151152  3  0  0  0  0
150153  1  0  0  0  0
153154  3  0  0  0  0
 11  2  1  0  0  0  0
 23 17  1  0  0  0  0
 61 24  1  0  0  0  0
104 62  1  0  0  0  0
133109  1  0  0  0  0
149138  1  0  0  0  0
 10  5  1  0  0  0  0
 22 18  1  0  0  0  0
 33 27  1  0  0  0  0
 40 34  1  0  0  0  0
 60 41  2  0  0  0  0
 71 64  1  0  0  0  0
103 72  2  0  0  0  0
132111  1  0  0  0  0
148141  1  0  0  0  0
 23  7  1  0  0  0  0
 52 46  1  0  0  0  0
 59 53  1  0  0  0  0
102 74  2  0  0  0  0
120113  1  0  0  0  0
136121  1  0  0  0  0
100 75  2  0  0  0  0
131124  1  0  0  0  0
 80 76  2  0  0  0  0
 99 81  2  0  0  0  0
 97 82  2  0  0  0  0
 96 84  2  0  0  0  0
 93 86  1  0  0  0  0
  1155  1  0  0  0  0
  6156  1  0  0  0  0
  9157  1  0  0  0  0
 17158  1  0  0  0  0
 18159  1  0  0  0  0
 19160  1  0  0  0  0
 20161  1  0  0  0  0
 21162  1  0  0  0  0
 22163  1  0  0  0  0
 22164  1  0  0  0  0
 23165  1  0  0  0  0
 28166  1  0  0  0  0
 29167  1  0  0  0  0
 31168  1  0  0  0  0
 31169  1  0  0  0  0
 31170  1  0  0  0  0
 32171  1  0  0  0  0
 33172  1  0  0  0  0
 35173  1  0  0  0  0
 36174  1  0  0  0  0
 38175  1  0  0  0  0
 38176  1  0  0  0  0
 38177  1  0  0  0  0
 39178  1  0  0  0  0
 40179  1  0  0  0  0
 47180  1  0  0  0  0
 48181  1  0  0  0  0
 50182  1  0  0  0  0
 50183  1  0  0  0  0
 50184  1  0  0  0  0
 51185  1  0  0  0  0
 52186  1  0  0  0  0
 54187  1  0  0  0  0
 55188  1  0  0  0  0
 57189  1  0  0  0  0
 57190  1  0  0  0  0
 57191  1  0  0  0  0
 58192  1  0  0  0  0
 59193  1  0  0  0  0
 65194  1  0  0  0  0
 66195  1  0  0  0  0
 67196  1  0  0  0  0
 69197  1  0  0  0  0
 69198  1  0  0  0  0
 70199  1  0  0  0  0
 70200  1  0  0  0  0
 70201  1  0  0  0  0
 71202  1  0  0  0  0
 87203  1  0  0  0  0
 88204  1  0  0  0  0
 89205  1  0  0  0  0
 91206  1  0  0  0  0
 91207  1  0  0  0  0
 92208  1  0  0  0  0
 92209  1  0  0  0  0
 92210  1  0  0  0  0
 93211  1  0  0  0  0
105212  1  0  0  0  0
105213  1  0  0  0  0
106214  1  0  0  0  0
106215  1  0  0  0  0
106216  1  0  0  0  0
107217  1  0  0  0  0
107218  1  0  0  0  0
108219  1  0  0  0  0
108220  1  0  0  0  0
108221  1  0  0  0  0
110222  1  0  0  0  0
114223  1  0  0  0  0
115224  1  0  0  0  0
117225  1  0  0  0  0
117226  1  0  0  0  0
118227  1  0  0  0  0
118228  1  0  0  0  0
118229  1  0  0  0  0
119230  1  0  0  0  0
120231  1  0  0  0  0
125232  1  0  0  0  0
126233  1  0  0  0  0
128234  1  0  0  0  0
128235  1  0  0  0  0
129236  1  0  0  0  0
129237  1  0  0  0  0
129238  1  0  0  0  0
130239  1  0  0  0  0
131240  1  0  0  0  0
134241  1  0  0  0  0
137242  1  0  0  0  0
142243  1  0  0  0  0
147244  1  0  0  0  0
M  END
