222

C         -9.07660        3.97110        2.47960
C        -10.13670        3.16190        2.14530
C        -10.10280        1.70660        1.98200
O         -9.23210        0.93460        2.34520
C        -11.34590        1.34540        1.27520
C        -11.73220        0.07660        0.85130
C        -12.93300        0.05300        0.18280
C        -13.69720        1.20490       -0.04140
C        -13.33400        2.46110        0.38530
C        -12.11120        2.50910        1.06050
C        -11.40630        3.64370        1.65680
C        -11.87750        4.93360        1.72100
C        -13.03510        5.39410        1.06690
N        -13.93740        5.85340        0.52280
C        -11.28350        5.97440        2.45970
N        -10.88800        6.86370        3.07180
C        -14.76540        0.44710       -0.79110
C        -14.74580        0.57140       -2.32960
C        -15.55590       -0.61540       -2.79930
C        -14.83370       -1.70760       -2.58410
C        -13.52350       -1.27710       -1.96530
C        -13.33330        0.07500       -2.66460
C        -13.91400       -0.83820       -0.53800
C         -7.74030        3.65480        2.72600
C         -6.70250        4.62030        2.73670
N         -6.82750        5.94110        2.39520
C         -5.89630        6.85900        2.92060
C         -5.56860        6.81980        4.27230
C         -4.62810        7.69120        4.78370
C         -4.00300        8.62610        3.96920
C         -2.95560        9.54530        4.51510
C         -4.35830        8.67630        2.62530
C         -5.29110        7.80570        2.09960
C         -7.74260        6.40120        1.42740
C         -8.38640        7.62080        1.61180
C         -9.31350        8.06010        0.68660
C         -9.63060        7.29770       -0.43040
C        -10.69620        7.73980       -1.38420
C         -8.95090        6.09910       -0.62590
C         -8.00740        5.65750        0.27880
C         -5.47390        4.02490        3.07690
S         -3.83810        4.59310        3.17280
C         -3.26490        2.95290        3.47250
C         -4.29480        2.03170        3.48370
N         -4.17150        0.66780        3.75020
C         -5.03630        0.12620        4.71040
C         -5.58190       -1.14660        4.56460
C         -6.43740       -1.64720        5.52420
C         -6.78460       -0.90060        6.64440
C         -7.74080       -1.44650        7.66050
C         -6.24210        0.37010        6.77960
C         -5.37580        0.87830        5.83270
C         -3.42100       -0.14530        2.89750
C         -2.72090       -1.24040        3.40030
C         -1.95000       -2.01520        2.55860
C         -1.85200       -1.72660        1.20200
C         -1.02260       -2.57850        0.28900
C         -2.56580       -0.64370        0.70490
C         -3.34350        0.13940        1.53490
C         -5.55030        2.65430        3.27640
S         -7.14130        2.02550        3.05800
C         -1.84660        2.78400        3.60520
C         -0.99790        3.60820        4.32160
C         -1.46300        4.58070        5.31100
C         -0.88780        5.84340        5.40700
C         -1.32890        6.72550        6.37490
C         -2.32950        6.35700        7.25780
C         -2.90290        5.09340        7.18810
C         -3.98470        4.66870        8.14100
C         -5.37020        4.84080        7.51660
C         -2.46530        4.21960        6.20610
C          0.35560        3.31090        4.05450
S          1.87790        3.96670        4.61520
C          2.72560        2.83040        3.61280
C          4.04250        2.46680        3.26140
C          5.32560        2.83970        3.72500
C          6.49170        2.15190        3.22150
N          7.60640        2.56340        3.80360
S          7.23540        3.71470        4.87950
N          5.63380        3.73540        4.64910
C          6.34870        1.22050        2.16660
C          7.25780        0.50500        1.36060
S          8.95910        0.19540        1.23660
C          8.66380       -0.77500       -0.18820
C          9.50870       -1.52390       -1.03110
C         10.94540       -1.66340       -0.78170
C         11.52990       -2.92300       -0.67840
C         12.87520       -3.02910       -0.38280
C         13.63980       -1.89270       -0.18170
C         13.06820       -0.63010       -0.27040
C         13.87110        0.60680        0.01130
C         13.69020        1.03270        1.46980
C         11.71740       -0.52800       -0.56740
C          8.79390       -2.13280       -2.04770
S          7.06310       -1.81180       -1.93440
C          7.31320       -0.83710       -0.53420
C          6.51120       -0.11570        0.35310
N          5.17460        0.15590        0.51090
C          5.06240        0.94850        1.63790
C          3.91670        1.43730        2.29450
N          2.58280        1.12670        2.10990
C          1.86720        1.98660        2.90250
C          0.52020        2.25930        3.15560
S         -0.98490        1.61940        2.61380
C          2.04520       -0.17370        1.76160
C          1.62570       -0.95310        3.00730
C          4.29480        0.18070       -0.64040
C          4.79910        1.15940       -1.70080
C          9.23170       -2.89510       -3.16330
C          8.40600       -3.56380       -4.04500
C          9.07300       -4.26140       -5.05400
C          8.32910       -4.94380       -6.16250
C          7.30720       -5.95800       -5.64820
C         10.45170       -4.10620       -4.96930
S         10.88720       -3.05060       -3.64210
C         11.49790       -4.58540       -5.79700
C         11.58340       -5.76550       -6.46890
C         12.51690       -5.91710       -7.61590
O         13.40820       -5.16070       -7.93090
C         12.08110       -7.14470       -8.31330
C         12.55080       -7.63970       -9.52760
C         11.92110       -8.78740       -9.94690
C         10.88760       -9.39590       -9.22170
C         10.41840       -8.92450       -8.01890
C         11.05700       -7.76700       -7.56890
C         10.84750       -7.00350       -6.34160
C         10.28190       -7.48730       -5.19060
C          9.68200       -8.75760       -5.08180
N          9.16580       -9.77340       -4.93850
C         10.30400       -6.80600       -3.95680
N         10.31820       -6.32870       -2.91260
C         10.71180      -10.49470      -10.23940
C         11.29000      -11.88990       -9.89860
C         12.43180      -11.65620       -8.94040
C         13.41830      -11.08550       -9.61880
C         12.96180      -10.92330      -11.04760
C         12.07340      -12.16950      -11.19100
C         11.87090       -9.82360      -11.04180
H         -9.28190        5.03340        2.47900
H        -11.11400       -0.78540        1.04790
H        -13.93610        3.33760        0.21200
H        -15.76890        0.49860       -0.37290
H        -15.03840        1.54570       -2.71120
H        -16.55970       -0.54580       -3.17530
H        -15.11380       -2.73230       -2.74420
H        -12.70210       -1.98700       -2.01500
H        -12.53680        0.68470       -2.24200
H        -13.17880       -0.03420       -3.73700
H        -14.34960       -1.64310        0.05120
H         -6.06000        6.10480        4.91460
H         -4.37180        7.64150        5.83120
H         -3.04190        9.63460        5.59480
H         -1.96560        9.15090        4.28460
H         -3.03530       10.53430        4.06890
H         -3.88760        9.40180        1.97790
H         -5.54870        7.84610        1.05160
H         -8.17380        8.20790        2.49160
H         -9.81950        8.99880        0.85250
H        -11.66700        7.36720       -1.05280
H        -10.75350        8.82480       -1.42610
H        -10.51090        7.35370       -2.38400
H         -9.16150        5.50420       -1.50330
H         -7.48610        4.72620        0.11140
H         -5.34290       -1.73410        3.69100
H         -6.85620       -2.63480        5.39430
H         -7.63350       -0.93170        8.61240
H         -7.57680       -2.51100        7.81430
H         -8.76660       -1.31220        7.31550
H         -6.49600        0.97170        7.64090
H         -4.95770        1.86630        5.96040
H         -2.77860       -1.46780        4.45440
H         -1.40700       -2.85670        2.96510
H         -0.26680       -3.12730        0.84600
H         -1.65580       -3.30380       -0.22330
H         -0.53200       -1.97170       -0.46940
H         -2.51470       -0.41050       -0.34900
H         -3.89510        0.97750        1.13480
H         -0.10390        6.12850        4.72190
H         -0.88160        7.70580        6.44950
H         -2.65640        7.04990        8.02070
H         -3.84130        3.61850        8.40580
H         -3.92660        5.26080        9.05640
H         -5.56460        5.89050        7.30880
H         -5.43790        4.28520        6.58310
H         -6.14030        4.47540        8.19220
H         -2.88520        3.22470        6.15090
H         10.93010       -3.81050       -0.81360
H         13.32810       -4.00600       -0.30260
H         14.69080       -1.98610        0.05150
H         14.92840        0.41660       -0.18260
H         13.54340        1.41750       -0.64280
H         14.03210        0.24550        2.13800
H         12.64080        1.22650        1.68020
H         14.25990        1.93580        1.67630
H         11.25930        0.44790       -0.64350
H          2.81200       -0.74510        1.24110
H          1.17750       -0.03430        1.10850
H          1.31340       -1.95240        2.71910
H          2.46100       -1.03220        3.69990
H          0.79430       -0.46810        3.51050
H          3.30250        0.49710       -0.32550
H          4.24340       -0.82880       -1.06070
H          4.89330        2.15610       -1.27480
H          5.76660        0.85170       -2.08730
H          4.09370        1.19690       -2.52620
H          7.33480       -3.54900       -3.94520
H          9.02680       -5.42880       -6.84530
H          7.79790       -4.17390       -6.73210
H          6.85250       -6.48470       -6.48400
H          6.52060       -5.46110       -5.08690
H          7.77280       -6.68960       -4.99290
H         12.32970       -3.90440       -5.95210
H         13.34110       -7.13720      -10.06290
H          9.61720       -9.39290       -7.47060
H          9.73330      -10.55400      -10.71240
H         10.54900      -12.62340       -9.59240
H         12.38330      -11.86960       -7.88870
H         14.36020      -10.72690       -9.24680
H         13.74410      -10.77830      -11.78810
H         12.64030      -13.09820      -11.14730
H         11.45240      -12.15920      -12.08590
H         11.65200       -9.45240      -12.04140
