
  xtb     02082210013D
 energy: -424.316808644984 gnorm: 0.000405430081 xtb: 6.4.1 (unknown)
265293  0     0  0            999 V2000
    9.3679    7.3892   -2.3785 C   0  0  0  0  0  0  0  0  0  0  0  0
    9.2969    8.1786   -1.2504 C   0  0  0  0  0  0  0  0  0  0  0  0
    8.0650    8.3870   -0.4741 C   0  0  0  0  0  0  0  0  0  0  0  0
    6.9728    7.8857   -0.6704 O   0  0  0  0  0  0  0  0  0  0  0  0
    8.3875    9.4388    0.5137 C   0  0  0  0  0  0  0  0  0  0  0  0
    7.5337    9.9851    1.4669 C   0  0  0  0  0  0  0  0  0  0  0  0
    8.1213   10.9404    2.2626 C   0  0  0  0  0  0  0  0  0  0  0  0
    9.4568   11.3318    2.1143 C   0  0  0  0  0  0  0  0  0  0  0  0
   10.3088   10.8045    1.1721 C   0  0  0  0  0  0  0  0  0  0  0  0
    9.7319    9.8269    0.3589 C   0  0  0  0  0  0  0  0  0  0  0  0
   10.3192    9.0338   -0.7193 C   0  0  0  0  0  0  0  0  0  0  0  0
   11.6522    8.9833   -1.0504 C   0  0  0  0  0  0  0  0  0  0  0  0
   12.6572    9.7432   -0.4266 C   0  0  0  0  0  0  0  0  0  0  0  0
   13.5256   10.3214    0.0562 N   0  0  0  0  0  0  0  0  0  0  0  0
   12.1919    8.0927   -1.9989 C   0  0  0  0  0  0  0  0  0  0  0  0
   12.7049    7.3709   -2.7311 N   0  0  0  0  0  0  0  0  0  0  0  0
    9.3708   12.3397    3.2344 C   0  0  0  0  0  0  0  0  0  0  0  0
    9.2471   13.8214    2.8219 C   0  0  0  0  0  0  0  0  0  0  0  0
    8.7056   14.4983    4.0603 C   0  0  0  0  0  0  0  0  0  0  0  0
    7.4399   14.1262    4.2027 C   0  0  0  0  0  0  0  0  0  0  0  0
    7.1048   13.1918    3.0627 C   0  0  0  0  0  0  0  0  0  0  0  0
    7.9795   13.7986    1.9580 C   0  0  0  0  0  0  0  0  0  0  0  0
    7.8805   11.9013    3.4015 C   0  0  0  0  0  0  0  0  0  0  0  0
    8.5458    6.2957   -2.6617 C   0  0  0  0  0  0  0  0  0  0  0  0
    7.8231    5.4312   -1.8121 C   0  0  0  0  0  0  0  0  0  0  0  0
    7.8672    5.3864   -0.4471 N   0  0  0  0  0  0  0  0  0  0  0  0
    6.7653    4.8413    0.2476 C   0  0  0  0  0  0  0  0  0  0  0  0
    6.9711    3.9089    1.2582 C   0  0  0  0  0  0  0  0  0  0  0  0
    5.8888    3.3578    1.9165 C   0  0  0  0  0  0  0  0  0  0  0  0
    4.5886    3.7193    1.5854 C   0  0  0  0  0  0  0  0  0  0  0  0
    3.4153    3.0865    2.2686 C   0  0  0  0  0  0  0  0  0  0  0  0
    4.3972    4.6705    0.5896 C   0  0  0  0  0  0  0  0  0  0  0  0
    5.4690    5.2321   -0.0742 C   0  0  0  0  0  0  0  0  0  0  0  0
    8.9640    5.8330    0.3004 C   0  0  0  0  0  0  0  0  0  0  0  0
    8.7542    6.4997    1.5057 C   0  0  0  0  0  0  0  0  0  0  0  0
    9.8274    6.9825    2.2308 C   0  0  0  0  0  0  0  0  0  0  0  0
   11.1306    6.8105    1.7847 C   0  0  0  0  0  0  0  0  0  0  0  0
   12.2942    7.3730    2.5386 C   0  0  0  0  0  0  0  0  0  0  0  0
   11.3337    6.1014    0.6027 C   0  0  0  0  0  0  0  0  0  0  0  0
   10.2722    5.6186   -0.1326 C   0  0  0  0  0  0  0  0  0  0  0  0
    7.0935    4.4928   -2.5764 C   0  0  0  0  0  0  0  0  0  0  0  0
    6.0135    3.1980   -2.1873 S   0  0  0  0  0  0  0  0  0  0  0  0
    5.8103    2.8095   -3.8875 C   0  0  0  0  0  0  0  0  0  0  0  0
    6.5554    3.6349   -4.7083 C   0  0  0  0  0  0  0  0  0  0  0  0
    6.5245    3.6363   -6.1178 N   0  0  0  0  0  0  0  0  0  0  0  0
    7.7021    3.3723   -6.8185 C   0  0  0  0  0  0  0  0  0  0  0  0
    7.7006    3.4080   -8.2132 C   0  0  0  0  0  0  0  0  0  0  0  0
    8.8428    3.1066   -8.9231 C   0  0  0  0  0  0  0  0  0  0  0  0
   10.0234    2.7557   -8.2787 C   0  0  0  0  0  0  0  0  0  0  0  0
   11.2643    2.4547   -9.0642 C   0  0  0  0  0  0  0  0  0  0  0  0
   10.0137    2.6975   -6.8938 C   0  0  0  0  0  0  0  0  0  0  0  0
    8.8733    2.9881   -6.1705 C   0  0  0  0  0  0  0  0  0  0  0  0
    5.5795    4.5529   -6.6522 C   0  0  0  0  0  0  0  0  0  0  0  0
    4.2198    4.3171   -6.4990 C   0  0  0  0  0  0  0  0  0  0  0  0
    3.2960    5.2198   -6.9943 C   0  0  0  0  0  0  0  0  0  0  0  0
    3.7011    6.3744   -7.6483 C   0  0  0  0  0  0  0  0  0  0  0  0
    2.7067    7.3495   -8.2010 C   0  0  0  0  0  0  0  0  0  0  0  0
    5.0654    6.6106   -7.7834 C   0  0  0  0  0  0  0  0  0  0  0  0
    5.9953    5.7205   -7.2875 C   0  0  0  0  0  0  0  0  0  0  0  0
    7.2821    4.5804   -3.9489 C   0  0  0  0  0  0  0  0  0  0  0  0
    8.3853    5.8358   -4.3650 S   0  0  0  0  0  0  0  0  0  0  0  0
    4.8458    1.8101   -4.2130 C   0  0  0  0  0  0  0  0  0  0  0  0
    4.7130    1.0116   -5.3308 C   0  0  0  0  0  0  0  0  0  0  0  0
    5.7136    0.7970   -6.3785 C   0  0  0  0  0  0  0  0  0  0  0  0
    5.3543    0.8664   -7.7197 C   0  0  0  0  0  0  0  0  0  0  0  0
    6.2785    0.5396   -8.6930 C   0  0  0  0  0  0  0  0  0  0  0  0
    7.5457    0.1133   -8.3379 C   0  0  0  0  0  0  0  0  0  0  0  0
    7.9175    0.0322   -7.0026 C   0  0  0  0  0  0  0  0  0  0  0  0
    9.2638   -0.5068   -6.6157 C   0  0  0  0  0  0  0  0  0  0  0  0
    9.2054   -2.0296   -6.4768 C   0  0  0  0  0  0  0  0  0  0  0  0
    6.9966    0.3905   -6.0307 C   0  0  0  0  0  0  0  0  0  0  0  0
    3.5098    0.2757   -5.2904 C   0  0  0  0  0  0  0  0  0  0  0  0
    2.8026   -0.8817   -6.3918 S   0  0  0  0  0  0  0  0  0  0  0  0
    1.4926   -1.1002   -5.2795 C   0  0  0  0  0  0  0  0  0  0  0  0
    0.3309   -1.8773   -5.1374 C   0  0  0  0  0  0  0  0  0  0  0  0
   -0.1931   -2.9100   -5.9440 C   0  0  0  0  0  0  0  0  0  0  0  0
   -1.3315   -3.6454   -5.4740 C   0  0  0  0  0  0  0  0  0  0  0  0
   -1.6794   -4.6217   -6.2981 N   0  0  0  0  0  0  0  0  0  0  0  0
   -0.6667   -4.6095   -7.5622 S   0  0  0  0  0  0  0  0  0  0  0  0
    0.2580   -3.3618   -7.1038 N   0  0  0  0  0  0  0  0  0  0  0  0
   -1.9520   -3.2470   -4.2708 C   0  0  0  0  0  0  0  0  0  0  0  0
   -3.1022   -3.7289   -3.6239 C   0  0  0  0  0  0  0  0  0  0  0  0
   -4.2491   -5.0195   -3.7642 S   0  0  0  0  0  0  0  0  0  0  0  0
   -5.0206   -4.4574   -2.3020 C   0  0  0  0  0  0  0  0  0  0  0  0
   -6.0571   -4.9953   -1.5116 C   0  0  0  0  0  0  0  0  0  0  0  0
   -6.8073   -6.1933   -1.8973 C   0  0  0  0  0  0  0  0  0  0  0  0
   -8.1907   -6.1472   -2.0307 C   0  0  0  0  0  0  0  0  0  0  0  0
   -8.8789   -7.2711   -2.4456 C   0  0  0  0  0  0  0  0  0  0  0  0
   -8.1967   -8.4401   -2.7319 C   0  0  0  0  0  0  0  0  0  0  0  0
   -6.8138   -8.4999   -2.6138 C   0  0  0  0  0  0  0  0  0  0  0  0
   -6.0563   -9.7398   -2.9924 C   0  0  0  0  0  0  0  0  0  0  0  0
   -5.5737   -9.6382   -4.4408 C   0  0  0  0  0  0  0  0  0  0  0  0
   -6.1293   -7.3677   -2.1993 C   0  0  0  0  0  0  0  0  0  0  0  0
   -6.2146   -4.2839   -0.3413 C   0  0  0  0  0  0  0  0  0  0  0  0
   -5.1922   -2.8482   -0.2926 S   0  0  0  0  0  0  0  0  0  0  0  0
   -4.4275   -3.3162   -1.7670 C   0  0  0  0  0  0  0  0  0  0  0  0
   -3.3230   -2.9021   -2.5217 C   0  0  0  0  0  0  0  0  0  0  0  0
   -2.3476   -1.9469   -2.4452 N   0  0  0  0  0  0  0  0  0  0  0  0
   -1.4756   -2.1450   -3.5051 C   0  0  0  0  0  0  0  0  0  0  0  0
   -0.2604   -1.5199   -3.8929 C   0  0  0  0  0  0  0  0  0  0  0  0
    0.5417   -0.5613   -3.2917 N   0  0  0  0  0  0  0  0  0  0  0  0
    1.5992   -0.3198   -4.1275 C   0  0  0  0  0  0  0  0  0  0  0  0
    2.7537    0.4726   -4.1342 C   0  0  0  0  0  0  0  0  0  0  0  0
    3.5089    1.6145   -3.0807 S   0  0  0  0  0  0  0  0  0  0  0  0
    0.6385   -0.1704   -1.9035 C   0  0  0  0  0  0  0  0  0  0  0  0
    0.8849   -1.3785   -1.0031 C   0  0  0  0  0  0  0  0  0  0  0  0
   -2.5510   -0.7946   -1.5976 C   0  0  0  0  0  0  0  0  0  0  0  0
   -2.8094    0.4669   -2.4180 C   0  0  0  0  0  0  0  0  0  0  0  0
   -6.8882   -4.6687    0.8619 C   0  0  0  0  0  0  0  0  0  0  0  0
   -6.3162   -4.6838    2.1286 C   0  0  0  0  0  0  0  0  0  0  0  0
   -5.0010   -4.3757    2.4389 N   0  0  0  0  0  0  0  0  0  0  0  0
   -4.7569   -3.7821    3.6922 C   0  0  0  0  0  0  0  0  0  0  0  0
   -5.5703   -2.7450    4.1394 C   0  0  0  0  0  0  0  0  0  0  0  0
   -5.3797   -2.2081    5.3964 C   0  0  0  0  0  0  0  0  0  0  0  0
   -4.3747   -2.6804    6.2305 C   0  0  0  0  0  0  0  0  0  0  0  0
   -4.2183   -2.1387    7.6172 C   0  0  0  0  0  0  0  0  0  0  0  0
   -3.5463   -3.6925    5.7616 C   0  0  0  0  0  0  0  0  0  0  0  0
   -3.7304   -4.2431    4.5094 C   0  0  0  0  0  0  0  0  0  0  0  0
   -3.9341   -4.7113    1.6022 C   0  0  0  0  0  0  0  0  0  0  0  0
   -2.8101   -3.8867    1.5489 C   0  0  0  0  0  0  0  0  0  0  0  0
   -1.7885   -4.1548    0.6612 C   0  0  0  0  0  0  0  0  0  0  0  0
   -1.8496   -5.2436   -0.1994 C   0  0  0  0  0  0  0  0  0  0  0  0
   -0.7748   -5.4988   -1.2113 C   0  0  0  0  0  0  0  0  0  0  0  0
   -2.9508   -6.0867   -0.1082 C   0  0  0  0  0  0  0  0  0  0  0  0
   -3.9778   -5.8366    0.7797 C   0  0  0  0  0  0  0  0  0  0  0  0
   -7.2435   -5.1210    3.1051 C   0  0  0  0  0  0  0  0  0  0  0  0
   -7.1691   -5.2665    4.8227 S   0  0  0  0  0  0  0  0  0  0  0  0
   -8.8193   -5.8927    4.8469 C   0  0  0  0  0  0  0  0  0  0  0  0
   -9.4092   -5.8894    3.5552 C   0  0  0  0  0  0  0  0  0  0  0  0
  -10.7078   -6.2235    3.2756 N   0  0  0  0  0  0  0  0  0  0  0  0
  -11.7602   -5.9122    4.1584 C   0  0  0  0  0  0  0  0  0  0  0  0
  -11.7491   -4.7185    4.8759 C   0  0  0  0  0  0  0  0  0  0  0  0
  -12.7686   -4.4353    5.7625 C   0  0  0  0  0  0  0  0  0  0  0  0
  -13.8288   -5.3160    5.9423 C   0  0  0  0  0  0  0  0  0  0  0  0
  -14.9230   -5.0275    6.9232 C   0  0  0  0  0  0  0  0  0  0  0  0
  -13.8494   -6.4864    5.1924 C   0  0  0  0  0  0  0  0  0  0  0  0
  -12.8301   -6.7904    4.3127 C   0  0  0  0  0  0  0  0  0  0  0  0
  -11.0157   -6.8365    2.0472 C   0  0  0  0  0  0  0  0  0  0  0  0
  -10.1920   -7.8330    1.5317 C   0  0  0  0  0  0  0  0  0  0  0  0
  -10.5247   -8.4663    0.3503 C   0  0  0  0  0  0  0  0  0  0  0  0
  -11.6841   -8.1341   -0.3382 C   0  0  0  0  0  0  0  0  0  0  0  0
  -12.0867   -8.8640   -1.5829 C   0  0  0  0  0  0  0  0  0  0  0  0
  -12.4905   -7.1230    0.1741 C   0  0  0  0  0  0  0  0  0  0  0  0
  -12.1643   -6.4757    1.3476 C   0  0  0  0  0  0  0  0  0  0  0  0
   -8.4839   -5.4684    2.5857 C   0  0  0  0  0  0  0  0  0  0  0  0
   -8.5415   -5.2637    0.8641 S   0  0  0  0  0  0  0  0  0  0  0  0
   -9.4347   -6.4375    5.9709 C   0  0  0  0  0  0  0  0  0  0  0  0
   -9.0301   -6.4630    7.2883 C   0  0  0  0  0  0  0  0  0  0  0  0
   -7.8772   -5.7604    7.8593 C   0  0  0  0  0  0  0  0  0  0  0  0
   -7.0112   -5.1347    7.2702 O   0  0  0  0  0  0  0  0  0  0  0  0
   -7.9783   -5.9365    9.3191 C   0  0  0  0  0  0  0  0  0  0  0  0
   -7.1495   -5.4649   10.3168 C   0  0  0  0  0  0  0  0  0  0  0  0
   -7.4597   -5.7740   11.6327 C   0  0  0  0  0  0  0  0  0  0  0  0
   -8.5766   -6.5414   11.9496 C   0  0  0  0  0  0  0  0  0  0  0  0
   -8.8810   -6.8881   13.3730 C   0  0  0  0  0  0  0  0  0  0  0  0
   -9.4081   -7.0153   10.9337 C   0  0  0  0  0  0  0  0  0  0  0  0
   -9.1113   -6.7127    9.6177 C   0  0  0  0  0  0  0  0  0  0  0  0
   -9.7702   -7.0783    8.3624 C   0  0  0  0  0  0  0  0  0  0  0  0
  -10.8749   -7.8897    8.2573 C   0  0  0  0  0  0  0  0  0  0  0  0
  -11.4297   -8.3679    7.0556 C   0  0  0  0  0  0  0  0  0  0  0  0
  -11.9278   -8.8335    6.1293 N   0  0  0  0  0  0  0  0  0  0  0  0
  -11.5981   -8.3876    9.3584 C   0  0  0  0  0  0  0  0  0  0  0  0
  -12.2466   -8.8095   10.2082 N   0  0  0  0  0  0  0  0  0  0  0  0
   10.0933    7.6415   -3.1430 H   0  0  0  0  0  0  0  0  0  0  0  0
    6.5097    9.6552    1.5496 H   0  0  0  0  0  0  0  0  0  0  0  0
   11.3332   11.1196    1.0630 H   0  0  0  0  0  0  0  0  0  0  0  0
   10.0555   12.1858    4.0665 H   0  0  0  0  0  0  0  0  0  0  0  0
   10.1450   14.2484    2.3836 H   0  0  0  0  0  0  0  0  0  0  0  0
    9.2954   15.1130    4.7148 H   0  0  0  0  0  0  0  0  0  0  0  0
    6.7614   14.3679    5.0000 H   0  0  0  0  0  0  0  0  0  0  0  0
    6.0504   13.0458    2.8433 H   0  0  0  0  0  0  0  0  0  0  0  0
    8.0612   13.1791    1.0670 H   0  0  0  0  0  0  0  0  0  0  0  0
    7.6540   14.7992    1.6779 H   0  0  0  0  0  0  0  0  0  0  0  0
    7.5722   11.4553    4.3457 H   0  0  0  0  0  0  0  0  0  0  0  0
    7.9780    3.6157    1.5178 H   0  0  0  0  0  0  0  0  0  0  0  0
    6.0584    2.6279    2.6948 H   0  0  0  0  0  0  0  0  0  0  0  0
    2.6090    3.8049    2.3987 H   0  0  0  0  0  0  0  0  0  0  0  0
    3.6966    2.6899    3.2410 H   0  0  0  0  0  0  0  0  0  0  0  0
    3.0363    2.2631    1.6622 H   0  0  0  0  0  0  0  0  0  0  0  0
    3.3940    4.9781    0.3327 H   0  0  0  0  0  0  0  0  0  0  0  0
    5.3215    5.9915   -0.8260 H   0  0  0  0  0  0  0  0  0  0  0  0
    7.7453    6.6497    1.8597 H   0  0  0  0  0  0  0  0  0  0  0  0
    9.6435    7.5178    3.1512 H   0  0  0  0  0  0  0  0  0  0  0  0
   12.7720    8.1644    1.9606 H   0  0  0  0  0  0  0  0  0  0  0  0
   13.0415    6.6024    2.7203 H   0  0  0  0  0  0  0  0  0  0  0  0
   11.9768    7.7885    3.4914 H   0  0  0  0  0  0  0  0  0  0  0  0
   12.3408    5.9341    0.2494 H   0  0  0  0  0  0  0  0  0  0  0  0
   10.4548    5.0772   -1.0488 H   0  0  0  0  0  0  0  0  0  0  0  0
    6.7928    3.6643   -8.7377 H   0  0  0  0  0  0  0  0  0  0  0  0
    8.8165    3.1412  -10.0030 H   0  0  0  0  0  0  0  0  0  0  0  0
   11.0319    1.8402   -9.9323 H   0  0  0  0  0  0  0  0  0  0  0  0
   11.7170    3.3795   -9.4233 H   0  0  0  0  0  0  0  0  0  0  0  0
   11.9967    1.9356   -8.4505 H   0  0  0  0  0  0  0  0  0  0  0  0
   10.9138    2.4192   -6.3642 H   0  0  0  0  0  0  0  0  0  0  0  0
    8.8990    2.9078   -5.0943 H   0  0  0  0  0  0  0  0  0  0  0  0
    3.8846    3.4247   -5.9958 H   0  0  0  0  0  0  0  0  0  0  0  0
    2.2416    5.0169   -6.8709 H   0  0  0  0  0  0  0  0  0  0  0  0
    1.6941    7.0801   -7.9120 H   0  0  0  0  0  0  0  0  0  0  0  0
    2.9182    8.3554   -7.8415 H   0  0  0  0  0  0  0  0  0  0  0  0
    2.7619    7.3679   -9.2893 H   0  0  0  0  0  0  0  0  0  0  0  0
    5.4024    7.5122   -8.2747 H   0  0  0  0  0  0  0  0  0  0  0  0
    7.0517    5.9244   -7.3855 H   0  0  0  0  0  0  0  0  0  0  0  0
    4.3597    1.1856   -7.9932 H   0  0  0  0  0  0  0  0  0  0  0  0
    6.0037    0.6036   -9.7354 H   0  0  0  0  0  0  0  0  0  0  0  0
    8.2562   -0.1603   -9.1041 H   0  0  0  0  0  0  0  0  0  0  0  0
    9.9982   -0.2401   -7.3771 H   0  0  0  0  0  0  0  0  0  0  0  0
    9.5795   -0.0692   -5.6674 H   0  0  0  0  0  0  0  0  0  0  0  0
    8.4864   -2.3127   -5.7112 H   0  0  0  0  0  0  0  0  0  0  0  0
   10.1805   -2.4250   -6.2015 H   0  0  0  0  0  0  0  0  0  0  0  0
    8.8986   -2.4836   -7.4163 H   0  0  0  0  0  0  0  0  0  0  0  0
    7.2651    0.3262   -4.9852 H   0  0  0  0  0  0  0  0  0  0  0  0
   -8.7188   -5.2253   -1.8385 H   0  0  0  0  0  0  0  0  0  0  0  0
   -9.9512   -7.2270   -2.5525 H   0  0  0  0  0  0  0  0  0  0  0  0
   -8.7392   -9.3148   -3.0625 H   0  0  0  0  0  0  0  0  0  0  0  0
   -6.6968  -10.6173   -2.8842 H   0  0  0  0  0  0  0  0  0  0  0  0
   -5.1936   -9.8630   -2.3342 H   0  0  0  0  0  0  0  0  0  0  0  0
   -6.4216   -9.5386   -5.1148 H   0  0  0  0  0  0  0  0  0  0  0  0
   -4.9349   -8.7669   -4.5665 H   0  0  0  0  0  0  0  0  0  0  0  0
   -5.0114  -10.5267   -4.7184 H   0  0  0  0  0  0  0  0  0  0  0  0
   -5.0537   -7.3961   -2.1047 H   0  0  0  0  0  0  0  0  0  0  0  0
   -0.2468    0.3864   -1.5960 H   0  0  0  0  0  0  0  0  0  0  0  0
    1.4882    0.5135   -1.8322 H   0  0  0  0  0  0  0  0  0  0  0  0
    1.8327   -1.8456   -1.2614 H   0  0  0  0  0  0  0  0  0  0  0  0
    0.9242   -1.0670    0.0377 H   0  0  0  0  0  0  0  0  0  0  0  0
    0.0975   -2.1189   -1.1238 H   0  0  0  0  0  0  0  0  0  0  0  0
   -1.7129   -0.6655   -0.9121 H   0  0  0  0  0  0  0  0  0  0  0  0
   -3.4297   -1.0144   -0.9861 H   0  0  0  0  0  0  0  0  0  0  0  0
   -2.9448    1.3188   -1.7569 H   0  0  0  0  0  0  0  0  0  0  0  0
   -1.9839    0.6728   -3.0954 H   0  0  0  0  0  0  0  0  0  0  0  0
   -3.7115    0.3432   -3.0126 H   0  0  0  0  0  0  0  0  0  0  0  0
   -6.3565   -2.3728    3.4980 H   0  0  0  0  0  0  0  0  0  0  0  0
   -6.0272   -1.4138    5.7386 H   0  0  0  0  0  0  0  0  0  0  0  0
   -3.2007   -2.2692    7.9779 H   0  0  0  0  0  0  0  0  0  0  0  0
   -4.4775   -1.0828    7.6566 H   0  0  0  0  0  0  0  0  0  0  0  0
   -4.8899   -2.6755    8.2875 H   0  0  0  0  0  0  0  0  0  0  0  0
   -2.7567   -4.0710    6.3945 H   0  0  0  0  0  0  0  0  0  0  0  0
   -3.0934   -5.0439    4.1630 H   0  0  0  0  0  0  0  0  0  0  0  0
   -2.7603   -3.0204    2.1917 H   0  0  0  0  0  0  0  0  0  0  0  0
   -0.9315   -3.4968    0.6305 H   0  0  0  0  0  0  0  0  0  0  0  0
   -0.5464   -6.5609   -1.2726 H   0  0  0  0  0  0  0  0  0  0  0  0
    0.1350   -4.9582   -0.9603 H   0  0  0  0  0  0  0  0  0  0  0  0
   -1.1037   -5.1734   -2.1996 H   0  0  0  0  0  0  0  0  0  0  0  0
   -3.0024   -6.9571   -0.7463 H   0  0  0  0  0  0  0  0  0  0  0  0
   -4.8213   -6.5092    0.8355 H   0  0  0  0  0  0  0  0  0  0  0  0
  -10.9338   -4.0222    4.7441 H   0  0  0  0  0  0  0  0  0  0  0  0
  -12.7411   -3.5101    6.3200 H   0  0  0  0  0  0  0  0  0  0  0  0
  -15.8967   -5.0917    6.4402 H   0  0  0  0  0  0  0  0  0  0  0  0
  -14.9049   -5.7604    7.7297 H   0  0  0  0  0  0  0  0  0  0  0  0
  -14.8103   -4.0361    7.3547 H   0  0  0  0  0  0  0  0  0  0  0  0
  -14.6651   -7.1827    5.3152 H   0  0  0  0  0  0  0  0  0  0  0  0
  -12.8482   -7.7149    3.7579 H   0  0  0  0  0  0  0  0  0  0  0  0
   -9.3026   -8.1235    2.0713 H   0  0  0  0  0  0  0  0  0  0  0  0
   -9.8773   -9.2411   -0.0331 H   0  0  0  0  0  0  0  0  0  0  0  0
  -11.2567   -9.4399   -1.9831 H   0  0  0  0  0  0  0  0  0  0  0  0
  -12.4397   -8.1701   -2.3439 H   0  0  0  0  0  0  0  0  0  0  0  0
  -12.9030   -9.5519   -1.3605 H   0  0  0  0  0  0  0  0  0  0  0  0
  -13.3893   -6.8405   -0.3548 H   0  0  0  0  0  0  0  0  0  0  0  0
  -12.7994   -5.6921    1.7334 H   0  0  0  0  0  0  0  0  0  0  0  0
  -10.3852   -6.9130    5.7659 H   0  0  0  0  0  0  0  0  0  0  0  0
   -6.2818   -4.8735   10.0670 H   0  0  0  0  0  0  0  0  0  0  0  0
   -6.8241   -5.4156   12.4294 H   0  0  0  0  0  0  0  0  0  0  0  0
   -9.9543   -6.9575   13.5329 H   0  0  0  0  0  0  0  0  0  0  0  0
   -8.4449   -7.8577   13.6159 H   0  0  0  0  0  0  0  0  0  0  0  0
   -8.4642   -6.1503   14.0541 H   0  0  0  0  0  0  0  0  0  0  0  0
  -10.2695   -7.6095   11.1933 H   0  0  0  0  0  0  0  0  0  0  0  0
  1  2  2  0  0  0  0
  2  3  1  0  0  0  0
  3  4  2  0  0  0  0
  3  5  1  0  0  0  0
  5  6  2  0  0  0  0
  6  7  1  0  0  0  0
  7  8  2  0  0  0  0
  8  9  1  0  0  0  0
  9 10  2  0  0  0  0
 10 11  1  0  0  0  0
 11 12  2  0  0  0  0
 12 13  1  0  0  0  0
 13 14  3  0  0  0  0
 12 15  1  0  0  0  0
 15 16  3  0  0  0  0
  8 17  1  0  0  0  0
 17 18  1  0  0  0  0
 18 19  1  0  0  0  0
 19 20  2  0  0  0  0
 20 21  1  0  0  0  0
 21 22  1  0  0  0  0
 21 23  1  0  0  0  0
  1 24  1  0  0  0  0
 24 25  2  0  0  0  0
 25 26  1  0  0  0  0
 26 27  1  0  0  0  0
 27 28  2  0  0  0  0
 28 29  1  0  0  0  0
 29 30  2  0  0  0  0
 30 31  1  0  0  0  0
 30 32  1  0  0  0  0
 32 33  2  0  0  0  0
 26 34  1  0  0  0  0
 34 35  2  0  0  0  0
 35 36  1  0  0  0  0
 36 37  2  0  0  0  0
 37 38  1  0  0  0  0
 37 39  1  0  0  0  0
 39 40  2  0  0  0  0
 25 41  1  0  0  0  0
 41 42  1  0  0  0  0
 42 43  1  0  0  0  0
 43 44  2  0  0  0  0
 44 45  1  0  0  0  0
 45 46  1  0  0  0  0
 46 47  2  0  0  0  0
 47 48  1  0  0  0  0
 48 49  2  0  0  0  0
 49 50  1  0  0  0  0
 49 51  1  0  0  0  0
 51 52  2  0  0  0  0
 45 53  1  0  0  0  0
 53 54  2  0  0  0  0
 54 55  1  0  0  0  0
 55 56  2  0  0  0  0
 56 57  1  0  0  0  0
 56 58  1  0  0  0  0
 58 59  2  0  0  0  0
 44 60  1  0  0  0  0
 60 61  1  0  0  0  0
 43 62  1  0  0  0  0
 62 63  2  0  0  0  0
 63 64  1  0  0  0  0
 64 65  2  0  0  0  0
 65 66  1  0  0  0  0
 66 67  2  0  0  0  0
 67 68  1  0  0  0  0
 68 69  1  0  0  0  0
 69 70  1  0  0  0  0
 68 71  2  0  0  0  0
 63 72  1  0  0  0  0
 72 73  1  0  0  0  0
 73 74  1  0  0  0  0
 74 75  1  0  0  0  0
 75 76  1  0  0  0  0
 76 77  1  0  0  0  0
 77 78  2  0  0  0  0
 78 79  1  0  0  0  0
 79 80  1  0  0  0  0
 77 81  1  0  0  0  0
 81 82  1  0  0  0  0
 82 83  1  0  0  0  0
 83 84  1  0  0  0  0
 84 85  1  0  0  0  0
 85 86  1  0  0  0  0
 86 87  2  0  0  0  0
 87 88  1  0  0  0  0
 88 89  2  0  0  0  0
 89 90  1  0  0  0  0
 90 91  1  0  0  0  0
 91 92  1  0  0  0  0
 90 93  2  0  0  0  0
 85 94  2  0  0  0  0
 94 95  1  0  0  0  0
 95 96  1  0  0  0  0
 96 97  1  0  0  0  0
 97 98  1  0  0  0  0
 98 99  1  0  0  0  0
 99100  1  0  0  0  0
100101  1  0  0  0  0
101102  1  0  0  0  0
102103  1  0  0  0  0
103104  1  0  0  0  0
101105  1  0  0  0  0
105106  1  0  0  0  0
 98107  1  0  0  0  0
107108  1  0  0  0  0
 94109  1  0  0  0  0
109110  2  0  0  0  0
110111  1  0  0  0  0
111112  1  0  0  0  0
112113  2  0  0  0  0
113114  1  0  0  0  0
114115  2  0  0  0  0
115116  1  0  0  0  0
115117  1  0  0  0  0
117118  2  0  0  0  0
111119  1  0  0  0  0
119120  2  0  0  0  0
120121  1  0  0  0  0
121122  2  0  0  0  0
122123  1  0  0  0  0
122124  1  0  0  0  0
124125  2  0  0  0  0
110126  1  0  0  0  0
126127  1  0  0  0  0
127128  1  0  0  0  0
128129  2  0  0  0  0
129130  1  0  0  0  0
130131  1  0  0  0  0
131132  2  0  0  0  0
132133  1  0  0  0  0
133134  2  0  0  0  0
134135  1  0  0  0  0
134136  1  0  0  0  0
136137  2  0  0  0  0
130138  1  0  0  0  0
138139  2  0  0  0  0
139140  1  0  0  0  0
140141  2  0  0  0  0
141142  1  0  0  0  0
141143  1  0  0  0  0
143144  2  0  0  0  0
129145  1  0  0  0  0
145146  1  0  0  0  0
128147  1  0  0  0  0
147148  2  0  0  0  0
148149  1  0  0  0  0
149150  2  0  0  0  0
149151  1  0  0  0  0
151152  2  0  0  0  0
152153  1  0  0  0  0
153154  2  0  0  0  0
154155  1  0  0  0  0
154156  1  0  0  0  0
156157  2  0  0  0  0
157158  1  0  0  0  0
158159  2  0  0  0  0
159160  1  0  0  0  0
160161  3  0  0  0  0
159162  1  0  0  0  0
162163  3  0  0  0  0
 11  2  1  0  0  0  0
 23 17  1  0  0  0  0
 61 24  1  0  0  0  0
104 62  1  0  0  0  0
146109  1  0  0  0  0
158148  1  0  0  0  0
 10  5  1  0  0  0  0
 22 18  1  0  0  0  0
 33 27  1  0  0  0  0
 40 34  1  0  0  0  0
 60 41  2  0  0  0  0
 71 64  1  0  0  0  0
103 72  2  0  0  0  0
118112  1  0  0  0  0
125119  1  0  0  0  0
145126  2  0  0  0  0
157151  1  0  0  0  0
 23  7  1  0  0  0  0
 52 46  1  0  0  0  0
 59 53  1  0  0  0  0
102 74  2  0  0  0  0
137131  1  0  0  0  0
144138  1  0  0  0  0
100 75  2  0  0  0  0
 80 76  2  0  0  0  0
 99 81  2  0  0  0  0
 97 82  2  0  0  0  0
 96 84  2  0  0  0  0
 93 86  1  0  0  0  0
  1164  1  0  0  0  0
  6165  1  0  0  0  0
  9166  1  0  0  0  0
 17167  1  0  0  0  0
 18168  1  0  0  0  0
 19169  1  0  0  0  0
 20170  1  0  0  0  0
 21171  1  0  0  0  0
 22172  1  0  0  0  0
 22173  1  0  0  0  0
 23174  1  0  0  0  0
 28175  1  0  0  0  0
 29176  1  0  0  0  0
 31177  1  0  0  0  0
 31178  1  0  0  0  0
 31179  1  0  0  0  0
 32180  1  0  0  0  0
 33181  1  0  0  0  0
 35182  1  0  0  0  0
 36183  1  0  0  0  0
 38184  1  0  0  0  0
 38185  1  0  0  0  0
 38186  1  0  0  0  0
 39187  1  0  0  0  0
 40188  1  0  0  0  0
 47189  1  0  0  0  0
 48190  1  0  0  0  0
 50191  1  0  0  0  0
 50192  1  0  0  0  0
 50193  1  0  0  0  0
 51194  1  0  0  0  0
 52195  1  0  0  0  0
 54196  1  0  0  0  0
 55197  1  0  0  0  0
 57198  1  0  0  0  0
 57199  1  0  0  0  0
 57200  1  0  0  0  0
 58201  1  0  0  0  0
 59202  1  0  0  0  0
 65203  1  0  0  0  0
 66204  1  0  0  0  0
 67205  1  0  0  0  0
 69206  1  0  0  0  0
 69207  1  0  0  0  0
 70208  1  0  0  0  0
 70209  1  0  0  0  0
 70210  1  0  0  0  0
 71211  1  0  0  0  0
 87212  1  0  0  0  0
 88213  1  0  0  0  0
 89214  1  0  0  0  0
 91215  1  0  0  0  0
 91216  1  0  0  0  0
 92217  1  0  0  0  0
 92218  1  0  0  0  0
 92219  1  0  0  0  0
 93220  1  0  0  0  0
105221  1  0  0  0  0
105222  1  0  0  0  0
106223  1  0  0  0  0
106224  1  0  0  0  0
106225  1  0  0  0  0
107226  1  0  0  0  0
107227  1  0  0  0  0
108228  1  0  0  0  0
108229  1  0  0  0  0
108230  1  0  0  0  0
113231  1  0  0  0  0
114232  1  0  0  0  0
116233  1  0  0  0  0
116234  1  0  0  0  0
116235  1  0  0  0  0
117236  1  0  0  0  0
118237  1  0  0  0  0
120238  1  0  0  0  0
121239  1  0  0  0  0
123240  1  0  0  0  0
123241  1  0  0  0  0
123242  1  0  0  0  0
124243  1  0  0  0  0
125244  1  0  0  0  0
132245  1  0  0  0  0
133246  1  0  0  0  0
135247  1  0  0  0  0
135248  1  0  0  0  0
135249  1  0  0  0  0
136250  1  0  0  0  0
137251  1  0  0  0  0
139252  1  0  0  0  0
140253  1  0  0  0  0
142254  1  0  0  0  0
142255  1  0  0  0  0
142256  1  0  0  0  0
143257  1  0  0  0  0
144258  1  0  0  0  0
147259  1  0  0  0  0
152260  1  0  0  0  0
153261  1  0  0  0  0
155262  1  0  0  0  0
155263  1  0  0  0  0
155264  1  0  0  0  0
156265  1  0  0  0  0
M  END
