258

C         -1.83780        0.50730        6.01790
C         -2.76100        0.68410        7.02790
C         -4.21330        0.73750        6.87390
O         -4.86960        0.56380        5.85930
C         -4.75740        1.07470        8.20440
C         -6.09750        1.22560        8.55030
C         -6.30220        1.52820        9.87550
C         -5.25020        1.67370       10.78730
C         -3.92280        1.53020       10.45730
C         -3.69270        1.21930        9.11450
C         -2.43760        0.96430        8.40360
C         -1.18800        0.97650        8.97940
C         -0.92840        1.33670       10.31540
N         -0.63610        1.63700       11.38580
C          0.01350        0.60830        8.34510
N          1.03690        0.29100        7.92680
C         -6.18130        1.96010       11.94000
C         -6.42520        0.80330       12.93190
C         -7.70220        1.19550       13.63910
C         -8.70020        1.05780       12.77550
C         -8.11420        0.56980       11.47030
C         -6.96370       -0.29330       12.00390
C         -7.35570        1.79730       10.92260
C         -2.01730        0.20800        4.67280
C         -0.94080        0.10820        3.74690
N          0.30030        0.63660        3.93110
C          0.54760        1.74570        4.77390
C         -0.34410        2.81180        4.84910
C         -0.08550        3.86580        5.70280
C          1.06720        3.89630        6.47970
C          1.33080        5.01240        7.43990
C          1.97720        2.85300        6.35130
C          1.72680        1.78580        5.51210
C          1.37650        0.25380        3.09740
C          1.76330       -1.07560        2.98540
C          2.83560       -1.41420        2.17900
C          3.53580       -0.44640        1.47270
C          4.69560       -0.80000        0.59280
C          3.13990        0.88160        1.59470
C          2.07830        1.23330        2.39960
C         -1.36720       -0.53460        2.56910
S         -0.56730       -1.10860        1.14320
C         -2.10970       -1.59800        0.45740
C         -3.17620       -1.33880        1.29370
N         -4.50090       -1.60360        1.00400
C         -4.85940       -2.61590        0.10990
C         -5.89800       -2.42120       -0.79760
C         -6.22460       -3.40900       -1.70610
C         -5.53170       -4.61310       -1.74140
C         -5.85360       -5.66420       -2.76030
C         -4.51560       -4.81150       -0.81390
C         -4.18580       -3.83630        0.10510
C         -5.48590       -0.74220        1.51890
C         -6.67700       -1.26170        2.01490
C         -7.62740       -0.41820        2.55430
C         -7.41730        0.95370        2.61620
C         -8.42450        1.86210        3.25130
C         -6.23400        1.46540        2.09860
C         -5.27800        0.63400        1.55110
C         -2.73710       -0.76470        2.51530
S         -3.56000       -0.26540        3.94870
C         -2.10060       -2.13890       -0.87510
C         -2.61360       -1.52160       -2.00550
O         -3.32050       -0.37980       -1.82390
C         -4.27070        0.00430       -2.80440
C         -4.98840        1.23600       -2.27760
C         -2.19740       -2.17440       -3.18690
C         -2.07420       -1.82610       -4.66030
C         -1.53120       -0.41150       -4.80400
C         -2.15450        0.59230       -5.53070
C         -1.57190        1.84460       -5.63780
C         -0.36010        2.12880       -5.02500
C          0.25700        3.49360       -5.11690
C         -0.35850        4.42860       -4.07410
C          0.25270        1.12730       -4.28160
C         -0.32380       -0.12150       -4.17310
C         -3.31440       -2.14670       -5.46670
C         -4.43010       -2.71820       -4.86950
C         -5.54690       -3.03640       -5.62020
C         -5.57920       -2.80580       -6.98790
C         -6.77900       -3.19060       -7.80470
C         -6.67090       -4.64750       -8.25910
C         -4.44970       -2.26520       -7.58870
C         -3.33180       -1.94480       -6.84270
C         -0.97080       -2.79730       -5.08760
C         -0.72380       -3.74400       -4.07320
C         -1.44810       -3.30540       -2.91980
S         -1.17220       -3.56750       -1.24820
C          0.31460       -4.66860       -4.16040
C          1.22920       -4.47470       -5.16670
C          2.64600       -5.04530       -5.23870
C          2.55520       -6.35260       -5.99570
C          2.00120       -7.47140       -5.38350
C          1.88170       -8.66270       -6.07190
C          2.29960       -8.77070       -7.39260
C          2.12980      -10.05670       -8.14890
C          0.74200      -10.11910       -8.79010
C          2.82290       -7.64410       -8.01040
C          2.94530       -6.44900       -7.32410
C          3.27370       -5.13940       -3.86220
C          4.02920       -6.22250       -3.44360
C          4.59210       -6.23720       -2.17860
C          4.42580       -5.17130       -1.30780
C          4.97960       -5.20720        0.08780
C          3.88150       -5.57370        1.08830
C          3.69070       -4.07440       -1.74160
C          3.12930       -4.05610       -3.00070
C          3.33010       -3.93030       -5.99960
C          4.60100       -3.33710       -5.89060
O          5.65660       -3.89440       -5.22600
C          6.65080       -4.51660       -6.03270
C          6.35110       -5.98550       -6.30290
C          4.59540       -2.00710       -6.31940
S          3.05450       -1.58720       -7.05230
C          2.38340       -3.09230       -6.55890
C          1.06750       -3.42210       -6.09650
C         -0.08640       -2.64160       -6.12990
C          5.38460       -0.96940       -5.69210
C          4.69220        0.17520       -5.24580
C          5.21940        0.91250       -4.21920
C          4.55020        1.96770       -3.41550
O          3.48670        2.49980       -3.63120
C          5.45270        2.16090       -2.25090
C          6.59950        1.35140       -2.40680
C          6.46230        0.58680       -3.63570
C          7.22880       -0.41530       -4.20320
C          6.68670       -1.18300       -5.22450
C          7.53870        1.29290       -1.39060
C          7.29990        2.00100       -0.22500
C          6.16700        2.80990       -0.06520
C          5.23290        2.89480       -1.11160
C          5.92310        3.44260        1.20800
C          5.34390        4.65020        1.41590
C          5.21800        5.73030        0.39530
O          5.38530        5.65220       -0.80070
C          4.94400        6.95980        1.16260
C          4.81780        8.24730        0.64320
C          4.57710        9.21180        1.59110
C          4.47150        8.92070        2.95890
C          4.58890        7.65690        3.48460
C          4.83500        6.65780        2.53580
C          5.01000        5.22220        2.71120
C          4.80450        4.51200        3.86460
C          4.84180        3.10330        3.95020
N          4.83130        1.96270        4.08040
C          4.51250        5.09780        5.11200
N          4.31020        5.53040        6.15630
C          4.24160       10.36450        3.32970
C          5.44470       11.12190        3.93070
C          5.08540       12.57820        3.74290
C          5.18150       12.85390        2.44850
C          5.60770       11.58870        1.73960
C          6.49590       10.96530        2.82410
C          4.35560       10.68830        1.80540
H         -0.80120        0.60260        6.31310
H         -6.87650        1.10270        7.81400
H         -3.12580        1.64680       11.17220
H         -6.04830        2.92180       12.43230
H         -5.57390        0.55510       13.55990
H         -7.74010        1.57450       14.64370
H         -9.73800        1.29890       12.91480
H         -8.80250        0.10790       10.76730
H         -7.32140       -1.16120       12.55590
H         -6.25800       -0.61290       11.23960
H         -8.00520        2.65130       10.73760
H         -1.24390        2.80520        4.25110
H         -0.79320        4.68060        5.76380
H          1.29180        4.63890        8.46290
H          0.59540        5.80610        7.33210
H          2.32610        5.42210        7.27540
H          2.88620        2.86690        6.93280
H          2.43520        0.97640        5.43500
H          1.23410       -1.83470        3.54170
H          3.13450       -2.44980        2.10800
H          5.56310       -0.19220        0.84530
H          4.96120       -1.84840        0.69910
H          4.45280       -0.60700       -0.45290
H          3.67390        1.64570        1.04840
H          1.77930        2.26740        2.49270
H         -6.44280       -1.48860       -0.78970
H         -7.02920       -3.23460       -2.40720
H         -5.70750       -6.65980       -2.34670
H         -6.88240       -5.57320       -3.10150
H         -5.19710       -5.56090       -3.62600
H         -3.97450       -5.74680       -0.80940
H         -3.40580       -4.01730        0.82970
H         -6.84490       -2.32840        1.98320
H         -8.54290       -0.83580        2.94830
H         -8.50190        2.80030        2.70510
H         -8.11410        2.09230        4.27080
H         -9.40490        1.39340        3.29110
H         -6.05820        2.53130        2.12590
H         -4.36480        1.04260        1.14310
H         -3.77070        0.23310       -3.75070
H         -4.98400       -0.81320       -2.96830
H         -4.27350        2.03900       -2.11970
H         -5.47280        1.01250       -1.33010
H         -5.73650        1.55950       -2.99580
H         -3.09800        0.40610       -6.02460
H         -2.07090        2.60990       -6.21600
H          0.09500        3.90930       -6.11420
H          1.33050        3.42020       -4.93800
H         -1.43170        4.52310       -4.22960
H          0.09140        5.41660       -4.13850
H         -0.18920        4.03530       -3.07450
H          1.19420        1.33280       -3.79330
H          0.17110       -0.88960       -3.59460
H         -4.42810       -2.92590       -3.80910
H         -6.40710       -3.47230       -5.13260
H         -7.68680       -3.06580       -7.21060
H         -6.85330       -2.54460       -8.68180
H         -5.77620       -4.78990       -8.86130
H         -7.53820       -4.92750       -8.85260
H         -6.61050       -5.30890       -7.39760
H         -4.44450       -2.09310       -8.65580
H         -2.46420       -1.53570       -7.33740
H          0.48110       -5.38080       -3.36700
H          1.66470       -7.40780       -4.35960
H          1.45670       -9.52420       -5.57640
H          2.25080      -10.90390       -7.47070
H          2.89040      -10.13180       -8.92870
H         -0.03030      -10.05680       -8.02670
H          0.60680       -9.28900       -9.48000
H          0.61640      -11.05040       -9.33740
H          3.14030       -7.69990       -9.04230
H          3.33880       -5.58080       -7.83440
H          4.17980       -7.06580       -4.10160
H          5.17210       -7.09520       -1.86750
H          5.78700       -5.93910        0.15150
H          5.38910       -4.22750        0.34560
H          3.49200       -6.56620        0.87290
H          4.27120       -5.56690        2.10390
H          3.05810       -4.86560        1.02340
H          3.55530       -3.22540       -1.08720
H          2.56770       -3.18940       -3.32070
H          7.57820       -4.43110       -5.45770
H          6.76520       -3.97070       -6.97930
H          7.15610       -6.41900       -6.89060
H          5.41660       -6.09860       -6.84590
H          6.26930       -6.52030       -5.36090
H         -0.17800       -1.83680       -6.84320
H          3.70770        0.40760       -5.62360
H          8.21460       -0.64380       -3.82680
H          7.26880       -1.99480       -5.62670
H          8.42240        0.68000       -1.48460
H          8.00890        1.93740        0.58870
H          4.32770        3.47040       -1.00600
H          6.25840        2.87970        2.07240
H          4.90350        8.42600       -0.41720
H          4.50660        7.44780        4.53800
H          3.30510       10.57980        3.84060
H          5.72250       10.81150        4.93420
H          4.75580       13.22190        4.53710
H          4.94800       13.77390        1.94540
H          6.03430       11.70380        0.74680
H          7.38760       11.55930        3.01700
H          6.78160        9.93390        2.62540
H          3.49420       11.11860        1.29810
