
  xtb     02222213583D
 energy: -401.973148784277 gnorm: 0.000316671246 xtb: 6.4.1 (unknown)
250278  0     0  0            999 V2000
   -5.1798   -0.1403   10.4494 C   0  0  0  0  0  0  0  0  0  0  0  0
   -4.4822    0.3611   11.5239 C   0  0  0  0  0  0  0  0  0  0  0  0
   -3.4155    1.3633   11.4773 C   0  0  0  0  0  0  0  0  0  0  0  0
   -3.0831    2.0609   10.5339 O   0  0  0  0  0  0  0  0  0  0  0  0
   -2.7944    1.3644   12.8150 C   0  0  0  0  0  0  0  0  0  0  0  0
   -1.7049    2.1241   13.2333 C   0  0  0  0  0  0  0  0  0  0  0  0
   -1.3377    1.9020   14.5390 C   0  0  0  0  0  0  0  0  0  0  0  0
   -2.0065    0.9930   15.3682 C   0  0  0  0  0  0  0  0  0  0  0  0
   -3.0835    0.2375   14.9672 C   0  0  0  0  0  0  0  0  0  0  0  0
   -3.4719    0.4459   13.6409 C   0  0  0  0  0  0  0  0  0  0  0  0
   -4.5605   -0.1548   12.8695 C   0  0  0  0  0  0  0  0  0  0  0  0
   -5.4914   -1.0381   13.3625 C   0  0  0  0  0  0  0  0  0  0  0  0
   -6.6308   -1.4902   12.6705 C   0  0  0  0  0  0  0  0  0  0  0  0
   -7.6061   -1.8750   12.1978 N   0  0  0  0  0  0  0  0  0  0  0  0
   -5.4579   -1.5966   14.6547 C   0  0  0  0  0  0  0  0  0  0  0  0
   -5.4834   -2.1172   15.6788 N   0  0  0  0  0  0  0  0  0  0  0  0
   -1.1094    1.2842   16.5461 C   0  0  0  0  0  0  0  0  0  0  0  0
   -1.6907    2.1940   17.6487 C   0  0  0  0  0  0  0  0  0  0  0  0
   -0.4702    2.6829   18.3948 C   0  0  0  0  0  0  0  0  0  0  0  0
    0.1654    3.5428   17.6091 C   0  0  0  0  0  0  0  0  0  0  0  0
   -0.6151    3.6497   16.3190 C   0  0  0  0  0  0  0  0  0  0  0  0
   -2.0397    3.4600   16.8555 C   0  0  0  0  0  0  0  0  0  0  0  0
   -0.3623    2.2971   15.6204 C   0  0  0  0  0  0  0  0  0  0  0  0
   -5.1214    0.1919    9.0965 C   0  0  0  0  0  0  0  0  0  0  0  0
   -5.7941   -0.5403    8.0864 C   0  0  0  0  0  0  0  0  0  0  0  0
   -6.4890   -1.7097    8.2625 N   0  0  0  0  0  0  0  0  0  0  0  0
   -6.0798   -2.7108    9.1614 C   0  0  0  0  0  0  0  0  0  0  0  0
   -7.0298   -3.4630    9.8481 C   0  0  0  0  0  0  0  0  0  0  0  0
   -6.6263   -4.4318   10.7448 C   0  0  0  0  0  0  0  0  0  0  0  0
   -5.2790   -4.6681   10.9914 C   0  0  0  0  0  0  0  0  0  0  0  0
   -4.8629   -5.6815   12.0122 C   0  0  0  0  0  0  0  0  0  0  0  0
   -4.3388   -3.9295   10.2819 C   0  0  0  0  0  0  0  0  0  0  0  0
   -4.7267   -2.9704    9.3681 C   0  0  0  0  0  0  0  0  0  0  0  0
   -7.6125   -1.9421    7.4462 C   0  0  0  0  0  0  0  0  0  0  0  0
   -8.5206   -0.9133    7.2063 C   0  0  0  0  0  0  0  0  0  0  0  0
   -9.6195   -1.1328    6.4021 C   0  0  0  0  0  0  0  0  0  0  0  0
   -9.8492   -2.3779    5.8269 C   0  0  0  0  0  0  0  0  0  0  0  0
  -11.0377   -2.5979    4.9429 C   0  0  0  0  0  0  0  0  0  0  0  0
   -8.9436   -3.4003    6.0812 C   0  0  0  0  0  0  0  0  0  0  0  0
   -7.8348   -3.1916    6.8777 C   0  0  0  0  0  0  0  0  0  0  0  0
   -5.6593    0.0908    6.8384 C   0  0  0  0  0  0  0  0  0  0  0  0
   -6.1318   -0.3283    5.2213 S   0  0  0  0  0  0  0  0  0  0  0  0
   -5.3323    1.1106    4.6075 C   0  0  0  0  0  0  0  0  0  0  0  0
   -4.6970    1.8411    5.6000 C   0  0  0  0  0  0  0  0  0  0  0  0
   -3.9328    2.9774    5.4068 N   0  0  0  0  0  0  0  0  0  0  0  0
   -3.9503    3.9696    6.4015 C   0  0  0  0  0  0  0  0  0  0  0  0
   -5.1369    4.2927    7.0518 C   0  0  0  0  0  0  0  0  0  0  0  0
   -5.1430    5.2424    8.0539 C   0  0  0  0  0  0  0  0  0  0  0  0
   -3.9775    5.8966    8.4284 C   0  0  0  0  0  0  0  0  0  0  0  0
   -3.9761    6.8995    9.5411 C   0  0  0  0  0  0  0  0  0  0  0  0
   -2.7995    5.5786    7.7620 C   0  0  0  0  0  0  0  0  0  0  0  0
   -2.7782    4.6273    6.7634 C   0  0  0  0  0  0  0  0  0  0  0  0
   -3.1268    3.1331    4.2729 C   0  0  0  0  0  0  0  0  0  0  0  0
   -2.9879    4.3863    3.6783 C   0  0  0  0  0  0  0  0  0  0  0  0
   -2.2518    4.5295    2.5212 C   0  0  0  0  0  0  0  0  0  0  0  0
   -1.6274    3.4391    1.9240 C   0  0  0  0  0  0  0  0  0  0  0  0
   -0.8584    3.6135    0.6501 C   0  0  0  0  0  0  0  0  0  0  0  0
   -1.7273    2.2044    2.5494 C   0  0  0  0  0  0  0  0  0  0  0  0
   -2.4578    2.0484    3.7126 C   0  0  0  0  0  0  0  0  0  0  0  0
   -4.9032    1.2543    6.8729 C   0  0  0  0  0  0  0  0  0  0  0  0
   -4.2869    1.6073    8.4453 S   0  0  0  0  0  0  0  0  0  0  0  0
   -5.2919    1.4117    3.2051 C   0  0  0  0  0  0  0  0  0  0  0  0
   -5.5523    2.6328    2.6167 C   0  0  0  0  0  0  0  0  0  0  0  0
   -6.2860    3.6988    3.2942 C   0  0  0  0  0  0  0  0  0  0  0  0
   -6.0322    5.0398    3.0186 C   0  0  0  0  0  0  0  0  0  0  0  0
   -6.7231    6.0277    3.6942 C   0  0  0  0  0  0  0  0  0  0  0  0
   -7.6782    5.6972    4.6389 C   0  0  0  0  0  0  0  0  0  0  0  0
   -7.9683    4.3650    4.9061 C   0  0  0  0  0  0  0  0  0  0  0  0
   -9.0450    3.9879    5.8841 C   0  0  0  0  0  0  0  0  0  0  0  0
  -10.3829    3.8071    5.1651 C   0  0  0  0  0  0  0  0  0  0  0  0
   -7.2734    3.3796    4.2241 C   0  0  0  0  0  0  0  0  0  0  0  0
   -5.0468    2.6751    1.2963 C   0  0  0  0  0  0  0  0  0  0  0  0
   -4.9057    3.9466    0.1071 S   0  0  0  0  0  0  0  0  0  0  0  0
   -3.9947    2.8792   -0.9072 C   0  0  0  0  0  0  0  0  0  0  0  0
   -3.2675    2.9041   -2.1100 C   0  0  0  0  0  0  0  0  0  0  0  0
   -3.1110    3.9169   -3.0797 C   0  0  0  0  0  0  0  0  0  0  0  0
   -2.2990    3.6550   -4.2334 C   0  0  0  0  0  0  0  0  0  0  0  0
   -2.2663    4.6784   -5.0727 N   0  0  0  0  0  0  0  0  0  0  0  0
   -3.1755    5.8714   -4.4617 S   0  0  0  0  0  0  0  0  0  0  0  0
   -3.6443    5.1288   -3.1007 N   0  0  0  0  0  0  0  0  0  0  0  0
   -1.6036    2.4295   -4.3126 C   0  0  0  0  0  0  0  0  0  0  0  0
   -0.6144    1.9913   -5.2084 C   0  0  0  0  0  0  0  0  0  0  0  0
    0.2350    2.5560   -6.6096 S   0  0  0  0  0  0  0  0  0  0  0  0
    1.2387    1.1268   -6.5434 C   0  0  0  0  0  0  0  0  0  0  0  0
    2.3516    0.7170   -7.3043 C   0  0  0  0  0  0  0  0  0  0  0  0
    2.8784    1.5383   -8.4016 C   0  0  0  0  0  0  0  0  0  0  0  0
    4.1590    2.0774   -8.3425 C   0  0  0  0  0  0  0  0  0  0  0  0
    4.6075    2.8915   -9.3655 C   0  0  0  0  0  0  0  0  0  0  0  0
    3.7840    3.1815  -10.4389 C   0  0  0  0  0  0  0  0  0  0  0  0
    2.4962    2.6651  -10.5029 C   0  0  0  0  0  0  0  0  0  0  0  0
    1.5681    3.0349  -11.6233 C   0  0  0  0  0  0  0  0  0  0  0  0
    0.7065    4.2324  -11.2169 C   0  0  0  0  0  0  0  0  0  0  0  0
    2.0532    1.8458   -9.4755 C   0  0  0  0  0  0  0  0  0  0  0  0
    2.8475   -0.4937   -6.8636 C   0  0  0  0  0  0  0  0  0  0  0  0
    1.9425   -1.1193   -5.4841 S   0  0  0  0  0  0  0  0  0  0  0  0
    0.9028    0.2620   -5.5029 C   0  0  0  0  0  0  0  0  0  0  0  0
   -0.1572    0.7604   -4.7354 C   0  0  0  0  0  0  0  0  0  0  0  0
   -0.8446    0.4039   -3.6068 N   0  0  0  0  0  0  0  0  0  0  0  0
   -1.7384    1.4225   -3.3154 C   0  0  0  0  0  0  0  0  0  0  0  0
   -2.6583    1.6258   -2.2527 C   0  0  0  0  0  0  0  0  0  0  0  0
   -3.0555    0.8341   -1.1838 N   0  0  0  0  0  0  0  0  0  0  0  0
   -3.8483    1.6012   -0.3728 C   0  0  0  0  0  0  0  0  0  0  0  0
   -4.4541    1.4829    0.8846 C   0  0  0  0  0  0  0  0  0  0  0  0
   -4.5426    0.2662    2.1046 S   0  0  0  0  0  0  0  0  0  0  0  0
   -3.1075   -0.6060   -1.0585 C   0  0  0  0  0  0  0  0  0  0  0  0
   -3.8160   -1.2477   -2.2487 C   0  0  0  0  0  0  0  0  0  0  0  0
   -0.3295   -0.6564   -2.7722 C   0  0  0  0  0  0  0  0  0  0  0  0
    0.3427   -0.1051   -1.5170 C   0  0  0  0  0  0  0  0  0  0  0  0
    3.9068   -1.3024   -7.3573 C   0  0  0  0  0  0  0  0  0  0  0  0
    4.9964   -0.7867   -8.6203 S   0  0  0  0  0  0  0  0  0  0  0  0
    5.8664   -2.2794   -8.5076 C   0  0  0  0  0  0  0  0  0  0  0  0
    6.9914   -2.7099   -9.2479 C   0  0  0  0  0  0  0  0  0  0  0  0
    7.3778   -4.0394   -9.1509 C   0  0  0  0  0  0  0  0  0  0  0  0
    6.7083   -4.9530   -8.4200 O   0  0  0  0  0  0  0  0  0  0  0  0
    5.9549   -4.4712   -7.2828 C   0  0  0  0  0  0  0  0  0  0  0  0
    6.9177   -4.4097   -6.1023 C   0  0  0  0  0  0  0  0  0  0  0  0
    7.1200   -3.2671   -5.3443 C   0  0  0  0  0  0  0  0  0  0  0  0
    8.0210   -3.2796   -4.2937 C   0  0  0  0  0  0  0  0  0  0  0  0
    8.7401   -4.4244   -3.9810 C   0  0  0  0  0  0  0  0  0  0  0  0
    9.7471   -4.4220   -2.8672 C   0  0  0  0  0  0  0  0  0  0  0  0
   11.1359   -4.0678   -3.4028 C   0  0  0  0  0  0  0  0  0  0  0  0
    8.5409   -5.5629   -4.7533 C   0  0  0  0  0  0  0  0  0  0  0  0
    7.6406   -5.5579   -5.7995 C   0  0  0  0  0  0  0  0  0  0  0  0
    4.8460   -5.4770   -7.0278 C   0  0  0  0  0  0  0  0  0  0  0  0
    4.2570   -6.1470   -8.0900 C   0  0  0  0  0  0  0  0  0  0  0  0
    3.2126   -7.0248   -7.8688 C   0  0  0  0  0  0  0  0  0  0  0  0
    2.7226   -7.2416   -6.5879 C   0  0  0  0  0  0  0  0  0  0  0  0
    1.6148   -8.2263   -6.3466 C   0  0  0  0  0  0  0  0  0  0  0  0
    2.1868   -9.6274   -6.1216 C   0  0  0  0  0  0  0  0  0  0  0  0
    3.3128   -6.5618   -5.5303 C   0  0  0  0  0  0  0  0  0  0  0  0
    4.3629   -5.6886   -5.7435 C   0  0  0  0  0  0  0  0  0  0  0  0
    5.3227   -3.1299   -7.5640 C   0  0  0  0  0  0  0  0  0  0  0  0
    4.2181   -2.5730   -6.9170 C   0  0  0  0  0  0  0  0  0  0  0  0
    8.4962   -4.3388   -9.9407 C   0  0  0  0  0  0  0  0  0  0  0  0
    8.9689   -3.2557  -10.6473 C   0  0  0  0  0  0  0  0  0  0  0  0
    8.0174   -1.8296  -10.3165 S   0  0  0  0  0  0  0  0  0  0  0  0
   10.1786   -3.2196  -11.4397 C   0  0  0  0  0  0  0  0  0  0  0  0
   11.2497   -3.9925  -11.0093 C   0  0  0  0  0  0  0  0  0  0  0  0
   12.4756   -3.9694  -11.6584 C   0  0  0  0  0  0  0  0  0  0  0  0
   12.6704   -3.1559  -12.7580 C   0  0  0  0  0  0  0  0  0  0  0  0
   13.9895   -3.1168  -13.4031 C   0  0  0  0  0  0  0  0  0  0  0  0
   14.9341   -3.7720  -13.0081 O   0  0  0  0  0  0  0  0  0  0  0  0
   14.1123   -2.2896  -14.5075 N   0  0  0  0  0  0  0  0  0  0  0  0
   15.4236   -2.2231  -15.1444 C   0  0  0  0  0  0  0  0  0  0  0  0
   16.2804   -1.1297  -14.5193 C   0  0  0  0  0  0  0  0  0  0  0  0
   13.1110   -1.4973  -15.0409 C   0  0  0  0  0  0  0  0  0  0  0  0
   13.3248   -0.7900  -16.0055 O   0  0  0  0  0  0  0  0  0  0  0  0
   11.7938   -1.5672  -14.3854 C   0  0  0  0  0  0  0  0  0  0  0  0
   10.7468   -0.8319  -14.9008 C   0  0  0  0  0  0  0  0  0  0  0  0
    9.4850   -0.9112  -14.3134 C   0  0  0  0  0  0  0  0  0  0  0  0
    9.2808   -1.6861  -13.1992 C   0  0  0  0  0  0  0  0  0  0  0  0
   10.3324   -2.4152  -12.6102 C   0  0  0  0  0  0  0  0  0  0  0  0
   11.6020   -2.3788  -13.2478 C   0  0  0  0  0  0  0  0  0  0  0  0
   -5.8611   -0.9513   10.6722 H   0  0  0  0  0  0  0  0  0  0  0  0
   -1.2180    2.8117   12.5594 H   0  0  0  0  0  0  0  0  0  0  0  0
   -3.5839   -0.4618   15.6161 H   0  0  0  0  0  0  0  0  0  0  0  0
   -0.5560    0.4352   16.9431 H   0  0  0  0  0  0  0  0  0  0  0  0
   -2.4796    1.7415   18.2433 H   0  0  0  0  0  0  0  0  0  0  0  0
   -0.1739    2.3222   19.3623 H   0  0  0  0  0  0  0  0  0  0  0  0
    1.0985    4.0438   17.7893 H   0  0  0  0  0  0  0  0  0  0  0  0
   -0.4238    4.5240   15.7024 H   0  0  0  0  0  0  0  0  0  0  0  0
   -2.7883    3.3055   16.0807 H   0  0  0  0  0  0  0  0  0  0  0  0
   -2.3486    4.2793   17.5027 H   0  0  0  0  0  0  0  0  0  0  0  0
    0.6892    2.1218   15.3994 H   0  0  0  0  0  0  0  0  0  0  0  0
   -8.0794   -3.2709    9.6907 H   0  0  0  0  0  0  0  0  0  0  0  0
   -7.3727   -4.9965   11.2825 H   0  0  0  0  0  0  0  0  0  0  0  0
   -5.4005   -6.6168   11.8669 H   0  0  0  0  0  0  0  0  0  0  0  0
   -3.7948   -5.8766   11.9579 H   0  0  0  0  0  0  0  0  0  0  0  0
   -5.0960   -5.3175   13.0133 H   0  0  0  0  0  0  0  0  0  0  0  0
   -3.2855   -4.1102   10.4421 H   0  0  0  0  0  0  0  0  0  0  0  0
   -3.9840   -2.4070    8.8220 H   0  0  0  0  0  0  0  0  0  0  0  0
   -8.3617    0.0528    7.6632 H   0  0  0  0  0  0  0  0  0  0  0  0
  -10.3174   -0.3274    6.2243 H   0  0  0  0  0  0  0  0  0  0  0  0
  -11.9152   -2.0949    5.3439 H   0  0  0  0  0  0  0  0  0  0  0  0
  -11.2551   -3.6578    4.8388 H   0  0  0  0  0  0  0  0  0  0  0  0
  -10.8436   -2.1905    3.9503 H   0  0  0  0  0  0  0  0  0  0  0  0
   -9.1036   -4.3752    5.6441 H   0  0  0  0  0  0  0  0  0  0  0  0
   -7.1344   -3.9929    7.0608 H   0  0  0  0  0  0  0  0  0  0  0  0
   -6.0534    3.8002    6.7639 H   0  0  0  0  0  0  0  0  0  0  0  0
   -6.0725    5.4785    8.5518 H   0  0  0  0  0  0  0  0  0  0  0  0
   -4.9766    7.2864    9.7188 H   0  0  0  0  0  0  0  0  0  0  0  0
   -3.3104    7.7300    9.3149 H   0  0  0  0  0  0  0  0  0  0  0  0
   -3.6253    6.4288   10.4600 H   0  0  0  0  0  0  0  0  0  0  0  0
   -1.8810    6.0750    8.0403 H   0  0  0  0  0  0  0  0  0  0  0  0
   -1.8529    4.3797    6.2642 H   0  0  0  0  0  0  0  0  0  0  0  0
   -3.4786    5.2378    4.1250 H   0  0  0  0  0  0  0  0  0  0  0  0
   -2.1726    5.5024    2.0582 H   0  0  0  0  0  0  0  0  0  0  0  0
    0.0592    4.1723    0.8349 H   0  0  0  0  0  0  0  0  0  0  0  0
   -1.4455    4.1704   -0.0785 H   0  0  0  0  0  0  0  0  0  0  0  0
   -0.5913    2.6512    0.2197 H   0  0  0  0  0  0  0  0  0  0  0  0
   -1.2291    1.3453    2.1218 H   0  0  0  0  0  0  0  0  0  0  0  0
   -2.5168    1.0805    4.1892 H   0  0  0  0  0  0  0  0  0  0  0  0
   -5.2848    5.3058    2.2882 H   0  0  0  0  0  0  0  0  0  0  0  0
   -6.5121    7.0658    3.4832 H   0  0  0  0  0  0  0  0  0  0  0  0
   -8.2074    6.4765    5.1680 H   0  0  0  0  0  0  0  0  0  0  0  0
   -8.7795    3.0537    6.3852 H   0  0  0  0  0  0  0  0  0  0  0  0
   -9.1448    4.7667    6.6428 H   0  0  0  0  0  0  0  0  0  0  0  0
  -10.3052    3.0237    4.4143 H   0  0  0  0  0  0  0  0  0  0  0  0
  -10.6718    4.7298    4.6668 H   0  0  0  0  0  0  0  0  0  0  0  0
  -11.1627    3.5357    5.8733 H   0  0  0  0  0  0  0  0  0  0  0  0
   -7.5127    2.3425    4.4114 H   0  0  0  0  0  0  0  0  0  0  0  0
    4.7900    1.8722   -7.4904 H   0  0  0  0  0  0  0  0  0  0  0  0
    5.6030    3.3080   -9.3210 H   0  0  0  0  0  0  0  0  0  0  0  0
    4.1414    3.8214  -11.2329 H   0  0  0  0  0  0  0  0  0  0  0  0
    2.1432    3.2880  -12.5161 H   0  0  0  0  0  0  0  0  0  0  0  0
    0.9194    2.1895  -11.8616 H   0  0  0  0  0  0  0  0  0  0  0  0
    0.0204    4.4976  -12.0178 H   0  0  0  0  0  0  0  0  0  0  0  0
    0.1289    3.9975  -10.3256 H   0  0  0  0  0  0  0  0  0  0  0  0
    1.3351    5.0925  -10.9978 H   0  0  0  0  0  0  0  0  0  0  0  0
    1.0540    1.4348   -9.5097 H   0  0  0  0  0  0  0  0  0  0  0  0
   -3.6734   -0.8150   -0.1471 H   0  0  0  0  0  0  0  0  0  0  0  0
   -2.1099   -1.0227   -0.9147 H   0  0  0  0  0  0  0  0  0  0  0  0
   -3.3174   -1.0013   -3.1833 H   0  0  0  0  0  0  0  0  0  0  0  0
   -3.8329   -2.3281   -2.1320 H   0  0  0  0  0  0  0  0  0  0  0  0
   -4.8410   -0.8891   -2.3075 H   0  0  0  0  0  0  0  0  0  0  0  0
    0.4124   -1.1902   -3.3714 H   0  0  0  0  0  0  0  0  0  0  0  0
   -1.1171   -1.3696   -2.5283 H   0  0  0  0  0  0  0  0  0  0  0  0
    1.1797    0.5312   -1.7954 H   0  0  0  0  0  0  0  0  0  0  0  0
   -0.3538    0.4878   -0.9290 H   0  0  0  0  0  0  0  0  0  0  0  0
    0.7165   -0.9215   -0.9047 H   0  0  0  0  0  0  0  0  0  0  0  0
    6.5713   -2.3631   -5.5636 H   0  0  0  0  0  0  0  0  0  0  0  0
    8.1646   -2.3828   -3.7078 H   0  0  0  0  0  0  0  0  0  0  0  0
    9.7831   -5.4082   -2.3997 H   0  0  0  0  0  0  0  0  0  0  0  0
    9.4577   -3.6934   -2.1072 H   0  0  0  0  0  0  0  0  0  0  0  0
   11.4465   -4.7888   -4.1555 H   0  0  0  0  0  0  0  0  0  0  0  0
   11.8663   -4.0700   -2.5972 H   0  0  0  0  0  0  0  0  0  0  0  0
   11.1247   -3.0807   -3.8596 H   0  0  0  0  0  0  0  0  0  0  0  0
    9.0931   -6.4639   -4.5269 H   0  0  0  0  0  0  0  0  0  0  0  0
    7.4867   -6.4455   -6.3954 H   0  0  0  0  0  0  0  0  0  0  0  0
    4.6264   -5.9839   -9.0910 H   0  0  0  0  0  0  0  0  0  0  0  0
    2.7662   -7.5435   -8.7053 H   0  0  0  0  0  0  0  0  0  0  0  0
    0.9432   -8.2463   -7.2073 H   0  0  0  0  0  0  0  0  0  0  0  0
    1.0377   -7.9278   -5.4691 H   0  0  0  0  0  0  0  0  0  0  0  0
    1.3861  -10.3429   -5.9495 H   0  0  0  0  0  0  0  0  0  0  0  0
    2.8486   -9.6311   -5.2584 H   0  0  0  0  0  0  0  0  0  0  0  0
    2.7576   -9.9463   -6.9907 H   0  0  0  0  0  0  0  0  0  0  0  0
    2.9453   -6.7163   -4.5257 H   0  0  0  0  0  0  0  0  0  0  0  0
    4.8114   -5.1709   -4.9077 H   0  0  0  0  0  0  0  0  0  0  0  0
    3.6588   -3.0754   -6.1477 H   0  0  0  0  0  0  0  0  0  0  0  0
    8.9123   -5.3265  -10.0094 H   0  0  0  0  0  0  0  0  0  0  0  0
   11.1363   -4.5968  -10.1225 H   0  0  0  0  0  0  0  0  0  0  0  0
   13.3018   -4.5653  -11.3011 H   0  0  0  0  0  0  0  0  0  0  0  0
   15.2613   -2.0192  -16.2043 H   0  0  0  0  0  0  0  0  0  0  0  0
   15.8978   -3.1976  -15.0150 H   0  0  0  0  0  0  0  0  0  0  0  0
   16.4271   -1.3285  -13.4601 H   0  0  0  0  0  0  0  0  0  0  0  0
   15.7982   -0.1622  -14.6381 H   0  0  0  0  0  0  0  0  0  0  0  0
   17.2504   -1.1000  -15.0077 H   0  0  0  0  0  0  0  0  0  0  0  0
   10.9220   -0.2174  -15.7709 H   0  0  0  0  0  0  0  0  0  0  0  0
    8.6614   -0.3621  -14.7437 H   0  0  0  0  0  0  0  0  0  0  0  0
    8.2899   -1.7485  -12.7794 H   0  0  0  0  0  0  0  0  0  0  0  0
  1  2  2  0  0  0  0
  2  3  1  0  0  0  0
  3  4  2  0  0  0  0
  3  5  1  0  0  0  0
  5  6  2  0  0  0  0
  6  7  1  0  0  0  0
  7  8  2  0  0  0  0
  8  9  1  0  0  0  0
  9 10  2  0  0  0  0
 10 11  1  0  0  0  0
 11 12  2  0  0  0  0
 12 13  1  0  0  0  0
 13 14  3  0  0  0  0
 12 15  1  0  0  0  0
 15 16  3  0  0  0  0
  8 17  1  0  0  0  0
 17 18  1  0  0  0  0
 18 19  1  0  0  0  0
 19 20  2  0  0  0  0
 20 21  1  0  0  0  0
 21 22  1  0  0  0  0
 21 23  1  0  0  0  0
  1 24  1  0  0  0  0
 24 25  2  0  0  0  0
 25 26  1  0  0  0  0
 26 27  1  0  0  0  0
 27 28  2  0  0  0  0
 28 29  1  0  0  0  0
 29 30  2  0  0  0  0
 30 31  1  0  0  0  0
 30 32  1  0  0  0  0
 32 33  2  0  0  0  0
 26 34  1  0  0  0  0
 34 35  2  0  0  0  0
 35 36  1  0  0  0  0
 36 37  2  0  0  0  0
 37 38  1  0  0  0  0
 37 39  1  0  0  0  0
 39 40  2  0  0  0  0
 25 41  1  0  0  0  0
 41 42  1  0  0  0  0
 42 43  1  0  0  0  0
 43 44  2  0  0  0  0
 44 45  1  0  0  0  0
 45 46  1  0  0  0  0
 46 47  2  0  0  0  0
 47 48  1  0  0  0  0
 48 49  2  0  0  0  0
 49 50  1  0  0  0  0
 49 51  1  0  0  0  0
 51 52  2  0  0  0  0
 45 53  1  0  0  0  0
 53 54  2  0  0  0  0
 54 55  1  0  0  0  0
 55 56  2  0  0  0  0
 56 57  1  0  0  0  0
 56 58  1  0  0  0  0
 58 59  2  0  0  0  0
 44 60  1  0  0  0  0
 60 61  1  0  0  0  0
 43 62  1  0  0  0  0
 62 63  2  0  0  0  0
 63 64  1  0  0  0  0
 64 65  2  0  0  0  0
 65 66  1  0  0  0  0
 66 67  2  0  0  0  0
 67 68  1  0  0  0  0
 68 69  1  0  0  0  0
 69 70  1  0  0  0  0
 68 71  2  0  0  0  0
 63 72  1  0  0  0  0
 72 73  1  0  0  0  0
 73 74  1  0  0  0  0
 74 75  1  0  0  0  0
 75 76  1  0  0  0  0
 76 77  1  0  0  0  0
 77 78  2  0  0  0  0
 78 79  1  0  0  0  0
 79 80  1  0  0  0  0
 77 81  1  0  0  0  0
 81 82  1  0  0  0  0
 82 83  1  0  0  0  0
 83 84  1  0  0  0  0
 84 85  1  0  0  0  0
 85 86  1  0  0  0  0
 86 87  2  0  0  0  0
 87 88  1  0  0  0  0
 88 89  2  0  0  0  0
 89 90  1  0  0  0  0
 90 91  1  0  0  0  0
 91 92  1  0  0  0  0
 90 93  2  0  0  0  0
 85 94  2  0  0  0  0
 94 95  1  0  0  0  0
 95 96  1  0  0  0  0
 96 97  1  0  0  0  0
 97 98  1  0  0  0  0
 98 99  1  0  0  0  0
 99100  1  0  0  0  0
100101  1  0  0  0  0
101102  1  0  0  0  0
102103  1  0  0  0  0
103104  1  0  0  0  0
101105  1  0  0  0  0
105106  1  0  0  0  0
 98107  1  0  0  0  0
107108  1  0  0  0  0
 94109  1  0  0  0  0
109110  1  0  0  0  0
110111  1  0  0  0  0
111112  1  0  0  0  0
112113  2  0  0  0  0
113114  1  0  0  0  0
114115  1  0  0  0  0
115116  1  0  0  0  0
116117  2  0  0  0  0
117118  1  0  0  0  0
118119  2  0  0  0  0
119120  1  0  0  0  0
120121  1  0  0  0  0
119122  1  0  0  0  0
122123  2  0  0  0  0
115124  1  0  0  0  0
124125  2  0  0  0  0
125126  1  0  0  0  0
126127  2  0  0  0  0
127128  1  0  0  0  0
128129  1  0  0  0  0
127130  1  0  0  0  0
130131  2  0  0  0  0
115132  1  0  0  0  0
132133  1  0  0  0  0
113134  1  0  0  0  0
134135  2  0  0  0  0
135136  1  0  0  0  0
135137  1  0  0  0  0
137138  2  0  0  0  0
138139  1  0  0  0  0
139140  2  0  0  0  0
140141  1  0  0  0  0
141142  2  0  0  0  0
141143  1  0  0  0  0
143144  1  0  0  0  0
144145  1  0  0  0  0
143146  1  0  0  0  0
146147  2  0  0  0  0
146148  1  0  0  0  0
148149  1  0  0  0  0
149150  2  0  0  0  0
150151  1  0  0  0  0
151152  2  0  0  0  0
152153  1  0  0  0  0
 11  2  1  0  0  0  0
 23 17  1  0  0  0  0
 61 24  1  0  0  0  0
104 62  1  0  0  0  0
133109  2  0  0  0  0
152137  1  0  0  0  0
 10  5  1  0  0  0  0
 22 18  1  0  0  0  0
 33 27  1  0  0  0  0
 40 34  1  0  0  0  0
 60 41  2  0  0  0  0
 71 64  1  0  0  0  0
103 72  2  0  0  0  0
132111  2  0  0  0  0
153140  1  0  0  0  0
 23  7  1  0  0  0  0
 52 46  1  0  0  0  0
 59 53  1  0  0  0  0
102 74  2  0  0  0  0
136112  1  0  0  0  0
153148  2  0  0  0  0
100 75  2  0  0  0  0
123116  1  0  0  0  0
131124  1  0  0  0  0
 80 76  2  0  0  0  0
 99 81  2  0  0  0  0
 97 82  2  0  0  0  0
 96 84  2  0  0  0  0
 93 86  1  0  0  0  0
  1154  1  0  0  0  0
  6155  1  0  0  0  0
  9156  1  0  0  0  0
 17157  1  0  0  0  0
 18158  1  0  0  0  0
 19159  1  0  0  0  0
 20160  1  0  0  0  0
 21161  1  0  0  0  0
 22162  1  0  0  0  0
 22163  1  0  0  0  0
 23164  1  0  0  0  0
 28165  1  0  0  0  0
 29166  1  0  0  0  0
 31167  1  0  0  0  0
 31168  1  0  0  0  0
 31169  1  0  0  0  0
 32170  1  0  0  0  0
 33171  1  0  0  0  0
 35172  1  0  0  0  0
 36173  1  0  0  0  0
 38174  1  0  0  0  0
 38175  1  0  0  0  0
 38176  1  0  0  0  0
 39177  1  0  0  0  0
 40178  1  0  0  0  0
 47179  1  0  0  0  0
 48180  1  0  0  0  0
 50181  1  0  0  0  0
 50182  1  0  0  0  0
 50183  1  0  0  0  0
 51184  1  0  0  0  0
 52185  1  0  0  0  0
 54186  1  0  0  0  0
 55187  1  0  0  0  0
 57188  1  0  0  0  0
 57189  1  0  0  0  0
 57190  1  0  0  0  0
 58191  1  0  0  0  0
 59192  1  0  0  0  0
 65193  1  0  0  0  0
 66194  1  0  0  0  0
 67195  1  0  0  0  0
 69196  1  0  0  0  0
 69197  1  0  0  0  0
 70198  1  0  0  0  0
 70199  1  0  0  0  0
 70200  1  0  0  0  0
 71201  1  0  0  0  0
 87202  1  0  0  0  0
 88203  1  0  0  0  0
 89204  1  0  0  0  0
 91205  1  0  0  0  0
 91206  1  0  0  0  0
 92207  1  0  0  0  0
 92208  1  0  0  0  0
 92209  1  0  0  0  0
 93210  1  0  0  0  0
105211  1  0  0  0  0
105212  1  0  0  0  0
106213  1  0  0  0  0
106214  1  0  0  0  0
106215  1  0  0  0  0
107216  1  0  0  0  0
107217  1  0  0  0  0
108218  1  0  0  0  0
108219  1  0  0  0  0
108220  1  0  0  0  0
117221  1  0  0  0  0
118222  1  0  0  0  0
120223  1  0  0  0  0
120224  1  0  0  0  0
121225  1  0  0  0  0
121226  1  0  0  0  0
121227  1  0  0  0  0
122228  1  0  0  0  0
123229  1  0  0  0  0
125230  1  0  0  0  0
126231  1  0  0  0  0
128232  1  0  0  0  0
128233  1  0  0  0  0
129234  1  0  0  0  0
129235  1  0  0  0  0
129236  1  0  0  0  0
130237  1  0  0  0  0
131238  1  0  0  0  0
133239  1  0  0  0  0
134240  1  0  0  0  0
138241  1  0  0  0  0
139242  1  0  0  0  0
144243  1  0  0  0  0
144244  1  0  0  0  0
145245  1  0  0  0  0
145246  1  0  0  0  0
145247  1  0  0  0  0
149248  1  0  0  0  0
150249  1  0  0  0  0
151250  1  0  0  0  0
M  END
