
  xtb     02182223393D
 energy: -354.548316136445 gnorm: 0.001158027007 xtb: 6.4.1 (unknown)
219245  0     0  0            999 V2000
   -6.1627   -5.7893  -11.6795 C   0  0  0  0  0  0  0  0  0  0  0  0
   -7.4786   -6.0555  -11.8310 C   0  0  0  0  0  0  0  0  0  0  0  0
   -7.9399   -6.9634  -12.9203 C   0  0  0  0  0  0  0  0  0  0  0  0
   -7.2505   -7.7094  -13.5772 O   0  0  0  0  0  0  0  0  0  0  0  0
   -9.3863   -6.7109  -13.0513 C   0  0  0  0  0  0  0  0  0  0  0  0
  -10.2468   -7.2296  -14.0170 C   0  0  0  0  0  0  0  0  0  0  0  0
  -11.5458   -6.7984  -13.9001 C   0  0  0  0  0  0  0  0  0  0  0  0
  -11.9643   -5.9098  -12.8992 C   0  0  0  0  0  0  0  0  0  0  0  0
  -11.1304   -5.3960  -11.9357 C   0  0  0  0  0  0  0  0  0  0  0  0
   -9.8044   -5.8275  -12.0326 C   0  0  0  0  0  0  0  0  0  0  0  0
   -8.6633   -5.5341  -11.1709 C   0  0  0  0  0  0  0  0  0  0  0  0
   -8.7345   -5.0834   -9.8808 C   0  0  0  0  0  0  0  0  0  0  0  0
   -7.6453   -5.0737   -8.9829 C   0  0  0  0  0  0  0  0  0  0  0  0
   -6.8284   -5.1061   -8.1774 N   0  0  0  0  0  0  0  0  0  0  0  0
   -9.9271   -4.6692   -9.2524 C   0  0  0  0  0  0  0  0  0  0  0  0
  -10.8646   -4.3076   -8.6976 N   0  0  0  0  0  0  0  0  0  0  0  0
  -13.3884   -5.8981  -13.3942 C   0  0  0  0  0  0  0  0  0  0  0  0
  -13.8614   -4.6677  -14.2077 C   0  0  0  0  0  0  0  0  0  0  0  0
  -12.6320   -4.0855  -14.8597 C   0  0  0  0  0  0  0  0  0  0  0  0
  -12.2370   -4.9282  -15.8047 C   0  0  0  0  0  0  0  0  0  0  0  0
  -13.1923   -6.0959  -15.8088 C   0  0  0  0  0  0  0  0  0  0  0  0
  -14.4945   -5.3817  -15.4127 C   0  0  0  0  0  0  0  0  0  0  0  0
  -12.9235   -6.8901  -14.5065 C   0  0  0  0  0  0  0  0  0  0  0  0
   -5.5521   -4.7198  -10.9293 C   0  0  0  0  0  0  0  0  0  0  0  0
   -4.3321   -4.9341  -10.2820 C   0  0  0  0  0  0  0  0  0  0  0  0
   -3.7547   -3.9375   -9.5307 C   0  0  0  0  0  0  0  0  0  0  0  0
   -4.3378   -2.6698   -9.4534 C   0  0  0  0  0  0  0  0  0  0  0  0
   -5.5367   -2.4398  -10.1370 C   0  0  0  0  0  0  0  0  0  0  0  0
   -6.1373   -3.4503  -10.8494 C   0  0  0  0  0  0  0  0  0  0  0  0
   -3.7216   -1.6328   -8.6555 C   0  0  0  0  0  0  0  0  0  0  0  0
   -3.6697   -0.2721   -8.8771 C   0  0  0  0  0  0  0  0  0  0  0  0
   -4.1262    0.3904  -10.1002 C   0  0  0  0  0  0  0  0  0  0  0  0
   -4.8232    1.5932  -10.0344 C   0  0  0  0  0  0  0  0  0  0  0  0
   -5.2575    2.2010  -11.1974 C   0  0  0  0  0  0  0  0  0  0  0  0
   -5.0053    1.6195  -12.4278 C   0  0  0  0  0  0  0  0  0  0  0  0
   -4.2948    0.4285  -12.5125 C   0  0  0  0  0  0  0  0  0  0  0  0
   -4.0503   -0.2412  -13.8345 C   0  0  0  0  0  0  0  0  0  0  0  0
   -5.0661   -1.3641  -14.0550 C   0  0  0  0  0  0  0  0  0  0  0  0
   -3.8534   -0.1712  -11.3439 C   0  0  0  0  0  0  0  0  0  0  0  0
   -3.0460    0.3989   -7.8022 C   0  0  0  0  0  0  0  0  0  0  0  0
   -2.6691    2.0804   -7.5071 S   0  0  0  0  0  0  0  0  0  0  0  0
   -1.9501    1.6322   -5.9966 C   0  0  0  0  0  0  0  0  0  0  0  0
   -1.3730    2.2389   -4.8680 C   0  0  0  0  0  0  0  0  0  0  0  0
   -1.2088    3.5968   -4.5202 C   0  0  0  0  0  0  0  0  0  0  0  0
   -0.7217    3.9240   -3.2094 C   0  0  0  0  0  0  0  0  0  0  0  0
   -0.6778    5.2304   -2.9987 N   0  0  0  0  0  0  0  0  0  0  0  0
   -1.1968    5.9837   -4.3336 S   0  0  0  0  0  0  0  0  0  0  0  0
   -1.5020    4.6722   -5.2345 N   0  0  0  0  0  0  0  0  0  0  0  0
   -0.3144    2.8810   -2.3500 C   0  0  0  0  0  0  0  0  0  0  0  0
    0.2893    2.9055   -1.0796 C   0  0  0  0  0  0  0  0  0  0  0  0
    0.7845    4.0430    0.1309 S   0  0  0  0  0  0  0  0  0  0  0  0
    1.4069    2.7223    1.0952 C   0  0  0  0  0  0  0  0  0  0  0  0
    2.0868    2.6558    2.3320 C   0  0  0  0  0  0  0  0  0  0  0  0
    2.4960    3.8297    3.1023 C   0  0  0  0  0  0  0  0  0  0  0  0
    1.6632    4.9410    3.1987 C   0  0  0  0  0  0  0  0  0  0  0  0
    2.0849    6.0603    3.8904 C   0  0  0  0  0  0  0  0  0  0  0  0
    3.3272    6.0818    4.5005 C   0  0  0  0  0  0  0  0  0  0  0  0
    4.1678    4.9778    4.4267 C   0  0  0  0  0  0  0  0  0  0  0  0
    5.5255    4.9851    5.0697 C   0  0  0  0  0  0  0  0  0  0  0  0
    6.6135    5.2994    4.0416 C   0  0  0  0  0  0  0  0  0  0  0  0
    3.7459    3.8683    3.7134 C   0  0  0  0  0  0  0  0  0  0  0  0
    2.4070    1.3499    2.6602 C   0  0  0  0  0  0  0  0  0  0  0  0
    1.8766    0.2006    1.4444 S   0  0  0  0  0  0  0  0  0  0  0  0
    1.2294    1.4805    0.4893 C   0  0  0  0  0  0  0  0  0  0  0  0
    0.5910    1.5851   -0.7523 C   0  0  0  0  0  0  0  0  0  0  0  0
    0.1803    0.7348   -1.7469 N   0  0  0  0  0  0  0  0  0  0  0  0
   -0.3913    1.5162   -2.7433 C   0  0  0  0  0  0  0  0  0  0  0  0
   -1.0356    1.1916   -3.9652 C   0  0  0  0  0  0  0  0  0  0  0  0
   -1.4415   -0.0081   -4.5198 N   0  0  0  0  0  0  0  0  0  0  0  0
   -1.9871    0.2598   -5.7465 C   0  0  0  0  0  0  0  0  0  0  0  0
   -2.6164   -0.4476   -6.7798 C   0  0  0  0  0  0  0  0  0  0  0  0
   -2.9796   -2.0972   -7.1378 S   0  0  0  0  0  0  0  0  0  0  0  0
   -1.6696   -1.2952   -3.9050 C   0  0  0  0  0  0  0  0  0  0  0  0
   -0.6986   -2.3582   -4.4175 C   0  0  0  0  0  0  0  0  0  0  0  0
    0.8608   -0.5380   -1.8633 C   0  0  0  0  0  0  0  0  0  0  0  0
    2.1114   -0.4099   -2.7301 C   0  0  0  0  0  0  0  0  0  0  0  0
    2.9764    0.9053    3.9010 C   0  0  0  0  0  0  0  0  0  0  0  0
    4.0221    0.0342    4.1519 C   0  0  0  0  0  0  0  0  0  0  0  0
    4.7928   -0.6236    3.1952 N   0  0  0  0  0  0  0  0  0  0  0  0
    4.1821   -1.4958    2.2892 C   0  0  0  0  0  0  0  0  0  0  0  0
    3.0706   -2.2457    2.6725 C   0  0  0  0  0  0  0  0  0  0  0  0
    2.4341   -3.0598    1.7573 C   0  0  0  0  0  0  0  0  0  0  0  0
    2.8842   -3.1535    0.4458 C   0  0  0  0  0  0  0  0  0  0  0  0
    2.1722   -4.0328   -0.5377 C   0  0  0  0  0  0  0  0  0  0  0  0
    4.0108   -2.4261    0.0807 C   0  0  0  0  0  0  0  0  0  0  0  0
    4.6574   -1.6080    0.9846 C   0  0  0  0  0  0  0  0  0  0  0  0
    6.1865   -0.5535    3.3183 C   0  0  0  0  0  0  0  0  0  0  0  0
    6.7867    0.6169    3.7785 C   0  0  0  0  0  0  0  0  0  0  0  0
    8.1577    0.6911    3.9178 C   0  0  0  0  0  0  0  0  0  0  0  0
    8.9707   -0.3882    3.5953 C   0  0  0  0  0  0  0  0  0  0  0  0
   10.4568   -0.3098    3.7675 C   0  0  0  0  0  0  0  0  0  0  0  0
    8.3654   -1.5513    3.1344 C   0  0  0  0  0  0  0  0  0  0  0  0
    6.9947   -1.6422    3.0009 C   0  0  0  0  0  0  0  0  0  0  0  0
    4.2953   -0.0457    5.5387 C   0  0  0  0  0  0  0  0  0  0  0  0
    5.4191   -0.9651    6.4651 S   0  0  0  0  0  0  0  0  0  0  0  0
    4.7963   -0.2556    7.9640 C   0  0  0  0  0  0  0  0  0  0  0  0
    3.6986    0.5985    7.7276 C   0  0  0  0  0  0  0  0  0  0  0  0
    2.8715    1.1548    8.6596 N   0  0  0  0  0  0  0  0  0  0  0  0
    2.1560    2.3230    8.3139 C   0  0  0  0  0  0  0  0  0  0  0  0
    0.7904    2.4032    8.5605 C   0  0  0  0  0  0  0  0  0  0  0  0
    0.0896    3.5340    8.1864 C   0  0  0  0  0  0  0  0  0  0  0  0
    0.7299    4.6009    7.5688 C   0  0  0  0  0  0  0  0  0  0  0  0
   -0.0315    5.8066    7.1136 C   0  0  0  0  0  0  0  0  0  0  0  0
    2.1024    4.5215    7.3600 C   0  0  0  0  0  0  0  0  0  0  0  0
    2.8140    3.3973    7.7233 C   0  0  0  0  0  0  0  0  0  0  0  0
    2.6681    0.6069    9.9321 C   0  0  0  0  0  0  0  0  0  0  0  0
    2.5861   -0.7723   10.1231 C   0  0  0  0  0  0  0  0  0  0  0  0
    2.4283   -1.2883   11.3915 C   0  0  0  0  0  0  0  0  0  0  0  0
    2.3498   -0.4550   12.5055 C   0  0  0  0  0  0  0  0  0  0  0  0
    2.2327   -1.0384   13.8785 C   0  0  0  0  0  0  0  0  0  0  0  0
    2.3855    0.9176   12.3019 C   0  0  0  0  0  0  0  0  0  0  0  0
    2.5381    1.4486   11.0347 C   0  0  0  0  0  0  0  0  0  0  0  0
    3.4653    0.7256    6.3368 C   0  0  0  0  0  0  0  0  0  0  0  0
    2.2887    1.5644    5.3822 S   0  0  0  0  0  0  0  0  0  0  0  0
    5.4165   -0.6538    9.1511 C   0  0  0  0  0  0  0  0  0  0  0  0
    5.4166    0.0497   10.3363 C   0  0  0  0  0  0  0  0  0  0  0  0
    5.2917    1.5129   10.4202 C   0  0  0  0  0  0  0  0  0  0  0  0
    5.1342    2.2955    9.5004 O   0  0  0  0  0  0  0  0  0  0  0  0
    5.5424    1.8548   11.8368 C   0  0  0  0  0  0  0  0  0  0  0  0
    5.5503    3.1246   12.4056 C   0  0  0  0  0  0  0  0  0  0  0  0
    5.8087    3.1315   13.7562 C   0  0  0  0  0  0  0  0  0  0  0  0
    6.0504    1.9625   14.4869 C   0  0  0  0  0  0  0  0  0  0  0  0
    6.0492    0.7022   13.9361 C   0  0  0  0  0  0  0  0  0  0  0  0
    5.7834    0.6745   12.5656 C   0  0  0  0  0  0  0  0  0  0  0  0
    5.6822   -0.4607   11.6507 C   0  0  0  0  0  0  0  0  0  0  0  0
    5.6684   -1.7879   12.0076 C   0  0  0  0  0  0  0  0  0  0  0  0
    5.8092   -2.2604   13.3243 C   0  0  0  0  0  0  0  0  0  0  0  0
    5.9005   -2.7070   14.3796 N   0  0  0  0  0  0  0  0  0  0  0  0
    5.4206   -2.8403   11.1048 C   0  0  0  0  0  0  0  0  0  0  0  0
    5.1919   -3.7459   10.4357 N   0  0  0  0  0  0  0  0  0  0  0  0
    6.2514    2.7149   15.7798 C   0  0  0  0  0  0  0  0  0  0  0  0
    7.7091    2.9035   16.2495 C   0  0  0  0  0  0  0  0  0  0  0  0
    7.6281    4.0500   17.2314 C   0  0  0  0  0  0  0  0  0  0  0  0
    7.3968    5.1582   16.5393 C   0  0  0  0  0  0  0  0  0  0  0  0
    7.3179    4.7792   15.0782 C   0  0  0  0  0  0  0  0  0  0  0  0
    8.3315    3.6280   15.0489 C   0  0  0  0  0  0  0  0  0  0  0  0
    5.9792    4.0198   14.9646 C   0  0  0  0  0  0  0  0  0  0  0  0
   -5.4897   -6.4383  -12.2317 H   0  0  0  0  0  0  0  0  0  0  0  0
   -9.8860   -7.9109  -14.7716 H   0  0  0  0  0  0  0  0  0  0  0  0
  -11.4607   -4.7100  -11.1729 H   0  0  0  0  0  0  0  0  0  0  0  0
  -14.1402   -6.2406  -12.6861 H   0  0  0  0  0  0  0  0  0  0  0  0
  -14.4854   -3.9726  -13.6523 H   0  0  0  0  0  0  0  0  0  0  0  0
  -12.1575   -3.1765  -14.5389 H   0  0  0  0  0  0  0  0  0  0  0  0
  -11.3662   -4.8642  -16.4307 H   0  0  0  0  0  0  0  0  0  0  0  0
  -13.2073   -6.7006  -16.7116 H   0  0  0  0  0  0  0  0  0  0  0  0
  -14.8442   -4.6890  -16.1767 H   0  0  0  0  0  0  0  0  0  0  0  0
  -15.2978   -6.0644  -15.1394 H   0  0  0  0  0  0  0  0  0  0  0  0
  -13.3717   -7.8816  -14.5244 H   0  0  0  0  0  0  0  0  0  0  0  0
   -3.8672   -5.9070  -10.3398 H   0  0  0  0  0  0  0  0  0  0  0  0
   -2.8303   -4.1257   -9.0039 H   0  0  0  0  0  0  0  0  0  0  0  0
   -6.0021   -1.4677  -10.0841 H   0  0  0  0  0  0  0  0  0  0  0  0
   -7.0607   -3.2562  -11.3769 H   0  0  0  0  0  0  0  0  0  0  0  0
   -5.0355    2.0394   -9.0747 H   0  0  0  0  0  0  0  0  0  0  0  0
   -5.8014    3.1324  -11.1431 H   0  0  0  0  0  0  0  0  0  0  0  0
   -5.3567    2.0970  -13.3313 H   0  0  0  0  0  0  0  0  0  0  0  0
   -4.1335    0.4872  -14.6431 H   0  0  0  0  0  0  0  0  0  0  0  0
   -3.0425   -0.6615  -13.8544 H   0  0  0  0  0  0  0  0  0  0  0  0
   -4.8927   -1.8529  -15.0109 H   0  0  0  0  0  0  0  0  0  0  0  0
   -6.0778   -0.9640  -14.0482 H   0  0  0  0  0  0  0  0  0  0  0  0
   -4.9875   -2.1077  -13.2641 H   0  0  0  0  0  0  0  0  0  0  0  0
   -3.2841   -1.0884  -11.3981 H   0  0  0  0  0  0  0  0  0  0  0  0
    0.6876    4.9224    2.7377 H   0  0  0  0  0  0  0  0  0  0  0  0
    1.4397    6.9244    3.9542 H   0  0  0  0  0  0  0  0  0  0  0  0
    3.6494    6.9639    5.0364 H   0  0  0  0  0  0  0  0  0  0  0  0
    5.5545    5.7313    5.8661 H   0  0  0  0  0  0  0  0  0  0  0  0
    5.7249    4.0076    5.5158 H   0  0  0  0  0  0  0  0  0  0  0  0
    6.6124    4.5570    3.2464 H   0  0  0  0  0  0  0  0  0  0  0  0
    6.4414    6.2767    3.5958 H   0  0  0  0  0  0  0  0  0  0  0  0
    7.5931    5.3007    4.5140 H   0  0  0  0  0  0  0  0  0  0  0  0
    4.4064    3.0187    3.6155 H   0  0  0  0  0  0  0  0  0  0  0  0
   -1.6270   -1.1808   -2.8212 H   0  0  0  0  0  0  0  0  0  0  0  0
   -2.6891   -1.6066   -4.1603 H   0  0  0  0  0  0  0  0  0  0  0  0
    0.3348   -2.0417   -4.3068 H   0  0  0  0  0  0  0  0  0  0  0  0
   -0.8470   -3.2870   -3.8732 H   0  0  0  0  0  0  0  0  0  0  0  0
   -0.8833   -2.5472   -5.4715 H   0  0  0  0  0  0  0  0  0  0  0  0
    1.1472   -0.8371   -0.8516 H   0  0  0  0  0  0  0  0  0  0  0  0
    0.2039   -1.3037   -2.2629 H   0  0  0  0  0  0  0  0  0  0  0  0
    1.8502   -0.0711   -3.7310 H   0  0  0  0  0  0  0  0  0  0  0  0
    2.6133   -1.3707   -2.8000 H   0  0  0  0  0  0  0  0  0  0  0  0
    2.7996    0.3091   -2.2919 H   0  0  0  0  0  0  0  0  0  0  0  0
    2.7077   -2.1784    3.6877 H   0  0  0  0  0  0  0  0  0  0  0  0
    1.5705   -3.6313    2.0654 H   0  0  0  0  0  0  0  0  0  0  0  0
    2.5433   -3.8712   -1.5468 H   0  0  0  0  0  0  0  0  0  0  0  0
    2.3222   -5.0818   -0.2826 H   0  0  0  0  0  0  0  0  0  0  0  0
    1.1010   -3.8379   -0.5207 H   0  0  0  0  0  0  0  0  0  0  0  0
    4.3847   -2.4920   -0.9312 H   0  0  0  0  0  0  0  0  0  0  0  0
    5.5224   -1.0358    0.6838 H   0  0  0  0  0  0  0  0  0  0  0  0
    6.1742    1.4713    4.0280 H   0  0  0  0  0  0  0  0  0  0  0  0
    8.6039    1.6069    4.2781 H   0  0  0  0  0  0  0  0  0  0  0  0
   10.9640   -0.9743    3.0718 H   0  0  0  0  0  0  0  0  0  0  0  0
   10.7307   -0.6092    4.7799 H   0  0  0  0  0  0  0  0  0  0  0  0
   10.8131    0.7059    3.6101 H   0  0  0  0  0  0  0  0  0  0  0  0
    8.9769   -2.4069    2.8862 H   0  0  0  0  0  0  0  0  0  0  0  0
    6.5426   -2.5612    2.6591 H   0  0  0  0  0  0  0  0  0  0  0  0
    0.2833    1.5750    9.0340 H   0  0  0  0  0  0  0  0  0  0  0  0
   -0.9740    3.5817    8.3697 H   0  0  0  0  0  0  0  0  0  0  0  0
    0.5112    6.7188    7.3523 H   0  0  0  0  0  0  0  0  0  0  0  0
   -1.0148    5.8480    7.5748 H   0  0  0  0  0  0  0  0  0  0  0  0
   -0.1589    5.7692    6.0317 H   0  0  0  0  0  0  0  0  0  0  0  0
    2.6176    5.3508    6.9008 H   0  0  0  0  0  0  0  0  0  0  0  0
    3.8817    3.3449    7.5801 H   0  0  0  0  0  0  0  0  0  0  0  0
    2.6515   -1.4380    9.2756 H   0  0  0  0  0  0  0  0  0  0  0  0
    2.3751   -2.3592   11.5238 H   0  0  0  0  0  0  0  0  0  0  0  0
    2.1712   -0.2555   14.6298 H   0  0  0  0  0  0  0  0  0  0  0  0
    1.3456   -1.6660   13.9518 H   0  0  0  0  0  0  0  0  0  0  0  0
    3.0970   -1.6637   14.1006 H   0  0  0  0  0  0  0  0  0  0  0  0
    2.3117    1.5855   13.1479 H   0  0  0  0  0  0  0  0  0  0  0  0
    2.5752    2.5181   10.8918 H   0  0  0  0  0  0  0  0  0  0  0  0
    5.9696   -1.5843    9.1012 H   0  0  0  0  0  0  0  0  0  0  0  0
    5.3579    4.0023   11.8082 H   0  0  0  0  0  0  0  0  0  0  0  0
    6.2428   -0.1904   14.5075 H   0  0  0  0  0  0  0  0  0  0  0  0
    5.5734    2.4563   16.5912 H   0  0  0  0  0  0  0  0  0  0  0  0
    8.1969    1.9963   16.5956 H   0  0  0  0  0  0  0  0  0  0  0  0
    7.6893    3.9326   18.2975 H   0  0  0  0  0  0  0  0  0  0  0  0
    7.2259    6.1514   16.9119 H   0  0  0  0  0  0  0  0  0  0  0  0
    7.4499    5.5812   14.3566 H   0  0  0  0  0  0  0  0  0  0  0  0
    9.3459    3.9671   15.2531 H   0  0  0  0  0  0  0  0  0  0  0  0
    8.3189    3.0497   14.1270 H   0  0  0  0  0  0  0  0  0  0  0  0
    5.1193    4.6311   15.2335 H   0  0  0  0  0  0  0  0  0  0  0  0
  1  2  2  0  0  0  0
  2  3  1  0  0  0  0
  3  4  2  0  0  0  0
  3  5  1  0  0  0  0
  5  6  2  0  0  0  0
  6  7  1  0  0  0  0
  7  8  2  0  0  0  0
  8  9  1  0  0  0  0
  9 10  2  0  0  0  0
 10 11  1  0  0  0  0
 11 12  2  0  0  0  0
 12 13  1  0  0  0  0
 13 14  3  0  0  0  0
 12 15  1  0  0  0  0
 15 16  3  0  0  0  0
  8 17  1  0  0  0  0
 17 18  1  0  0  0  0
 18 19  1  0  0  0  0
 19 20  2  0  0  0  0
 20 21  1  0  0  0  0
 21 22  1  0  0  0  0
 21 23  1  0  0  0  0
  1 24  1  0  0  0  0
 24 25  2  0  0  0  0
 25 26  1  0  0  0  0
 26 27  2  0  0  0  0
 27 28  1  0  0  0  0
 28 29  2  0  0  0  0
 27 30  1  0  0  0  0
 30 31  2  0  0  0  0
 31 32  1  0  0  0  0
 32 33  2  0  0  0  0
 33 34  1  0  0  0  0
 34 35  2  0  0  0  0
 35 36  1  0  0  0  0
 36 37  1  0  0  0  0
 37 38  1  0  0  0  0
 36 39  2  0  0  0  0
 31 40  1  0  0  0  0
 40 41  1  0  0  0  0
 41 42  1  0  0  0  0
 42 43  1  0  0  0  0
 43 44  1  0  0  0  0
 44 45  1  0  0  0  0
 45 46  2  0  0  0  0
 46 47  1  0  0  0  0
 47 48  1  0  0  0  0
 45 49  1  0  0  0  0
 49 50  1  0  0  0  0
 50 51  1  0  0  0  0
 51 52  1  0  0  0  0
 52 53  1  0  0  0  0
 53 54  1  0  0  0  0
 54 55  2  0  0  0  0
 55 56  1  0  0  0  0
 56 57  2  0  0  0  0
 57 58  1  0  0  0  0
 58 59  1  0  0  0  0
 59 60  1  0  0  0  0
 58 61  2  0  0  0  0
 53 62  2  0  0  0  0
 62 63  1  0  0  0  0
 63 64  1  0  0  0  0
 64 65  1  0  0  0  0
 65 66  1  0  0  0  0
 66 67  1  0  0  0  0
 67 68  1  0  0  0  0
 68 69  1  0  0  0  0
 69 70  1  0  0  0  0
 70 71  1  0  0  0  0
 71 72  1  0  0  0  0
 69 73  1  0  0  0  0
 73 74  1  0  0  0  0
 66 75  1  0  0  0  0
 75 76  1  0  0  0  0
 62 77  1  0  0  0  0
 77 78  2  0  0  0  0
 78 79  1  0  0  0  0
 79 80  1  0  0  0  0
 80 81  2  0  0  0  0
 81 82  1  0  0  0  0
 82 83  2  0  0  0  0
 83 84  1  0  0  0  0
 83 85  1  0  0  0  0
 85 86  2  0  0  0  0
 79 87  1  0  0  0  0
 87 88  2  0  0  0  0
 88 89  1  0  0  0  0
 89 90  2  0  0  0  0
 90 91  1  0  0  0  0
 90 92  1  0  0  0  0
 92 93  2  0  0  0  0
 78 94  1  0  0  0  0
 94 95  1  0  0  0  0
 95 96  1  0  0  0  0
 96 97  2  0  0  0  0
 97 98  1  0  0  0  0
 98 99  1  0  0  0  0
 99100  2  0  0  0  0
100101  1  0  0  0  0
101102  2  0  0  0  0
102103  1  0  0  0  0
102104  1  0  0  0  0
104105  2  0  0  0  0
 98106  1  0  0  0  0
106107  2  0  0  0  0
107108  1  0  0  0  0
108109  2  0  0  0  0
109110  1  0  0  0  0
109111  1  0  0  0  0
111112  2  0  0  0  0
 97113  1  0  0  0  0
113114  1  0  0  0  0
 96115  1  0  0  0  0
115116  2  0  0  0  0
116117  1  0  0  0  0
117118  2  0  0  0  0
117119  1  0  0  0  0
119120  2  0  0  0  0
120121  1  0  0  0  0
121122  2  0  0  0  0
122123  1  0  0  0  0
123124  2  0  0  0  0
124125  1  0  0  0  0
125126  2  0  0  0  0
126127  1  0  0  0  0
127128  3  0  0  0  0
126129  1  0  0  0  0
129130  3  0  0  0  0
122131  1  0  0  0  0
131132  1  0  0  0  0
132133  1  0  0  0  0
133134  2  0  0  0  0
134135  1  0  0  0  0
135136  1  0  0  0  0
135137  1  0  0  0  0
 11  2  1  0  0  0  0
 23 17  1  0  0  0  0
 29 24  1  0  0  0  0
 72 30  1  0  0  0  0
114 77  1  0  0  0  0
125116  1  0  0  0  0
137131  1  0  0  0  0
 10  5  1  0  0  0  0
 22 18  1  0  0  0  0
 39 32  1  0  0  0  0
 71 40  2  0  0  0  0
 86 80  1  0  0  0  0
 93 87  1  0  0  0  0
113 94  2  0  0  0  0
124119  1  0  0  0  0
136132  1  0  0  0  0
 23  7  1  0  0  0  0
 70 42  2  0  0  0  0
105 99  1  0  0  0  0
112106  1  0  0  0  0
137121  1  0  0  0  0
 68 43  2  0  0  0  0
 48 44  2  0  0  0  0
 67 49  2  0  0  0  0
 65 50  2  0  0  0  0
 64 52  2  0  0  0  0
 61 54  1  0  0  0  0
  1138  1  0  0  0  0
  6139  1  0  0  0  0
  9140  1  0  0  0  0
 17141  1  0  0  0  0
 18142  1  0  0  0  0
 19143  1  0  0  0  0
 20144  1  0  0  0  0
 21145  1  0  0  0  0
 22146  1  0  0  0  0
 22147  1  0  0  0  0
 23148  1  0  0  0  0
 25149  1  0  0  0  0
 26150  1  0  0  0  0
 28151  1  0  0  0  0
 29152  1  0  0  0  0
 33153  1  0  0  0  0
 34154  1  0  0  0  0
 35155  1  0  0  0  0
 37156  1  0  0  0  0
 37157  1  0  0  0  0
 38158  1  0  0  0  0
 38159  1  0  0  0  0
 38160  1  0  0  0  0
 39161  1  0  0  0  0
 55162  1  0  0  0  0
 56163  1  0  0  0  0
 57164  1  0  0  0  0
 59165  1  0  0  0  0
 59166  1  0  0  0  0
 60167  1  0  0  0  0
 60168  1  0  0  0  0
 60169  1  0  0  0  0
 61170  1  0  0  0  0
 73171  1  0  0  0  0
 73172  1  0  0  0  0
 74173  1  0  0  0  0
 74174  1  0  0  0  0
 74175  1  0  0  0  0
 75176  1  0  0  0  0
 75177  1  0  0  0  0
 76178  1  0  0  0  0
 76179  1  0  0  0  0
 76180  1  0  0  0  0
 81181  1  0  0  0  0
 82182  1  0  0  0  0
 84183  1  0  0  0  0
 84184  1  0  0  0  0
 84185  1  0  0  0  0
 85186  1  0  0  0  0
 86187  1  0  0  0  0
 88188  1  0  0  0  0
 89189  1  0  0  0  0
 91190  1  0  0  0  0
 91191  1  0  0  0  0
 91192  1  0  0  0  0
 92193  1  0  0  0  0
 93194  1  0  0  0  0
100195  1  0  0  0  0
101196  1  0  0  0  0
103197  1  0  0  0  0
103198  1  0  0  0  0
103199  1  0  0  0  0
104200  1  0  0  0  0
105201  1  0  0  0  0
107202  1  0  0  0  0
108203  1  0  0  0  0
110204  1  0  0  0  0
110205  1  0  0  0  0
110206  1  0  0  0  0
111207  1  0  0  0  0
112208  1  0  0  0  0
115209  1  0  0  0  0
120210  1  0  0  0  0
123211  1  0  0  0  0
131212  1  0  0  0  0
132213  1  0  0  0  0
133214  1  0  0  0  0
134215  1  0  0  0  0
135216  1  0  0  0  0
136217  1  0  0  0  0
136218  1  0  0  0  0
137219  1  0  0  0  0
M  END
