
  xtb     02152214213D
 energy: -406.010496065626 gnorm: 0.000683631773 xtb: 6.4.1 (unknown)
246274  0     0  0            999 V2000
    3.1192   -0.1853   11.2591 C   0  0  0  0  0  0  0  0  0  0  0  0
    4.0823   -1.0830   11.6604 C   0  0  0  0  0  0  0  0  0  0  0  0
    4.4429   -2.3313   10.9861 C   0  0  0  0  0  0  0  0  0  0  0  0
    3.8669   -2.8745   10.0582 O   0  0  0  0  0  0  0  0  0  0  0  0
    5.6732   -2.8133   11.6414 C   0  0  0  0  0  0  0  0  0  0  0  0
    6.4046   -3.9537   11.3193 C   0  0  0  0  0  0  0  0  0  0  0  0
    7.5244   -4.1364   12.0952 C   0  0  0  0  0  0  0  0  0  0  0  0
    7.8883   -3.2511   13.1174 C   0  0  0  0  0  0  0  0  0  0  0  0
    7.1691   -2.1275   13.4517 C   0  0  0  0  0  0  0  0  0  0  0  0
    6.0274   -1.9212   12.6726 C   0  0  0  0  0  0  0  0  0  0  0  0
    5.0193   -0.8625   12.7357 C   0  0  0  0  0  0  0  0  0  0  0  0
    4.9771    0.1379   13.6777 C   0  0  0  0  0  0  0  0  0  0  0  0
    5.9744    0.3677   14.6450 C   0  0  0  0  0  0  0  0  0  0  0  0
    6.7565    0.6369   15.4428 N   0  0  0  0  0  0  0  0  0  0  0  0
    3.9241    1.0571   13.8431 C   0  0  0  0  0  0  0  0  0  0  0  0
    3.0946    1.8185   14.0772 N   0  0  0  0  0  0  0  0  0  0  0  0
    9.1279   -4.0369   13.4669 C   0  0  0  0  0  0  0  0  0  0  0  0
   10.4694   -3.4668   12.9591 C   0  0  0  0  0  0  0  0  0  0  0  0
   11.4110   -4.6477   13.0214 C   0  0  0  0  0  0  0  0  0  0  0  0
   11.0656   -5.4904   12.0564 C   0  0  0  0  0  0  0  0  0  0  0  0
    9.8851   -4.8928   11.3254 C   0  0  0  0  0  0  0  0  0  0  0  0
   10.2273   -3.4022   11.4454 C   0  0  0  0  0  0  0  0  0  0  0  0
    8.7203   -5.0268   12.3290 C   0  0  0  0  0  0  0  0  0  0  0  0
    2.2096   -0.2414   10.2045 C   0  0  0  0  0  0  0  0  0  0  0  0
    1.3544    0.8375    9.8602 C   0  0  0  0  0  0  0  0  0  0  0  0
    1.4129    2.1014   10.3880 N   0  0  0  0  0  0  0  0  0  0  0  0
    0.2208    2.8268   10.5676 C   0  0  0  0  0  0  0  0  0  0  0  0
    0.1713    4.1872   10.2813 C   0  0  0  0  0  0  0  0  0  0  0  0
   -0.9766    4.9087   10.5439 C   0  0  0  0  0  0  0  0  0  0  0  0
   -2.0981    4.2985   11.0904 C   0  0  0  0  0  0  0  0  0  0  0  0
   -3.3196    5.0885   11.4451 C   0  0  0  0  0  0  0  0  0  0  0  0
   -2.0528    2.9298   11.3334 C   0  0  0  0  0  0  0  0  0  0  0  0
   -0.9123    2.1976   11.0781 C   0  0  0  0  0  0  0  0  0  0  0  0
    2.6373    2.7217   10.7002 C   0  0  0  0  0  0  0  0  0  0  0  0
    2.7385    3.5598   11.8081 C   0  0  0  0  0  0  0  0  0  0  0  0
    3.9468    4.1517   12.1168 C   0  0  0  0  0  0  0  0  0  0  0  0
    5.0800    3.9211   11.3457 C   0  0  0  0  0  0  0  0  0  0  0  0
    6.3933    4.5316   11.7267 C   0  0  0  0  0  0  0  0  0  0  0  0
    4.9627    3.1012   10.2292 C   0  0  0  0  0  0  0  0  0  0  0  0
    3.7578    2.5143    9.8988 C   0  0  0  0  0  0  0  0  0  0  0  0
    0.4434    0.4557    8.8619 C   0  0  0  0  0  0  0  0  0  0  0  0
   -0.7895    1.2769    7.9592 S   0  0  0  0  0  0  0  0  0  0  0  0
   -1.0565   -0.1620    6.9692 C   0  0  0  0  0  0  0  0  0  0  0  0
   -0.2070   -1.1991    7.3221 C   0  0  0  0  0  0  0  0  0  0  0  0
   -0.1833   -2.4848    6.7767 N   0  0  0  0  0  0  0  0  0  0  0  0
   -0.1857   -3.5486    7.6923 C   0  0  0  0  0  0  0  0  0  0  0  0
    0.6244   -4.6666    7.5131 C   0  0  0  0  0  0  0  0  0  0  0  0
    0.6125   -5.6857    8.4427 C   0  0  0  0  0  0  0  0  0  0  0  0
   -0.1907   -5.6209    9.5756 C   0  0  0  0  0  0  0  0  0  0  0  0
   -0.1641   -6.7200   10.5933 C   0  0  0  0  0  0  0  0  0  0  0  0
   -0.9934   -4.5014    9.7486 C   0  0  0  0  0  0  0  0  0  0  0  0
   -0.9986   -3.4790    8.8208 C   0  0  0  0  0  0  0  0  0  0  0  0
    0.1765   -2.6815    5.4428 C   0  0  0  0  0  0  0  0  0  0  0  0
    1.0280   -1.7886    4.7936 C   0  0  0  0  0  0  0  0  0  0  0  0
    1.3117   -1.9493    3.4508 C   0  0  0  0  0  0  0  0  0  0  0  0
    0.7665   -2.9985    2.7238 C   0  0  0  0  0  0  0  0  0  0  0  0
    1.0672   -3.1650    1.2642 C   0  0  0  0  0  0  0  0  0  0  0  0
   -0.0504   -3.9080    3.3885 C   0  0  0  0  0  0  0  0  0  0  0  0
   -0.3440   -3.7599    4.7269 C   0  0  0  0  0  0  0  0  0  0  0  0
    0.6222   -0.8445    8.4122 C   0  0  0  0  0  0  0  0  0  0  0  0
    1.9128   -1.6685    9.2069 S   0  0  0  0  0  0  0  0  0  0  0  0
   -2.0287   -0.0712    5.9232 C   0  0  0  0  0  0  0  0  0  0  0  0
   -3.2074    0.6578    5.9444 C   0  0  0  0  0  0  0  0  0  0  0  0
   -3.7995    1.2636    7.1366 C   0  0  0  0  0  0  0  0  0  0  0  0
   -3.8479    0.5682    8.3432 C   0  0  0  0  0  0  0  0  0  0  0  0
   -4.4601    1.1385    9.4401 C   0  0  0  0  0  0  0  0  0  0  0  0
   -5.0192    2.4025    9.3504 C   0  0  0  0  0  0  0  0  0  0  0  0
   -4.9756    3.1126    8.1588 C   0  0  0  0  0  0  0  0  0  0  0  0
   -5.5506    4.4958    8.0449 C   0  0  0  0  0  0  0  0  0  0  0  0
   -4.4520    5.5329    7.8060 C   0  0  0  0  0  0  0  0  0  0  0  0
   -4.3712    2.5266    7.0563 C   0  0  0  0  0  0  0  0  0  0  0  0
   -3.8206    0.6867    4.6742 C   0  0  0  0  0  0  0  0  0  0  0  0
   -5.2774    1.4304    4.0490 S   0  0  0  0  0  0  0  0  0  0  0  0
   -4.9128    0.7928    2.4770 C   0  0  0  0  0  0  0  0  0  0  0  0
   -5.4136    0.8121    1.1613 C   0  0  0  0  0  0  0  0  0  0  0  0
   -6.5958    1.3407    0.5974 C   0  0  0  0  0  0  0  0  0  0  0  0
   -6.8402    1.1643   -0.8094 C   0  0  0  0  0  0  0  0  0  0  0  0
   -8.0036    1.6699   -1.1865 N   0  0  0  0  0  0  0  0  0  0  0  0
   -8.7288    2.3153    0.1096 S   0  0  0  0  0  0  0  0  0  0  0  0
   -7.5849    1.9768    1.2045 N   0  0  0  0  0  0  0  0  0  0  0  0
   -5.8337    0.5850   -1.6144 C   0  0  0  0  0  0  0  0  0  0  0  0
   -5.6815    0.5029   -3.0090 C   0  0  0  0  0  0  0  0  0  0  0  0
   -6.5552    0.9092   -4.4485 S   0  0  0  0  0  0  0  0  0  0  0  0
   -5.1525    0.4707   -5.3930 C   0  0  0  0  0  0  0  0  0  0  0  0
   -4.8934    0.4983   -6.7753 C   0  0  0  0  0  0  0  0  0  0  0  0
   -5.8731    0.9309   -7.7804 C   0  0  0  0  0  0  0  0  0  0  0  0
   -6.3668    2.2302   -7.7569 C   0  0  0  0  0  0  0  0  0  0  0  0
   -7.2677    2.6386   -8.7222 C   0  0  0  0  0  0  0  0  0  0  0  0
   -7.6851    1.7575   -9.7035 C   0  0  0  0  0  0  0  0  0  0  0  0
   -7.2203    0.4493   -9.7261 C   0  0  0  0  0  0  0  0  0  0  0  0
   -7.6316   -0.4993  -10.8147 C   0  0  0  0  0  0  0  0  0  0  0  0
   -6.5994   -0.4807  -11.9439 C   0  0  0  0  0  0  0  0  0  0  0  0
   -6.3157    0.0450   -8.7560 C   0  0  0  0  0  0  0  0  0  0  0  0
   -3.6041    0.0866   -7.0563 C   0  0  0  0  0  0  0  0  0  0  0  0
   -2.7179   -0.3697   -5.6048 S   0  0  0  0  0  0  0  0  0  0  0  0
   -4.0822    0.0179   -4.6176 C   0  0  0  0  0  0  0  0  0  0  0  0
   -4.3894    0.0257   -3.2522 C   0  0  0  0  0  0  0  0  0  0  0  0
   -3.7519   -0.2245   -2.0654 N   0  0  0  0  0  0  0  0  0  0  0  0
   -4.6246    0.1017   -1.0444 C   0  0  0  0  0  0  0  0  0  0  0  0
   -4.4834    0.0895    0.3646 C   0  0  0  0  0  0  0  0  0  0  0  0
   -3.4857   -0.4134    1.1829 N   0  0  0  0  0  0  0  0  0  0  0  0
   -3.7423    0.0334    2.4527 C   0  0  0  0  0  0  0  0  0  0  0  0
   -3.1239   -0.0310    3.7048 C   0  0  0  0  0  0  0  0  0  0  0  0
   -1.6948   -0.7525    4.3375 S   0  0  0  0  0  0  0  0  0  0  0  0
   -2.7010   -1.6163    1.0028 C   0  0  0  0  0  0  0  0  0  0  0  0
   -3.3118   -2.7983    1.7552 C   0  0  0  0  0  0  0  0  0  0  0  0
   -2.3175   -0.4037   -2.0331 C   0  0  0  0  0  0  0  0  0  0  0  0
   -1.8993   -1.8038   -2.4827 C   0  0  0  0  0  0  0  0  0  0  0  0
   -2.8959    0.0992   -8.2898 C   0  0  0  0  0  0  0  0  0  0  0  0
   -1.5954   -0.2822   -8.4824 C   0  0  0  0  0  0  0  0  0  0  0  0
   -1.1204   -0.0566   -9.7942 C   0  0  0  0  0  0  0  0  0  0  0  0
    0.1477   -0.3428  -10.3213 C   0  0  0  0  0  0  0  0  0  0  0  0
    1.2420   -0.8795   -9.5011 C   0  0  0  0  0  0  0  0  0  0  0  0
    1.6083   -0.2643   -8.3064 C   0  0  0  0  0  0  0  0  0  0  0  0
    2.6881   -0.7369   -7.5824 C   0  0  0  0  0  0  0  0  0  0  0  0
    3.4230   -1.8165   -8.0388 C   0  0  0  0  0  0  0  0  0  0  0  0
    3.0670   -2.4258   -9.2332 C   0  0  0  0  0  0  0  0  0  0  0  0
    3.9900   -3.7995   -9.8848 S   0  0  0  0  0  0  0  0  0  0  0  0
    5.6605   -3.0563   -9.9777 C   0  0  0  0  0  0  0  0  0  0  0  0
    5.6761   -1.7921  -10.8126 C   0  0  0  0  0  0  0  0  0  0  0  0
    1.9750   -1.9715   -9.9521 C   0  0  0  0  0  0  0  0  0  0  0  0
    0.3495   -0.0540  -11.6636 C   0  0  0  0  0  0  0  0  0  0  0  0
   -0.6558    0.5128  -12.4937 C   0  0  0  0  0  0  0  0  0  0  0  0
   -1.9390    0.7837  -11.9690 C   0  0  0  0  0  0  0  0  0  0  0  0
   -3.0393    1.2907  -12.7971 C   0  0  0  0  0  0  0  0  0  0  0  0
   -3.3453    0.6892  -14.0181 C   0  0  0  0  0  0  0  0  0  0  0  0
   -4.4254    1.1350  -14.7545 C   0  0  0  0  0  0  0  0  0  0  0  0
   -5.2275    2.1649  -14.2923 C   0  0  0  0  0  0  0  0  0  0  0  0
   -4.9380    2.7585  -13.0705 C   0  0  0  0  0  0  0  0  0  0  0  0
   -5.8890    4.0592  -12.3501 S   0  0  0  0  0  0  0  0  0  0  0  0
   -7.4783    3.9821  -13.2624 C   0  0  0  0  0  0  0  0  0  0  0  0
   -8.5033    4.8366  -12.5414 C   0  0  0  0  0  0  0  0  0  0  0  0
   -3.8366    2.3304  -12.3388 C   0  0  0  0  0  0  0  0  0  0  0  0
   -2.1241    0.5077  -10.6275 C   0  0  0  0  0  0  0  0  0  0  0  0
   -3.6155    0.7465   -9.7496 S   0  0  0  0  0  0  0  0  0  0  0  0
   -0.1621    0.7828  -13.7796 C   0  0  0  0  0  0  0  0  0  0  0  0
    1.1618    0.4245  -13.9639 C   0  0  0  0  0  0  0  0  0  0  0  0
    1.8517   -0.2752  -12.5131 S   0  0  0  0  0  0  0  0  0  0  0  0
    1.8306    0.6327  -15.1885 C   0  0  0  0  0  0  0  0  0  0  0  0
    3.1089    0.3348  -15.5650 C   0  0  0  0  0  0  0  0  0  0  0  0
    4.1441   -0.3372  -14.7465 C   0  0  0  0  0  0  0  0  0  0  0  0
    4.0531   -0.7429  -13.6054 O   0  0  0  0  0  0  0  0  0  0  0  0
    5.3249   -0.4223  -15.6107 C   0  0  0  0  0  0  0  0  0  0  0  0
    5.0316    0.1486  -16.8424 C   0  0  0  0  0  0  0  0  0  0  0  0
    6.3502    0.1129  -17.9566 S   0  0  0  0  0  0  0  0  0  0  0  0
    7.3245   -0.6839  -16.7594 C   0  0  0  0  0  0  0  0  0  0  0  0
    8.6497   -1.1563  -16.7341 C   0  0  0  0  0  0  0  0  0  0  0  0
    8.9442   -1.7173  -15.5310 C   0  0  0  0  0  0  0  0  0  0  0  0
    7.6353   -1.6918  -14.3991 S   0  0  0  0  0  0  0  0  0  0  0  0
    6.6377   -0.9017  -15.5578 C   0  0  0  0  0  0  0  0  0  0  0  0
    3.6794    0.6304  -16.8748 C   0  0  0  0  0  0  0  0  0  0  0  0
    3.0997    1.2440  -17.9586 C   0  0  0  0  0  0  0  0  0  0  0  0
    3.8341    1.4463  -19.1454 C   0  0  0  0  0  0  0  0  0  0  0  0
    4.4258    1.6151  -20.1142 N   0  0  0  0  0  0  0  0  0  0  0  0
    1.7802    1.7250  -18.0359 C   0  0  0  0  0  0  0  0  0  0  0  0
    0.7168    2.1382  -18.1723 N   0  0  0  0  0  0  0  0  0  0  0  0
    3.0666    0.7307   11.8334 H   0  0  0  0  0  0  0  0  0  0  0  0
    6.0858   -4.6099   10.5245 H   0  0  0  0  0  0  0  0  0  0  0  0
    7.4599   -1.4598   14.2454 H   0  0  0  0  0  0  0  0  0  0  0  0
    9.1837   -4.4100   14.4878 H   0  0  0  0  0  0  0  0  0  0  0  0
   10.7930   -2.5554   13.4544 H   0  0  0  0  0  0  0  0  0  0  0  0
   12.1702   -4.7709   13.7713 H   0  0  0  0  0  0  0  0  0  0  0  0
   11.4785   -6.4582   11.8394 H   0  0  0  0  0  0  0  0  0  0  0  0
    9.6773   -5.2809   10.3317 H   0  0  0  0  0  0  0  0  0  0  0  0
   11.1299   -3.1413   10.8951 H   0  0  0  0  0  0  0  0  0  0  0  0
    9.4173   -2.7363   11.1536 H   0  0  0  0  0  0  0  0  0  0  0  0
    8.5012   -6.0600   12.5925 H   0  0  0  0  0  0  0  0  0  0  0  0
    1.0396    4.6766    9.8658 H   0  0  0  0  0  0  0  0  0  0  0  0
   -0.9949    5.9673   10.3279 H   0  0  0  0  0  0  0  0  0  0  0  0
   -3.4912    5.0470   12.5206 H   0  0  0  0  0  0  0  0  0  0  0  0
   -4.1972    4.6755   10.9527 H   0  0  0  0  0  0  0  0  0  0  0  0
   -3.2104    6.1304   11.1547 H   0  0  0  0  0  0  0  0  0  0  0  0
   -2.9173    2.4370   11.7517 H   0  0  0  0  0  0  0  0  0  0  0  0
   -0.8807    1.1411   11.3008 H   0  0  0  0  0  0  0  0  0  0  0  0
    1.8754    3.7285   12.4322 H   0  0  0  0  0  0  0  0  0  0  0  0
    4.0154    4.7867   12.9871 H   0  0  0  0  0  0  0  0  0  0  0  0
    6.7932    4.0326   12.6098 H   0  0  0  0  0  0  0  0  0  0  0  0
    7.1176    4.4363   10.9217 H   0  0  0  0  0  0  0  0  0  0  0  0
    6.2715    5.5853   11.9694 H   0  0  0  0  0  0  0  0  0  0  0  0
    5.8255    2.9235    9.6033 H   0  0  0  0  0  0  0  0  0  0  0  0
    3.6813    1.8839    9.0249 H   0  0  0  0  0  0  0  0  0  0  0  0
    1.2734   -4.7242    6.6524 H   0  0  0  0  0  0  0  0  0  0  0  0
    1.2523   -6.5436    8.2943 H   0  0  0  0  0  0  0  0  0  0  0  0
   -1.0500   -6.6899   11.2232 H   0  0  0  0  0  0  0  0  0  0  0  0
    0.7124   -6.6120   11.2331 H   0  0  0  0  0  0  0  0  0  0  0  0
   -0.1070   -7.6935   10.1106 H   0  0  0  0  0  0  0  0  0  0  0  0
   -1.6274   -4.4278   10.6209 H   0  0  0  0  0  0  0  0  0  0  0  0
   -1.6331   -2.6167    8.9689 H   0  0  0  0  0  0  0  0  0  0  0  0
    1.4551   -0.9641    5.3456 H   0  0  0  0  0  0  0  0  0  0  0  0
    1.9658   -1.2427    2.9603 H   0  0  0  0  0  0  0  0  0  0  0  0
    0.2287   -3.6251    0.7453 H   0  0  0  0  0  0  0  0  0  0  0  0
    1.9371   -3.8090    1.1309 H   0  0  0  0  0  0  0  0  0  0  0  0
    1.2871   -2.2056    0.8011 H   0  0  0  0  0  0  0  0  0  0  0  0
   -0.4721   -4.7404    2.8431 H   0  0  0  0  0  0  0  0  0  0  0  0
   -0.9953   -4.4615    5.2261 H   0  0  0  0  0  0  0  0  0  0  0  0
   -3.4262   -0.4245    8.4056 H   0  0  0  0  0  0  0  0  0  0  0  0
   -4.5115    0.5910   10.3700 H   0  0  0  0  0  0  0  0  0  0  0  0
   -5.5099    2.8307   10.2131 H   0  0  0  0  0  0  0  0  0  0  0  0
   -6.2574    4.5263    7.2119 H   0  0  0  0  0  0  0  0  0  0  0  0
   -6.0960    4.7456    8.9574 H   0  0  0  0  0  0  0  0  0  0  0  0
   -4.8752    6.5347    7.7902 H   0  0  0  0  0  0  0  0  0  0  0  0
   -3.7023    5.4806    8.5916 H   0  0  0  0  0  0  0  0  0  0  0  0
   -3.9570    5.3534    6.8552 H   0  0  0  0  0  0  0  0  0  0  0  0
   -4.3388    3.0619    6.1191 H   0  0  0  0  0  0  0  0  0  0  0  0
   -6.0312    2.9168   -6.9940 H   0  0  0  0  0  0  0  0  0  0  0  0
   -7.6407    3.6520   -8.7108 H   0  0  0  0  0  0  0  0  0  0  0  0
   -8.3864    2.0841  -10.4580 H   0  0  0  0  0  0  0  0  0  0  0  0
   -7.7097   -1.5124  -10.4148 H   0  0  0  0  0  0  0  0  0  0  0  0
   -8.6079   -0.2124  -11.2107 H   0  0  0  0  0  0  0  0  0  0  0  0
   -6.5132    0.5183  -12.3642 H   0  0  0  0  0  0  0  0  0  0  0  0
   -5.6199   -0.7675  -11.5688 H   0  0  0  0  0  0  0  0  0  0  0  0
   -6.8843   -1.1687  -12.7366 H   0  0  0  0  0  0  0  0  0  0  0  0
   -5.9475   -0.9716   -8.7560 H   0  0  0  0  0  0  0  0  0  0  0  0
   -1.6872   -1.4321    1.3738 H   0  0  0  0  0  0  0  0  0  0  0  0
   -2.6673   -1.8637   -0.0521 H   0  0  0  0  0  0  0  0  0  0  0  0
   -4.3406   -2.9564    1.4379 H   0  0  0  0  0  0  0  0  0  0  0  0
   -2.7374   -3.6961    1.5452 H   0  0  0  0  0  0  0  0  0  0  0  0
   -3.2973   -2.6290    2.8278 H   0  0  0  0  0  0  0  0  0  0  0  0
   -1.8754    0.3256   -2.7221 H   0  0  0  0  0  0  0  0  0  0  0  0
   -1.9541   -0.1744   -1.0311 H   0  0  0  0  0  0  0  0  0  0  0  0
   -2.4278   -2.5789   -1.9321 H   0  0  0  0  0  0  0  0  0  0  0  0
   -2.1175   -1.9381   -3.5384 H   0  0  0  0  0  0  0  0  0  0  0  0
   -0.8311   -1.9334   -2.3335 H   0  0  0  0  0  0  0  0  0  0  0  0
   -0.9968   -0.7202   -7.7030 H   0  0  0  0  0  0  0  0  0  0  0  0
    1.0629    0.6021   -7.9623 H   0  0  0  0  0  0  0  0  0  0  0  0
    2.9657   -0.2549   -6.6562 H   0  0  0  0  0  0  0  0  0  0  0  0
    4.2666   -2.1804   -7.4719 H   0  0  0  0  0  0  0  0  0  0  0  0
    6.2686   -3.8387  -10.4309 H   0  0  0  0  0  0  0  0  0  0  0  0
    6.0143   -2.8760   -8.9623 H   0  0  0  0  0  0  0  0  0  0  0  0
    5.2406   -1.9677  -11.7929 H   0  0  0  0  0  0  0  0  0  0  0  0
    5.1035   -1.0030  -10.3286 H   0  0  0  0  0  0  0  0  0  0  0  0
    6.7011   -1.4487  -10.9412 H   0  0  0  0  0  0  0  0  0  0  0  0
    1.7017   -2.4749  -10.8660 H   0  0  0  0  0  0  0  0  0  0  0  0
   -2.7537   -0.1421  -14.3701 H   0  0  0  0  0  0  0  0  0  0  0  0
   -4.6566    0.6716  -15.7022 H   0  0  0  0  0  0  0  0  0  0  0  0
   -6.0644    2.4926  -14.8877 H   0  0  0  0  0  0  0  0  0  0  0  0
   -7.3123    4.3502  -14.2753 H   0  0  0  0  0  0  0  0  0  0  0  0
   -7.7868    2.9367  -13.2895 H   0  0  0  0  0  0  0  0  0  0  0  0
   -9.4593    4.7845  -13.0585 H   0  0  0  0  0  0  0  0  0  0  0  0
   -8.1784    5.8740  -12.5109 H   0  0  0  0  0  0  0  0  0  0  0  0
   -8.6362    4.4891  -11.5195 H   0  0  0  0  0  0  0  0  0  0  0  0
   -3.6069    2.8295  -11.4102 H   0  0  0  0  0  0  0  0  0  0  0  0
   -0.7438    1.2492  -14.5555 H   0  0  0  0  0  0  0  0  0  0  0  0
    1.2053    1.1115  -15.9335 H   0  0  0  0  0  0  0  0  0  0  0  0
    9.3376   -1.0836  -17.5555 H   0  0  0  0  0  0  0  0  0  0  0  0
    9.8740   -2.1574  -15.2292 H   0  0  0  0  0  0  0  0  0  0  0  0
  1  2  2  0  0  0  0
  2  3  1  0  0  0  0
  3  4  2  0  0  0  0
  3  5  1  0  0  0  0
  5  6  2  0  0  0  0
  6  7  1  0  0  0  0
  7  8  2  0  0  0  0
  8  9  1  0  0  0  0
  9 10  2  0  0  0  0
 10 11  1  0  0  0  0
 11 12  2  0  0  0  0
 12 13  1  0  0  0  0
 13 14  3  0  0  0  0
 12 15  1  0  0  0  0
 15 16  3  0  0  0  0
  8 17  1  0  0  0  0
 17 18  1  0  0  0  0
 18 19  1  0  0  0  0
 19 20  2  0  0  0  0
 20 21  1  0  0  0  0
 21 22  1  0  0  0  0
 21 23  1  0  0  0  0
  1 24  1  0  0  0  0
 24 25  2  0  0  0  0
 25 26  1  0  0  0  0
 26 27  1  0  0  0  0
 27 28  2  0  0  0  0
 28 29  1  0  0  0  0
 29 30  2  0  0  0  0
 30 31  1  0  0  0  0
 30 32  1  0  0  0  0
 32 33  2  0  0  0  0
 26 34  1  0  0  0  0
 34 35  2  0  0  0  0
 35 36  1  0  0  0  0
 36 37  2  0  0  0  0
 37 38  1  0  0  0  0
 37 39  1  0  0  0  0
 39 40  2  0  0  0  0
 25 41  1  0  0  0  0
 41 42  1  0  0  0  0
 42 43  1  0  0  0  0
 43 44  2  0  0  0  0
 44 45  1  0  0  0  0
 45 46  1  0  0  0  0
 46 47  2  0  0  0  0
 47 48  1  0  0  0  0
 48 49  2  0  0  0  0
 49 50  1  0  0  0  0
 49 51  1  0  0  0  0
 51 52  2  0  0  0  0
 45 53  1  0  0  0  0
 53 54  2  0  0  0  0
 54 55  1  0  0  0  0
 55 56  2  0  0  0  0
 56 57  1  0  0  0  0
 56 58  1  0  0  0  0
 58 59  2  0  0  0  0
 44 60  1  0  0  0  0
 60 61  1  0  0  0  0
 43 62  1  0  0  0  0
 62 63  2  0  0  0  0
 63 64  1  0  0  0  0
 64 65  2  0  0  0  0
 65 66  1  0  0  0  0
 66 67  2  0  0  0  0
 67 68  1  0  0  0  0
 68 69  1  0  0  0  0
 69 70  1  0  0  0  0
 68 71  2  0  0  0  0
 63 72  1  0  0  0  0
 72 73  1  0  0  0  0
 73 74  1  0  0  0  0
 74 75  1  0  0  0  0
 75 76  1  0  0  0  0
 76 77  1  0  0  0  0
 77 78  2  0  0  0  0
 78 79  1  0  0  0  0
 79 80  1  0  0  0  0
 77 81  1  0  0  0  0
 81 82  1  0  0  0  0
 82 83  1  0  0  0  0
 83 84  1  0  0  0  0
 84 85  1  0  0  0  0
 85 86  1  0  0  0  0
 86 87  2  0  0  0  0
 87 88  1  0  0  0  0
 88 89  2  0  0  0  0
 89 90  1  0  0  0  0
 90 91  1  0  0  0  0
 91 92  1  0  0  0  0
 90 93  2  0  0  0  0
 85 94  2  0  0  0  0
 94 95  1  0  0  0  0
 95 96  1  0  0  0  0
 96 97  1  0  0  0  0
 97 98  1  0  0  0  0
 98 99  1  0  0  0  0
 99100  1  0  0  0  0
100101  1  0  0  0  0
101102  1  0  0  0  0
102103  1  0  0  0  0
103104  1  0  0  0  0
101105  1  0  0  0  0
105106  1  0  0  0  0
 98107  1  0  0  0  0
107108  1  0  0  0  0
 94109  1  0  0  0  0
109110  2  0  0  0  0
110111  1  0  0  0  0
111112  2  0  0  0  0
112113  1  0  0  0  0
113114  2  0  0  0  0
114115  1  0  0  0  0
115116  2  0  0  0  0
116117  1  0  0  0  0
117118  1  0  0  0  0
118119  1  0  0  0  0
119120  1  0  0  0  0
117121  2  0  0  0  0
112122  1  0  0  0  0
122123  2  0  0  0  0
123124  1  0  0  0  0
124125  1  0  0  0  0
125126  2  0  0  0  0
126127  1  0  0  0  0
127128  2  0  0  0  0
128129  1  0  0  0  0
129130  1  0  0  0  0
130131  1  0  0  0  0
131132  1  0  0  0  0
129133  2  0  0  0  0
124134  2  0  0  0  0
134135  1  0  0  0  0
123136  1  0  0  0  0
136137  2  0  0  0  0
137138  1  0  0  0  0
137139  1  0  0  0  0
139140  2  0  0  0  0
140141  1  0  0  0  0
141142  2  0  0  0  0
141143  1  0  0  0  0
143144  2  0  0  0  0
144145  1  0  0  0  0
145146  1  0  0  0  0
146147  1  0  0  0  0
147148  2  0  0  0  0
148149  1  0  0  0  0
149150  1  0  0  0  0
144151  1  0  0  0  0
151152  2  0  0  0  0
152153  1  0  0  0  0
153154  3  0  0  0  0
152155  1  0  0  0  0
155156  3  0  0  0  0
 11  2  1  0  0  0  0
 23 17  1  0  0  0  0
 61 24  1  0  0  0  0
104 62  1  0  0  0  0
135109  1  0  0  0  0
151140  1  0  0  0  0
 10  5  1  0  0  0  0
 22 18  1  0  0  0  0
 33 27  1  0  0  0  0
 40 34  1  0  0  0  0
 60 41  2  0  0  0  0
 71 64  1  0  0  0  0
103 72  2  0  0  0  0
134111  1  0  0  0  0
150143  1  0  0  0  0
 23  7  1  0  0  0  0
 52 46  1  0  0  0  0
 59 53  1  0  0  0  0
102 74  2  0  0  0  0
121113  1  0  0  0  0
138122  1  0  0  0  0
150146  2  0  0  0  0
100 75  2  0  0  0  0
133125  1  0  0  0  0
 80 76  2  0  0  0  0
 99 81  2  0  0  0  0
 97 82  2  0  0  0  0
 96 84  2  0  0  0  0
 93 86  1  0  0  0  0
  1157  1  0  0  0  0
  6158  1  0  0  0  0
  9159  1  0  0  0  0
 17160  1  0  0  0  0
 18161  1  0  0  0  0
 19162  1  0  0  0  0
 20163  1  0  0  0  0
 21164  1  0  0  0  0
 22165  1  0  0  0  0
 22166  1  0  0  0  0
 23167  1  0  0  0  0
 28168  1  0  0  0  0
 29169  1  0  0  0  0
 31170  1  0  0  0  0
 31171  1  0  0  0  0
 31172  1  0  0  0  0
 32173  1  0  0  0  0
 33174  1  0  0  0  0
 35175  1  0  0  0  0
 36176  1  0  0  0  0
 38177  1  0  0  0  0
 38178  1  0  0  0  0
 38179  1  0  0  0  0
 39180  1  0  0  0  0
 40181  1  0  0  0  0
 47182  1  0  0  0  0
 48183  1  0  0  0  0
 50184  1  0  0  0  0
 50185  1  0  0  0  0
 50186  1  0  0  0  0
 51187  1  0  0  0  0
 52188  1  0  0  0  0
 54189  1  0  0  0  0
 55190  1  0  0  0  0
 57191  1  0  0  0  0
 57192  1  0  0  0  0
 57193  1  0  0  0  0
 58194  1  0  0  0  0
 59195  1  0  0  0  0
 65196  1  0  0  0  0
 66197  1  0  0  0  0
 67198  1  0  0  0  0
 69199  1  0  0  0  0
 69200  1  0  0  0  0
 70201  1  0  0  0  0
 70202  1  0  0  0  0
 70203  1  0  0  0  0
 71204  1  0  0  0  0
 87205  1  0  0  0  0
 88206  1  0  0  0  0
 89207  1  0  0  0  0
 91208  1  0  0  0  0
 91209  1  0  0  0  0
 92210  1  0  0  0  0
 92211  1  0  0  0  0
 92212  1  0  0  0  0
 93213  1  0  0  0  0
105214  1  0  0  0  0
105215  1  0  0  0  0
106216  1  0  0  0  0
106217  1  0  0  0  0
106218  1  0  0  0  0
107219  1  0  0  0  0
107220  1  0  0  0  0
108221  1  0  0  0  0
108222  1  0  0  0  0
108223  1  0  0  0  0
110224  1  0  0  0  0
114225  1  0  0  0  0
115226  1  0  0  0  0
116227  1  0  0  0  0
119228  1  0  0  0  0
119229  1  0  0  0  0
120230  1  0  0  0  0
120231  1  0  0  0  0
120232  1  0  0  0  0
121233  1  0  0  0  0
126234  1  0  0  0  0
127235  1  0  0  0  0
128236  1  0  0  0  0
131237  1  0  0  0  0
131238  1  0  0  0  0
132239  1  0  0  0  0
132240  1  0  0  0  0
132241  1  0  0  0  0
133242  1  0  0  0  0
136243  1  0  0  0  0
139244  1  0  0  0  0
147245  1  0  0  0  0
148246  1  0  0  0  0
M  END
