259

C          2.75460       -3.88350       -4.22360
C          1.55570       -3.56800       -4.82510
C          1.03600       -2.22030       -5.06780
O          1.66710       -1.17750       -5.11540
C         -0.41410       -2.36660       -5.27090
C         -1.34680       -1.34320       -5.41590
C         -2.64320       -1.78810       -5.52170
C         -2.98700       -3.14550       -5.48770
C         -2.06800       -4.16630       -5.38520
C         -0.74400       -3.73720       -5.25560
C          0.48540       -4.50780       -5.05970
C          0.58200       -5.87990       -5.05870
C         -0.50980       -6.76540       -5.06520
N         -1.34280       -7.55530       -4.99740
C          1.79690       -6.59190       -5.06440
N          2.74490       -7.23980       -5.12090
C         -4.46660       -2.85080       -5.54540
C         -5.22580       -2.92450       -4.20010
C         -6.49980       -2.15590       -4.46410
C         -6.18580       -0.86900       -4.54560
C         -4.69320       -0.74640       -4.34100
C         -4.46800       -1.89570       -3.35310
C         -4.07970       -1.33860       -5.62610
C          3.69070       -3.04320       -3.61900
C          4.66070       -3.47470       -2.67650
N          4.84090       -4.75820       -2.22250
C          6.12340       -5.12290       -1.76700
C          6.28000       -5.83020       -0.57840
C          7.54070       -6.19150       -0.15070
C          8.67280       -5.86180       -0.88800
C         10.03010       -6.30150       -0.43360
C          8.50700       -5.14790       -2.06750
C          7.25080       -4.78200       -2.50850
C          3.78550       -5.67330       -2.04470
C          3.98780       -7.02140       -2.32300
C          2.95370       -7.92440       -2.16910
C          1.69540       -7.51120       -1.75210
C          0.55900       -8.48050       -1.64920
C          1.50950       -6.16460       -1.45250
C          2.53970       -5.25540       -1.57890
C          5.39480       -2.38710       -2.17580
S          6.55960       -2.17990       -0.89380
C          6.42270       -0.43030       -1.02150
C          5.57610       -0.05670       -2.05390
N          5.25980        1.27880       -2.39350
C          5.88390        1.67220       -3.60880
C          7.26000        1.86010       -3.62380
C          7.89970        2.20380       -4.79930
C          7.18630        2.36200       -5.98110
C          7.88070        2.76000       -7.24760
C          5.81220        2.15450       -5.95730
C          5.16230        1.80540       -4.78970
C          3.99110        1.76410       -2.06160
C          3.59430        3.03470       -2.47550
C          2.39670        3.57040       -2.04370
C          1.56300        2.87730       -1.17430
C          0.32380        3.50110       -0.61030
C          1.95500        1.60480       -0.78040
C          3.14580        1.05420       -1.20980
C          5.00560       -1.16290       -2.70320
S          3.72710       -1.29000       -3.84770
C          6.90300        0.45370       -0.01880
C          7.46090        0.15770        1.21910
C          8.06560       -1.12760        1.56690
C          9.00710       -1.71000        0.72010
C          9.59800       -2.90850        1.06800
C          9.26220       -3.53110        2.25740
C          8.33080       -2.96240        3.11600
C          8.00480       -3.59610        4.43740
C          8.82250       -2.94150        5.55280
C          7.74040       -1.75890        2.76150
C          7.33820        1.24620        2.10660
S          7.53310        1.40970        3.84650
C          6.68340        2.92750        3.78970
C          5.93680        3.76780        4.63890
C          5.64410        3.68610        6.02010
C          4.45420        4.32850        6.51950
N          4.24580        4.07360        7.80010
S          5.44320        3.12670        8.34170
N          6.26720        2.98730        6.95350
C          3.64570        5.07250        5.62970
C          2.29670        5.48550        5.69520
S          0.88490        5.25640        6.68660
C         -0.12720        5.73470        5.33410
C         -1.49650        5.54980        5.05610
C         -2.49620        5.14040        6.05160
C         -3.54740        5.99760        6.36600
C         -4.50370        5.60650        7.28360
C         -4.42450        4.36310        7.88550
C         -3.37400        3.50330        7.59300
C         -3.25080        2.17900        8.28830
C         -2.37750        2.31730        9.53720
C         -2.40840        3.90680        6.68110
C         -1.76530        5.73330        3.70880
S         -0.36360        6.30840        2.81720
C          0.61700        6.14970        4.22950
C          1.99210        6.03640        4.45080
N          3.09800        6.06220        3.63970
C          4.10140        5.37370        4.31640
C          5.21130        4.66110        3.79750
N          5.58070        4.42120        2.49070
C          6.39780        3.32930        2.48230
C          6.76310        2.37610        1.52620
S          6.37880        2.13030       -0.13890
C          5.04730        4.92480        1.25090
C          3.67920        4.32250        0.94760
C          3.20720        7.14120        2.67270
C          4.37800        8.06340        2.99670
C         -2.85860        5.18460        2.96930
C         -4.07280        4.75450        3.41790
C         -4.76730        3.93660        2.49310
C         -5.95870        3.23000        2.73070
C         -6.65270        3.38500        4.01620
C         -6.89320        2.27540        4.82490
C         -7.44390        2.42700        6.07650
C         -7.78320        3.69380        6.55640
O         -8.29400        3.73180        7.81410
C         -8.64700        4.97980        8.37650
C         -9.16690        4.72210        9.78200
C         -7.57690        4.80150        5.74070
C         -7.01050        4.64130        4.48950
C         -6.34800        2.33350        1.74990
C         -5.58540        2.09660        0.57510
C         -4.40770        2.82650        0.32300
C         -3.56470        2.55250       -0.84690
C         -3.09920        3.58940       -1.64790
C         -2.26130        3.34640       -2.72110
C         -1.85500        2.04650       -3.00950
O         -1.01710        1.70010       -4.01810
C         -0.22410        2.70760       -4.62230
C          0.81100        2.02930       -5.50580
C         -2.33460        0.99960       -2.21730
C         -3.17530        1.24670       -1.15500
C         -4.04290        3.74910        1.28950
S         -2.55990        4.66840        1.31060
C         -6.13490        1.05770       -0.20470
C         -7.27830        0.51780        0.31800
S         -7.77230        1.32680        1.79560
C         -8.00380       -0.58230       -0.21820
C         -7.37740       -1.68810       -0.70970
C         -6.00320       -2.09200       -0.30690
O         -5.14360       -1.42360        0.22830
C         -5.91580       -3.52930       -0.62420
C         -4.85940       -4.38130       -0.31340
C         -5.02430       -5.66550       -0.77110
C         -6.14770       -6.07440       -1.50410
C         -7.20800       -5.24780       -1.79630
C         -7.06950       -3.93890       -1.32260
C         -7.97380       -2.79920       -1.42170
C         -9.13390       -2.73340       -2.14650
C         -9.65970       -3.79800       -2.90480
N        -10.12950       -4.62770       -3.54470
C         -9.90980       -1.56170       -2.27070
N        -10.56890       -0.63540       -2.43060
C         -5.61530       -7.47600       -1.68310
C         -4.98110       -7.84530       -3.05040
C         -4.46330       -6.56200       -3.64840
C         -3.42040       -6.17160       -2.92790
C         -3.20520       -7.19430       -1.84090
C         -3.65820       -8.46600       -2.57360
C         -4.37720       -7.02390       -0.84660
H          2.95320       -4.93870       -4.09130
H         -1.04820       -0.30760       -5.39930
H         -2.34170       -5.20850       -5.38870
H         -5.02080       -3.29700       -6.36910
H         -5.33390       -3.92280       -3.78550
H         -7.45550       -2.61930       -4.62960
H         -6.83270       -0.04230       -4.77530
H         -4.31280        0.23340       -4.06330
H         -4.94800       -1.71000       -2.39590
H         -3.42200       -2.14340       -3.18600
H         -4.34260       -0.78490       -6.52520
H          5.40940       -6.08970        0.00550
H          7.64940       -6.73780        0.77480
H         10.13170       -6.18890        0.64340
H         10.17890       -7.35490       -0.67380
H         10.81220       -5.72950       -0.92650
H          9.37170       -4.88230       -2.65810
H          7.13550       -4.23990       -3.43580
H          4.95190       -7.35300       -2.67660
H          3.12340       -8.96400       -2.40350
H          0.92380       -9.50380       -1.62440
H         -0.09920       -8.37750       -2.51330
H         -0.02930       -8.29460       -0.75220
H          0.54310       -5.82370       -1.10840
H          2.38040       -4.21470       -1.33550
H          7.82280        1.73510       -2.71070
H          8.97020        2.35090       -4.79900
H          7.92650        3.84720       -7.32210
H          7.34550        2.38570       -8.11710
H          8.89940        2.37960       -7.26820
H          5.24240        2.25210       -6.87020
H          4.09850        1.62030       -4.79110
H          4.23850        3.61060       -3.12230
H          2.11730        4.56240       -2.37390
H         -0.02690        4.32280       -1.22940
H         -0.47520        2.76990       -0.51510
H          0.52800        3.89930        0.38460
H          1.32020        1.03910       -0.11370
H          3.42840        0.07030       -0.86560
H          9.28320       -1.21090       -0.19710
H         10.32900       -3.35510        0.41160
H          9.73300       -4.46520        2.52860
H          6.94160       -3.47350        4.65340
H          8.22650       -4.66460        4.40350
H          8.60450       -1.87740        5.60640
H          9.88650       -3.06320        5.36230
H          8.58730       -3.39420        6.51320
H          7.00790       -1.31100        3.41680
H         -3.60810        6.96420        5.88680
H         -5.31700        6.27540        7.52490
H         -5.18500        4.05420        8.58790
H         -2.80130        1.44780        7.61370
H         -4.24070        1.81860        8.57430
H         -2.81810        3.03130       10.22950
H         -2.28000        1.35880       10.04170
H         -1.38520        2.67170        9.26720
H         -1.58800        3.24640        6.43970
H          5.02470        6.01330        1.27920
H          5.74710        4.63400        0.46280
H          2.99620        4.45340        1.78250
H          3.25500        4.78420        0.06190
H          3.77880        3.25780        0.75400
H          3.27140        6.76180        1.65260
H          2.27310        7.70530        2.74050
H          4.25580        8.49120        3.98940
H          5.32190        7.52310        2.97570
H          4.42140        8.87260        2.27240
H         -4.44750        4.95690        4.40230
H         -6.61750        1.29150        4.47650
H         -7.61680        1.57510        6.71490
H         -9.42370        5.46320        7.76770
H         -7.76810        5.63900        8.41250
H         -8.39750        4.24250       10.38090
H        -10.03210        4.06620        9.74180
H         -9.45080        5.66030       10.25000
H         -7.84790        5.79290        6.06830
H         -6.85480        5.50880        3.86450
H         -3.40670        4.60350       -1.43820
H         -1.92710        4.17590       -3.32440
H         -0.85580        3.37980       -5.22090
H          0.27690        3.29210       -3.84030
H          1.32560        1.25270       -4.94590
H          0.33780        1.56990       -6.36980
H          1.53400        2.76340       -5.85070
H         -2.01180       -0.00360       -2.44800
H         -3.50620        0.42820       -0.53280
H         -5.73000        0.74290       -1.14890
H         -9.08510       -0.54260       -0.17180
H         -4.00240       -4.02430        0.23600
H         -8.07930       -5.57610       -2.33900
H         -6.23650       -8.27710       -1.28760
H         -5.61640       -8.45010       -3.69120
H         -4.92470       -6.06680       -4.48270
H         -2.84630       -5.26770       -3.01720
H         -2.22040       -7.20250       -1.38290
H         -2.99890       -8.72220       -3.40030
H         -3.78970       -9.32470       -1.91640
H         -4.19790       -7.52060        0.10500
