
  xtb     02272201243D
 energy: -373.278263095672 gnorm: 0.000308406023 xtb: 6.4.1 (unknown)
230256  0     0  0            999 V2000
    4.1090  -10.6202    2.6559 C   0  0  0  0  0  0  0  0  0  0  0  0
    5.1064   -9.9941    3.3720 C   0  0  0  0  0  0  0  0  0  0  0  0
    4.9579   -8.6685    4.0040 C   0  0  0  0  0  0  0  0  0  0  0  0
    3.9443   -8.0058    4.1391 O   0  0  0  0  0  0  0  0  0  0  0  0
    6.3247   -8.2427    4.3637 C   0  0  0  0  0  0  0  0  0  0  0  0
    6.6892   -7.0488    4.9794 C   0  0  0  0  0  0  0  0  0  0  0  0
    8.0403   -6.9217    5.1962 C   0  0  0  0  0  0  0  0  0  0  0  0
    8.9635   -7.9032    4.8146 C   0  0  0  0  0  0  0  0  0  0  0  0
    8.6156   -9.0878    4.2080 C   0  0  0  0  0  0  0  0  0  0  0  0
    7.2446   -9.2420    3.9896 C   0  0  0  0  0  0  0  0  0  0  0  0
    6.5006  -10.3574    3.4066 C   0  0  0  0  0  0  0  0  0  0  0  0
    7.0175  -11.5803    3.0552 C   0  0  0  0  0  0  0  0  0  0  0  0
    8.3844  -11.9130    3.1067 C   0  0  0  0  0  0  0  0  0  0  0  0
    9.4854  -12.2405    3.1206 N   0  0  0  0  0  0  0  0  0  0  0  0
    6.2280  -12.6751    2.6496 C   0  0  0  0  0  0  0  0  0  0  0  0
    5.6344  -13.6138    2.3557 N   0  0  0  0  0  0  0  0  0  0  0  0
   10.1399   -7.1048    5.3191 C   0  0  0  0  0  0  0  0  0  0  0  0
   11.0077   -6.3551    4.2781 C   0  0  0  0  0  0  0  0  0  0  0  0
   10.1122   -6.0640    3.0996 C   0  0  0  0  0  0  0  0  0  0  0  0
    9.2393   -5.1378    3.4726 C   0  0  0  0  0  0  0  0  0  0  0  0
    9.5280   -4.7868    4.9113 C   0  0  0  0  0  0  0  0  0  0  0  0
   11.0544   -4.9648    4.9325 C   0  0  0  0  0  0  0  0  0  0  0  0
    9.1093   -6.0159    5.7547 C   0  0  0  0  0  0  0  0  0  0  0  0
    2.7530  -10.2777    2.7331 C   0  0  0  0  0  0  0  0  0  0  0  0
    2.0193   -9.7080    3.7813 C   0  0  0  0  0  0  0  0  0  0  0  0
    2.2528   -9.8148    5.0987 O   0  0  0  0  0  0  0  0  0  0  0  0
    3.1803  -10.7599    5.5906 C   0  0  0  0  0  0  0  0  0  0  0  0
    2.7398  -11.1621    6.9903 C   0  0  0  0  0  0  0  0  0  0  0  0
    0.8202   -9.1080    3.3258 C   0  0  0  0  0  0  0  0  0  0  0  0
   -0.0522   -8.3505    4.0283 O   0  0  0  0  0  0  0  0  0  0  0  0
    0.4296   -7.5869    5.1320 C   0  0  0  0  0  0  0  0  0  0  0  0
   -0.0320   -8.1855    6.4532 C   0  0  0  0  0  0  0  0  0  0  0  0
    0.5571   -9.3511    1.9830 C   0  0  0  0  0  0  0  0  0  0  0  0
    1.7898  -10.3307    1.2585 S   0  0  0  0  0  0  0  0  0  0  0  0
   -0.5228   -8.7731    1.2695 C   0  0  0  0  0  0  0  0  0  0  0  0
   -1.0253   -9.0811    0.0139 C   0  0  0  0  0  0  0  0  0  0  0  0
   -0.6640  -10.2670   -0.7626 C   0  0  0  0  0  0  0  0  0  0  0  0
   -0.3672  -10.1491   -2.1170 C   0  0  0  0  0  0  0  0  0  0  0  0
   -0.0300  -11.2728   -2.8473 C   0  0  0  0  0  0  0  0  0  0  0  0
    0.0093  -12.5148   -2.2396 C   0  0  0  0  0  0  0  0  0  0  0  0
   -0.2973  -12.6529   -0.8910 C   0  0  0  0  0  0  0  0  0  0  0  0
   -0.3078  -14.0073   -0.2432 C   0  0  0  0  0  0  0  0  0  0  0  0
   -1.6791  -14.6661   -0.4044 C   0  0  0  0  0  0  0  0  0  0  0  0
   -0.6393  -11.5235   -0.1647 C   0  0  0  0  0  0  0  0  0  0  0  0
   -1.9451   -8.1076   -0.4157 C   0  0  0  0  0  0  0  0  0  0  0  0
   -2.8950   -7.9240   -1.8739 S   0  0  0  0  0  0  0  0  0  0  0  0
   -3.4870   -6.4093   -1.2753 C   0  0  0  0  0  0  0  0  0  0  0  0
   -4.2809   -5.3266   -1.6985 C   0  0  0  0  0  0  0  0  0  0  0  0
   -5.1224   -5.1173   -2.8149 C   0  0  0  0  0  0  0  0  0  0  0  0
   -5.8217   -3.8637   -2.9434 C   0  0  0  0  0  0  0  0  0  0  0  0
   -6.6084   -3.8332   -4.0062 N   0  0  0  0  0  0  0  0  0  0  0  0
   -6.4836   -5.2497   -4.7823 S   0  0  0  0  0  0  0  0  0  0  0  0
   -5.4153   -5.9586   -3.7927 N   0  0  0  0  0  0  0  0  0  0  0  0
   -5.5225   -2.8138   -2.0439 C   0  0  0  0  0  0  0  0  0  0  0  0
   -5.7584   -1.4288   -2.1003 C   0  0  0  0  0  0  0  0  0  0  0  0
   -6.5811   -0.2689   -3.0934 S   0  0  0  0  0  0  0  0  0  0  0  0
   -5.7737    1.0208   -2.2278 C   0  0  0  0  0  0  0  0  0  0  0  0
   -5.7487    2.4190   -2.3891 C   0  0  0  0  0  0  0  0  0  0  0  0
   -6.6214    3.1485   -3.3065 C   0  0  0  0  0  0  0  0  0  0  0  0
   -7.3180    4.2731   -2.8662 C   0  0  0  0  0  0  0  0  0  0  0  0
   -8.1968    4.9139   -3.7157 C   0  0  0  0  0  0  0  0  0  0  0  0
   -8.3940    4.4415   -5.0018 C   0  0  0  0  0  0  0  0  0  0  0  0
   -7.7013    3.3294   -5.4601 C   0  0  0  0  0  0  0  0  0  0  0  0
   -7.9423    2.7789   -6.8359 C   0  0  0  0  0  0  0  0  0  0  0  0
   -8.9379    1.6187   -6.7749 C   0  0  0  0  0  0  0  0  0  0  0  0
   -6.8200    2.6887   -4.6028 C   0  0  0  0  0  0  0  0  0  0  0  0
   -4.8348    3.0108   -1.5279 C   0  0  0  0  0  0  0  0  0  0  0  0
   -4.0817    1.8399   -0.4482 S   0  0  0  0  0  0  0  0  0  0  0  0
   -4.9465    0.5541   -1.2058 C   0  0  0  0  0  0  0  0  0  0  0  0
   -4.9646   -0.8410   -1.1102 C   0  0  0  0  0  0  0  0  0  0  0  0
   -4.3086   -1.8065   -0.3975 N   0  0  0  0  0  0  0  0  0  0  0  0
   -4.6374   -3.0268   -0.9524 C   0  0  0  0  0  0  0  0  0  0  0  0
   -4.1626   -4.3328   -0.6908 C   0  0  0  0  0  0  0  0  0  0  0  0
   -3.4119   -4.8319    0.3573 N   0  0  0  0  0  0  0  0  0  0  0  0
   -2.9888   -6.0842   -0.0092 C   0  0  0  0  0  0  0  0  0  0  0  0
   -2.1335   -7.0667    0.4973 C   0  0  0  0  0  0  0  0  0  0  0  0
   -1.2310   -7.3134    1.9496 S   0  0  0  0  0  0  0  0  0  0  0  0
   -3.5179   -4.4689    1.7533 C   0  0  0  0  0  0  0  0  0  0  0  0
   -4.3840   -5.4669    2.5214 C   0  0  0  0  0  0  0  0  0  0  0  0
   -3.2247   -1.4508    0.4897 C   0  0  0  0  0  0  0  0  0  0  0  0
   -3.7290   -0.8603    1.8063 C   0  0  0  0  0  0  0  0  0  0  0  0
   -4.2587    4.3032   -1.6211 C   0  0  0  0  0  0  0  0  0  0  0  0
   -3.3306    4.8643   -0.7469 C   0  0  0  0  0  0  0  0  0  0  0  0
   -3.0474    4.3864    0.5227 N   0  0  0  0  0  0  0  0  0  0  0  0
   -1.7104    4.4936    0.9563 C   0  0  0  0  0  0  0  0  0  0  0  0
   -1.3922    5.0786    2.1774 C   0  0  0  0  0  0  0  0  0  0  0  0
   -0.0708    5.2335    2.5419 C   0  0  0  0  0  0  0  0  0  0  0  0
    0.9600    4.8193    1.7058 C   0  0  0  0  0  0  0  0  0  0  0  0
    2.3866    5.0603    2.0896 C   0  0  0  0  0  0  0  0  0  0  0  0
    0.6320    4.2158    0.5001 C   0  0  0  0  0  0  0  0  0  0  0  0
   -0.6869    4.0486    0.1263 C   0  0  0  0  0  0  0  0  0  0  0  0
   -4.0613    4.0627    1.4277 C   0  0  0  0  0  0  0  0  0  0  0  0
   -3.8047    3.1626    2.4612 C   0  0  0  0  0  0  0  0  0  0  0  0
   -4.8048    2.8113    3.3457 C   0  0  0  0  0  0  0  0  0  0  0  0
   -6.0859    3.3336    3.2265 C   0  0  0  0  0  0  0  0  0  0  0  0
   -7.1788    2.9502    4.1771 C   0  0  0  0  0  0  0  0  0  0  0  0
   -6.3346    4.2323    2.1946 C   0  0  0  0  0  0  0  0  0  0  0  0
   -5.3427    4.5982    1.3086 C   0  0  0  0  0  0  0  0  0  0  0  0
   -2.6798    5.9765   -1.3279 C   0  0  0  0  0  0  0  0  0  0  0  0
   -1.3059    6.9169   -0.8719 S   0  0  0  0  0  0  0  0  0  0  0  0
   -1.3923    7.8005   -2.3979 C   0  0  0  0  0  0  0  0  0  0  0  0
   -2.4359    7.3237   -3.2306 C   0  0  0  0  0  0  0  0  0  0  0  0
   -2.6889    7.7332   -4.5159 N   0  0  0  0  0  0  0  0  0  0  0  0
   -4.0084    7.6665   -4.9998 C   0  0  0  0  0  0  0  0  0  0  0  0
   -4.2675    7.2002   -6.2854 C   0  0  0  0  0  0  0  0  0  0  0  0
   -5.5618    7.1719   -6.7625 C   0  0  0  0  0  0  0  0  0  0  0  0
   -6.6267    7.6012   -5.9789 C   0  0  0  0  0  0  0  0  0  0  0  0
   -8.0179    7.6271   -6.5310 C   0  0  0  0  0  0  0  0  0  0  0  0
   -6.3605    8.0467   -4.6905 C   0  0  0  0  0  0  0  0  0  0  0  0
   -5.0700    8.0845   -4.2019 C   0  0  0  0  0  0  0  0  0  0  0  0
   -1.6632    8.1170   -5.4014 C   0  0  0  0  0  0  0  0  0  0  0  0
   -0.4355    7.4576   -5.3977 C   0  0  0  0  0  0  0  0  0  0  0  0
    0.5834    7.8898   -6.2221 C   0  0  0  0  0  0  0  0  0  0  0  0
    0.4018    8.9627   -7.0886 C   0  0  0  0  0  0  0  0  0  0  0  0
    1.5250    9.4667   -7.9404 C   0  0  0  0  0  0  0  0  0  0  0  0
   -0.8458    9.5737   -7.1273 C   0  0  0  0  0  0  0  0  0  0  0  0
   -1.8680    9.1662   -6.2929 C   0  0  0  0  0  0  0  0  0  0  0  0
   -3.1470    6.2930   -2.5985 C   0  0  0  0  0  0  0  0  0  0  0  0
   -4.4310    5.2377   -3.1047 S   0  0  0  0  0  0  0  0  0  0  0  0
   -0.5280    8.8323   -2.7612 C   0  0  0  0  0  0  0  0  0  0  0  0
    0.7011    9.1833   -2.2512 C   0  0  0  0  0  0  0  0  0  0  0  0
    1.4077    8.5278   -1.1483 C   0  0  0  0  0  0  0  0  0  0  0  0
    0.9525    7.7622   -0.3151 O   0  0  0  0  0  0  0  0  0  0  0  0
    2.8093    8.9823   -1.2345 C   0  0  0  0  0  0  0  0  0  0  0  0
    3.8750    8.5781   -0.4360 C   0  0  0  0  0  0  0  0  0  0  0  0
    5.0765    9.1560   -0.7702 C   0  0  0  0  0  0  0  0  0  0  0  0
    5.2067   10.0772   -1.8166 C   0  0  0  0  0  0  0  0  0  0  0  0
    4.1599   10.4931   -2.6061 C   0  0  0  0  0  0  0  0  0  0  0  0
    2.9316    9.9080   -2.2899 C   0  0  0  0  0  0  0  0  0  0  0  0
    1.6138   10.0947   -2.8969 C   0  0  0  0  0  0  0  0  0  0  0  0
    1.3197   10.9743   -3.9121 C   0  0  0  0  0  0  0  0  0  0  0  0
    0.0232   11.2802   -4.3674 C   0  0  0  0  0  0  0  0  0  0  0  0
   -0.9998   11.6214   -4.7668 N   0  0  0  0  0  0  0  0  0  0  0  0
    2.2770   11.7091   -4.6351 C   0  0  0  0  0  0  0  0  0  0  0  0
    2.9997   12.3045   -5.3018 N   0  0  0  0  0  0  0  0  0  0  0  0
    6.6915   10.2337   -1.6004 C   0  0  0  0  0  0  0  0  0  0  0  0
    7.6438    9.5057   -2.5812 C   0  0  0  0  0  0  0  0  0  0  0  0
    6.8861    8.3133   -3.1097 C   0  0  0  0  0  0  0  0  0  0  0  0
    6.7625    7.4405   -2.1188 C   0  0  0  0  0  0  0  0  0  0  0  0
    7.4344    8.0273   -0.9022 C   0  0  0  0  0  0  0  0  0  0  0  0
    8.5736    8.8105   -1.5738 C   0  0  0  0  0  0  0  0  0  0  0  0
    6.5461    9.2066   -0.4336 C   0  0  0  0  0  0  0  0  0  0  0  0
    4.3824  -11.3257    1.8810 H   0  0  0  0  0  0  0  0  0  0  0  0
    5.9458   -6.3161    5.2529 H   0  0  0  0  0  0  0  0  0  0  0  0
    9.3361   -9.8350    3.9190 H   0  0  0  0  0  0  0  0  0  0  0  0
   10.7405   -7.5781    6.0936 H   0  0  0  0  0  0  0  0  0  0  0  0
   11.9564   -6.8347    4.0528 H   0  0  0  0  0  0  0  0  0  0  0  0
   10.1668   -6.5869    2.1628 H   0  0  0  0  0  0  0  0  0  0  0  0
    8.4187   -4.7326    2.9100 H   0  0  0  0  0  0  0  0  0  0  0  0
    9.1294   -3.8391    5.2642 H   0  0  0  0  0  0  0  0  0  0  0  0
   11.4763   -4.9718    5.9366 H   0  0  0  0  0  0  0  0  0  0  0  0
   11.5729   -4.2281    4.3207 H   0  0  0  0  0  0  0  0  0  0  0  0
    9.0323   -5.7854    6.8158 H   0  0  0  0  0  0  0  0  0  0  0  0
    3.2187  -11.6330    4.9264 H   0  0  0  0  0  0  0  0  0  0  0  0
    4.1849  -10.3161    5.6277 H   0  0  0  0  0  0  0  0  0  0  0  0
    3.4509  -11.8707    7.4045 H   0  0  0  0  0  0  0  0  0  0  0  0
    1.7568  -11.6254    6.9585 H   0  0  0  0  0  0  0  0  0  0  0  0
    2.6952  -10.2862    7.6319 H   0  0  0  0  0  0  0  0  0  0  0  0
   -0.0048   -6.5898    4.9995 H   0  0  0  0  0  0  0  0  0  0  0  0
    1.5184   -7.5103    5.0933 H   0  0  0  0  0  0  0  0  0  0  0  0
    0.2821   -7.5449    7.2724 H   0  0  0  0  0  0  0  0  0  0  0  0
   -1.1160   -8.2709    6.4636 H   0  0  0  0  0  0  0  0  0  0  0  0
    0.4017   -9.1716    6.5882 H   0  0  0  0  0  0  0  0  0  0  0  0
   -0.3855   -9.1778   -2.5874 H   0  0  0  0  0  0  0  0  0  0  0  0
    0.2061  -11.1780   -3.8969 H   0  0  0  0  0  0  0  0  0  0  0  0
    0.2794  -13.3881   -2.8157 H   0  0  0  0  0  0  0  0  0  0  0  0
   -0.0751  -13.9105    0.8189 H   0  0  0  0  0  0  0  0  0  0  0  0
    0.4529  -14.6411   -0.7025 H   0  0  0  0  0  0  0  0  0  0  0  0
   -1.6872  -15.6481    0.0628 H   0  0  0  0  0  0  0  0  0  0  0  0
   -2.4498  -14.0537    0.0586 H   0  0  0  0  0  0  0  0  0  0  0  0
   -1.9223  -14.7804   -1.4584 H   0  0  0  0  0  0  0  0  0  0  0  0
   -0.9024  -11.6183    0.8796 H   0  0  0  0  0  0  0  0  0  0  0  0
   -7.1822    4.6215   -1.8528 H   0  0  0  0  0  0  0  0  0  0  0  0
   -8.7432    5.7785   -3.3683 H   0  0  0  0  0  0  0  0  0  0  0  0
   -9.0988    4.9350   -5.6543 H   0  0  0  0  0  0  0  0  0  0  0  0
   -8.3369    3.5618   -7.4867 H   0  0  0  0  0  0  0  0  0  0  0  0
   -7.0015    2.4227   -7.2603 H   0  0  0  0  0  0  0  0  0  0  0  0
   -9.1108    1.2123   -7.7687 H   0  0  0  0  0  0  0  0  0  0  0  0
   -9.8879    1.9577   -6.3677 H   0  0  0  0  0  0  0  0  0  0  0  0
   -8.5557    0.8261   -6.1358 H   0  0  0  0  0  0  0  0  0  0  0  0
   -6.2735    1.8234   -4.9485 H   0  0  0  0  0  0  0  0  0  0  0  0
   -3.9774   -3.4871    1.8233 H   0  0  0  0  0  0  0  0  0  0  0  0
   -2.5140   -4.4408    2.1896 H   0  0  0  0  0  0  0  0  0  0  0  0
   -5.3674   -5.5424    2.0619 H   0  0  0  0  0  0  0  0  0  0  0  0
   -3.9254   -6.4514    2.5318 H   0  0  0  0  0  0  0  0  0  0  0  0
   -4.5019   -5.1307    3.5479 H   0  0  0  0  0  0  0  0  0  0  0  0
   -2.5972   -2.3265    0.6548 H   0  0  0  0  0  0  0  0  0  0  0  0
   -2.6163   -0.6920   -0.0162 H   0  0  0  0  0  0  0  0  0  0  0  0
   -4.2333    0.0856    1.6262 H   0  0  0  0  0  0  0  0  0  0  0  0
   -2.8883   -0.6788    2.4697 H   0  0  0  0  0  0  0  0  0  0  0  0
   -4.4300   -1.5270    2.3037 H   0  0  0  0  0  0  0  0  0  0  0  0
   -2.1837    5.4271    2.8246 H   0  0  0  0  0  0  0  0  0  0  0  0
    0.1671    5.7060    3.4839 H   0  0  0  0  0  0  0  0  0  0  0  0
    3.0629    4.4642    1.4818 H   0  0  0  0  0  0  0  0  0  0  0  0
    2.5538    4.8282    3.1399 H   0  0  0  0  0  0  0  0  0  0  0  0
    2.6231    6.1131    1.9367 H   0  0  0  0  0  0  0  0  0  0  0  0
    1.4174    3.8796   -0.1614 H   0  0  0  0  0  0  0  0  0  0  0  0
   -0.9352    3.5844   -0.8176 H   0  0  0  0  0  0  0  0  0  0  0  0
   -2.8176    2.7355    2.5566 H   0  0  0  0  0  0  0  0  0  0  0  0
   -4.5854    2.1093    4.1377 H   0  0  0  0  0  0  0  0  0  0  0  0
   -8.0123    2.5010    3.6381 H   0  0  0  0  0  0  0  0  0  0  0  0
   -6.8195    2.2390    4.9165 H   0  0  0  0  0  0  0  0  0  0  0  0
   -7.5563    3.8301    4.6968 H   0  0  0  0  0  0  0  0  0  0  0  0
   -7.3226    4.6573    2.0886 H   0  0  0  0  0  0  0  0  0  0  0  0
   -5.5553    5.3081    0.5228 H   0  0  0  0  0  0  0  0  0  0  0  0
   -3.4491    6.8636   -6.9044 H   0  0  0  0  0  0  0  0  0  0  0  0
   -5.7492    6.8099   -7.7629 H   0  0  0  0  0  0  0  0  0  0  0  0
   -8.7539    7.5503   -5.7350 H   0  0  0  0  0  0  0  0  0  0  0  0
   -8.1676    6.8152   -7.2385 H   0  0  0  0  0  0  0  0  0  0  0  0
   -8.1881    8.5668   -7.0584 H   0  0  0  0  0  0  0  0  0  0  0  0
   -7.1728    8.3848   -4.0640 H   0  0  0  0  0  0  0  0  0  0  0  0
   -4.8744    8.4549   -3.2062 H   0  0  0  0  0  0  0  0  0  0  0  0
   -0.2792    6.6215   -4.7317 H   0  0  0  0  0  0  0  0  0  0  0  0
    1.5370    7.3820   -6.1941 H   0  0  0  0  0  0  0  0  0  0  0  0
    2.2974    8.7102   -8.0572 H   0  0  0  0  0  0  0  0  0  0  0  0
    1.1634    9.7599   -8.9235 H   0  0  0  0  0  0  0  0  0  0  0  0
    1.9767   10.3453   -7.4771 H   0  0  0  0  0  0  0  0  0  0  0  0
   -1.0123   10.4014   -7.7999 H   0  0  0  0  0  0  0  0  0  0  0  0
   -2.8200    9.6736   -6.3102 H   0  0  0  0  0  0  0  0  0  0  0  0
   -0.8438    9.3819   -3.6381 H   0  0  0  0  0  0  0  0  0  0  0  0
    3.7318    7.8668    0.3624 H   0  0  0  0  0  0  0  0  0  0  0  0
    4.2746   11.2054   -3.4062 H   0  0  0  0  0  0  0  0  0  0  0  0
    7.0361   11.2367   -1.3563 H   0  0  0  0  0  0  0  0  0  0  0  0
    8.1038   10.1500   -3.3257 H   0  0  0  0  0  0  0  0  0  0  0  0
    6.4795    8.2546   -4.1023 H   0  0  0  0  0  0  0  0  0  0  0  0
    6.2315    6.5065   -2.1182 H   0  0  0  0  0  0  0  0  0  0  0  0
    7.7046    7.3252   -0.1174 H   0  0  0  0  0  0  0  0  0  0  0  0
    9.0797    9.5022   -0.9016 H   0  0  0  0  0  0  0  0  0  0  0  0
    9.3054    8.1620   -2.0534 H   0  0  0  0  0  0  0  0  0  0  0  0
    6.7963    9.5399    0.5719 H   0  0  0  0  0  0  0  0  0  0  0  0
  1  2  2  0  0  0  0
  2  3  1  0  0  0  0
  3  4  2  0  0  0  0
  3  5  1  0  0  0  0
  5  6  2  0  0  0  0
  6  7  1  0  0  0  0
  7  8  2  0  0  0  0
  8  9  1  0  0  0  0
  9 10  2  0  0  0  0
 10 11  1  0  0  0  0
 11 12  2  0  0  0  0
 12 13  1  0  0  0  0
 13 14  3  0  0  0  0
 12 15  1  0  0  0  0
 15 16  3  0  0  0  0
  8 17  1  0  0  0  0
 17 18  1  0  0  0  0
 18 19  1  0  0  0  0
 19 20  2  0  0  0  0
 20 21  1  0  0  0  0
 21 22  1  0  0  0  0
 21 23  1  0  0  0  0
  1 24  1  0  0  0  0
 24 25  2  0  0  0  0
 25 26  1  0  0  0  0
 26 27  1  0  0  0  0
 27 28  1  0  0  0  0
 25 29  1  0  0  0  0
 29 30  1  0  0  0  0
 30 31  1  0  0  0  0
 31 32  1  0  0  0  0
 29 33  2  0  0  0  0
 33 34  1  0  0  0  0
 33 35  1  0  0  0  0
 35 36  2  0  0  0  0
 36 37  1  0  0  0  0
 37 38  2  0  0  0  0
 38 39  1  0  0  0  0
 39 40  2  0  0  0  0
 40 41  1  0  0  0  0
 41 42  1  0  0  0  0
 42 43  1  0  0  0  0
 41 44  2  0  0  0  0
 36 45  1  0  0  0  0
 45 46  1  0  0  0  0
 46 47  1  0  0  0  0
 47 48  1  0  0  0  0
 48 49  1  0  0  0  0
 49 50  1  0  0  0  0
 50 51  2  0  0  0  0
 51 52  1  0  0  0  0
 52 53  1  0  0  0  0
 50 54  1  0  0  0  0
 54 55  1  0  0  0  0
 55 56  1  0  0  0  0
 56 57  1  0  0  0  0
 57 58  1  0  0  0  0
 58 59  1  0  0  0  0
 59 60  2  0  0  0  0
 60 61  1  0  0  0  0
 61 62  2  0  0  0  0
 62 63  1  0  0  0  0
 63 64  1  0  0  0  0
 64 65  1  0  0  0  0
 63 66  2  0  0  0  0
 58 67  2  0  0  0  0
 67 68  1  0  0  0  0
 68 69  1  0  0  0  0
 69 70  1  0  0  0  0
 70 71  1  0  0  0  0
 71 72  1  0  0  0  0
 72 73  1  0  0  0  0
 73 74  1  0  0  0  0
 74 75  1  0  0  0  0
 75 76  1  0  0  0  0
 76 77  1  0  0  0  0
 74 78  1  0  0  0  0
 78 79  1  0  0  0  0
 71 80  1  0  0  0  0
 80 81  1  0  0  0  0
 67 82  1  0  0  0  0
 82 83  2  0  0  0  0
 83 84  1  0  0  0  0
 84 85  1  0  0  0  0
 85 86  2  0  0  0  0
 86 87  1  0  0  0  0
 87 88  2  0  0  0  0
 88 89  1  0  0  0  0
 88 90  1  0  0  0  0
 90 91  2  0  0  0  0
 84 92  1  0  0  0  0
 92 93  2  0  0  0  0
 93 94  1  0  0  0  0
 94 95  2  0  0  0  0
 95 96  1  0  0  0  0
 95 97  1  0  0  0  0
 97 98  2  0  0  0  0
 83 99  1  0  0  0  0
 99100  1  0  0  0  0
100101  1  0  0  0  0
101102  2  0  0  0  0
102103  1  0  0  0  0
103104  1  0  0  0  0
104105  2  0  0  0  0
105106  1  0  0  0  0
106107  2  0  0  0  0
107108  1  0  0  0  0
107109  1  0  0  0  0
109110  2  0  0  0  0
103111  1  0  0  0  0
111112  2  0  0  0  0
112113  1  0  0  0  0
113114  2  0  0  0  0
114115  1  0  0  0  0
114116  1  0  0  0  0
116117  2  0  0  0  0
102118  1  0  0  0  0
118119  1  0  0  0  0
101120  1  0  0  0  0
120121  2  0  0  0  0
121122  1  0  0  0  0
122123  2  0  0  0  0
122124  1  0  0  0  0
124125  2  0  0  0  0
125126  1  0  0  0  0
126127  2  0  0  0  0
127128  1  0  0  0  0
128129  2  0  0  0  0
129130  1  0  0  0  0
130131  2  0  0  0  0
131132  1  0  0  0  0
132133  3  0  0  0  0
131134  1  0  0  0  0
134135  3  0  0  0  0
127136  1  0  0  0  0
136137  1  0  0  0  0
137138  1  0  0  0  0
138139  2  0  0  0  0
139140  1  0  0  0  0
140141  1  0  0  0  0
140142  1  0  0  0  0
 11  2  1  0  0  0  0
 23 17  1  0  0  0  0
 34 24  1  0  0  0  0
 77 35  1  0  0  0  0
119 82  1  0  0  0  0
130121  1  0  0  0  0
142136  1  0  0  0  0
 10  5  1  0  0  0  0
 22 18  1  0  0  0  0
 44 37  1  0  0  0  0
 76 45  2  0  0  0  0
 91 85  1  0  0  0  0
 98 92  1  0  0  0  0
118 99  2  0  0  0  0
129124  1  0  0  0  0
141137  1  0  0  0  0
 23  7  1  0  0  0  0
 75 47  2  0  0  0  0
110104  1  0  0  0  0
117111  1  0  0  0  0
142126  1  0  0  0  0
 73 48  2  0  0  0  0
 53 49  2  0  0  0  0
 72 54  2  0  0  0  0
 70 55  2  0  0  0  0
 69 57  2  0  0  0  0
 66 59  1  0  0  0  0
  1143  1  0  0  0  0
  6144  1  0  0  0  0
  9145  1  0  0  0  0
 17146  1  0  0  0  0
 18147  1  0  0  0  0
 19148  1  0  0  0  0
 20149  1  0  0  0  0
 21150  1  0  0  0  0
 22151  1  0  0  0  0
 22152  1  0  0  0  0
 23153  1  0  0  0  0
 27154  1  0  0  0  0
 27155  1  0  0  0  0
 28156  1  0  0  0  0
 28157  1  0  0  0  0
 28158  1  0  0  0  0
 31159  1  0  0  0  0
 31160  1  0  0  0  0
 32161  1  0  0  0  0
 32162  1  0  0  0  0
 32163  1  0  0  0  0
 38164  1  0  0  0  0
 39165  1  0  0  0  0
 40166  1  0  0  0  0
 42167  1  0  0  0  0
 42168  1  0  0  0  0
 43169  1  0  0  0  0
 43170  1  0  0  0  0
 43171  1  0  0  0  0
 44172  1  0  0  0  0
 60173  1  0  0  0  0
 61174  1  0  0  0  0
 62175  1  0  0  0  0
 64176  1  0  0  0  0
 64177  1  0  0  0  0
 65178  1  0  0  0  0
 65179  1  0  0  0  0
 65180  1  0  0  0  0
 66181  1  0  0  0  0
 78182  1  0  0  0  0
 78183  1  0  0  0  0
 79184  1  0  0  0  0
 79185  1  0  0  0  0
 79186  1  0  0  0  0
 80187  1  0  0  0  0
 80188  1  0  0  0  0
 81189  1  0  0  0  0
 81190  1  0  0  0  0
 81191  1  0  0  0  0
 86192  1  0  0  0  0
 87193  1  0  0  0  0
 89194  1  0  0  0  0
 89195  1  0  0  0  0
 89196  1  0  0  0  0
 90197  1  0  0  0  0
 91198  1  0  0  0  0
 93199  1  0  0  0  0
 94200  1  0  0  0  0
 96201  1  0  0  0  0
 96202  1  0  0  0  0
 96203  1  0  0  0  0
 97204  1  0  0  0  0
 98205  1  0  0  0  0
105206  1  0  0  0  0
106207  1  0  0  0  0
108208  1  0  0  0  0
108209  1  0  0  0  0
108210  1  0  0  0  0
109211  1  0  0  0  0
110212  1  0  0  0  0
112213  1  0  0  0  0
113214  1  0  0  0  0
115215  1  0  0  0  0
115216  1  0  0  0  0
115217  1  0  0  0  0
116218  1  0  0  0  0
117219  1  0  0  0  0
120220  1  0  0  0  0
125221  1  0  0  0  0
128222  1  0  0  0  0
136223  1  0  0  0  0
137224  1  0  0  0  0
138225  1  0  0  0  0
139226  1  0  0  0  0
140227  1  0  0  0  0
141228  1  0  0  0  0
141229  1  0  0  0  0
142230  1  0  0  0  0
M  END
