240

C         -3.51300      -10.39710       -1.80340
C         -4.39610      -10.45260       -2.83250
C         -4.98750      -11.76670       -3.21550
O         -4.87370      -12.80940       -2.61110
C         -5.69320      -11.52670       -4.48700
C         -6.30310      -12.47470       -5.30820
C         -6.87640      -11.94860       -6.44030
C         -6.83970      -10.58020       -6.74300
C         -6.24720       -9.63460       -5.94210
C         -5.66460      -10.14850       -4.78060
C         -4.97170       -9.44990       -3.70070
C         -5.10060       -8.11420       -3.42610
C         -4.56010       -7.47290       -2.29420
N         -4.17400       -6.88560       -1.38610
C         -5.88710       -7.22820       -4.19100
N         -6.54700       -6.47020       -4.74700
C         -7.60330      -10.76240       -8.03090
C         -9.09270      -10.35890       -8.00930
C         -9.68010      -11.07800       -9.20200
C         -9.72100      -12.37230       -8.91250
C         -9.16210      -12.54970       -7.51900
C         -9.63570      -11.23950       -6.87650
C         -7.65080      -12.28670       -7.69080
C         -2.54890       -9.39920       -1.49060
C         -1.63160       -8.78240       -2.33210
N         -1.47410       -9.06250       -3.69630
C         -0.31360       -9.75550       -4.06390
C          0.36220       -9.46620       -5.24690
C          1.49720      -10.17340       -5.59100
C          1.99850      -11.17580       -4.77110
C          3.23920      -11.93370       -5.13390
C          1.32460      -11.45110       -3.58710
C          0.18620      -10.75700       -3.23250
C         -2.22210       -8.36390       -4.65360
C         -2.64550       -9.01260       -5.81060
C         -3.38980       -8.33190       -6.75390
C         -3.74030       -6.99990       -6.56740
C         -4.58630       -6.26560       -7.55970
C         -3.30990       -6.35980       -5.41040
C         -2.55690       -7.02610       -4.46260
C         -0.73560       -7.97860       -1.59730
S          0.53910       -6.90620       -2.05680
C          0.73210       -6.41250       -0.38420
C         -0.17720       -7.01620        0.47170
N         -0.33330       -6.70470        1.81080
C         -0.67760       -7.71620        2.71710
C         -0.15000       -8.99540        2.57230
C         -0.49110       -9.99300        3.46340
C         -1.35640       -9.74570        4.52080
C         -1.73920      -10.83460        5.47590
C         -1.87670       -8.46370        4.65910
C         -1.55010       -7.45890        3.77160
C         -0.19930       -5.37820        2.25030
C          0.42230       -5.09750        3.46570
C          0.62460       -3.79080        3.85810
C          0.20510       -2.72770        3.06450
C          0.46590       -1.31370        3.48750
C         -0.46620       -3.01590        1.88500
C         -0.67140       -4.32110        1.47840
C         -0.98330       -7.94240       -0.23330
S         -2.27750       -8.99580        0.19780
C          1.70240       -5.43710        0.02390
C          2.56990       -5.57160        1.08840
C          2.89560       -6.86630        1.68350
C          3.14910       -6.99390        3.04610
C          3.43520       -8.23540        3.58120
C          3.49980       -9.35330        2.76800
C          3.29520       -9.23960        1.39850
C          3.38260      -10.43770        0.49460
C          1.99520      -10.97990        0.14820
C          2.98750       -7.99490        0.87180
C          3.10860       -4.32020        1.46150
S          4.13670       -3.79900        2.77250
C          3.94170       -2.15650        2.25780
C          4.30800       -0.85480        2.65620
C          5.19220       -0.34120        3.63230
C          5.43560        1.08020        3.68890
N          6.33970        1.39820        4.60140
S          6.83640        0.04250        5.33310
N          5.91870       -1.00950        4.51390
C          4.67100        1.94670        2.87430
C          4.53580        3.34780        2.80350
S          5.24950        4.77660        3.47640
C          4.09540        5.74520        2.59100
C          3.89420        7.13570        2.49120
C          4.72430        8.11580        3.20200
C          4.81160        8.07110        4.58870
C          5.58070        9.00450        5.25790
C          6.26220        9.98120        4.55370
C          6.20200       10.02700        3.16690
C          6.97240       11.05950        2.39620
C          8.36840       10.54040        2.04700
C          5.44190        9.07810        2.50030
C          2.83180        7.43290        1.65850
S          2.09780        5.98630        0.96790
C          3.21510        4.98450        1.82110
C          3.47160        3.61470        1.93610
N          2.95690        2.44270        1.43740
C          3.70440        1.41550        1.98480
C          3.65380        0.02530        1.75800
N          2.97670       -0.70550        0.79990
C          3.14520       -2.02960        1.11690
C          2.67800       -3.26590        0.65790
S          1.62940       -3.79950       -0.60340
C          2.71470       -0.29710       -0.56470
C          3.75980       -0.86680       -1.52350
C          1.56090        2.36760        1.05590
C          0.64820        2.73870        2.22480
C          2.22460        8.68430        1.35150
C          1.14190        8.87260        0.53620
C          0.72740       10.22100        0.43330
C         -0.32950       10.74960       -0.32660
C         -1.15410        9.89290       -1.19010
C         -0.55820        9.05420       -2.12830
C         -1.33320        8.25160       -2.94210
C         -2.71910        8.26160       -2.84340
C         -3.55470        7.34910       -3.69390
C         -3.75560        6.00320       -2.99410
C         -3.31040        9.10090       -1.90780
C         -2.54210        9.91000       -1.09350
C         -0.53820       12.11640       -0.22920
C          0.28420       12.97780        0.54940
C          1.35510       12.44690        1.29570
C          2.27500       13.29270        2.06500
C          2.88920       14.39410        1.47470
C          3.80060       15.15010        2.18540
C          4.11890       14.83570        3.50030
C          5.14820       15.62410        4.25750
C          6.50880       14.92750        4.18860
C          3.49810       13.74090        4.08920
C          2.59000       12.97710        3.38440
C          1.52530       11.07570        1.23560
S          2.77860       10.18590        2.06430
C         -0.12470       14.32390        0.47080
C         -1.20580       14.52620       -0.35080
S         -1.77380       13.01360       -1.06130
C         -1.90740       15.70480       -0.68920
C         -1.69840       17.00530       -0.34250
C         -2.63140       18.03770       -0.85560
O         -3.59060       17.85230       -1.57240
C         -2.15180       19.33040       -0.31540
C         -2.66420       20.60350       -0.48090
C         -2.01200       21.65780        0.14540
C         -0.87730       21.44030        0.91520
C         -0.36080       20.16210        1.08230
C         -1.00880       19.11090        0.46100
C         -0.67010       17.66500        0.48020
O          0.27760       17.17700        1.06320
H         -3.49930      -11.27630       -1.16350
H         -6.30350      -13.52010       -5.04210
H         -6.21370       -8.58710       -6.18900
H         -7.08990      -10.44730       -8.93750
H         -9.27300       -9.28950       -7.94290
H         -9.94520      -10.59440      -10.12390
H        -10.02700      -13.18550       -9.54430
H         -9.40810      -13.47650       -7.00780
H         -9.19150      -11.03510       -5.90420
H        -10.72040      -11.18790       -6.79940
H         -7.17210      -12.98830       -8.37160
H         -0.00030       -8.68030       -5.89240
H          2.00690       -9.93260       -6.51290
H          3.51010      -11.76200       -6.17250
H          3.09580      -13.00180       -4.98000
H          4.07190      -11.61570       -4.50590
H          1.69340      -12.23130       -2.93710
H         -0.32840      -10.99790       -2.31390
H         -2.38590      -10.05060       -5.96000
H         -3.71350       -8.85110       -7.64490
H         -4.80520       -6.88720       -8.42450
H         -5.52510       -5.96880       -7.09080
H         -4.08400       -5.36000       -7.89630
H         -3.57040       -5.32390       -5.24960
H         -2.22260       -6.51030       -3.57480
H          0.54400       -9.19190        1.77110
H         -0.06860      -10.98020        3.34070
H         -0.96540      -11.59710        5.52610
H         -1.90660      -10.43450        6.47340
H         -2.66280      -11.31170        5.14620
H         -2.55550       -8.25060        5.47240
H         -1.97010       -6.47090        3.88790
H          0.75630       -5.91430        4.08710
H          1.13340       -3.58800        4.78940
H          0.20360       -0.61790        2.69390
H          1.51690       -1.17850        3.74060
H         -0.12310       -1.06710        4.37100
H         -0.82990       -2.20910        1.26440
H         -1.19470       -4.52490        0.55550
H          3.11590       -6.12290        3.68140
H          3.61650       -8.33120        4.64150
H          3.72900      -10.31850        3.19630
H          3.96400      -11.22280        0.98190
H          3.89320      -10.15870       -0.43020
H          2.08170      -11.85140       -0.49590
H          1.41020      -10.22570       -0.37490
H          1.46280      -11.27200        1.05080
H          2.84360       -7.89590       -0.19480
H          4.26560        7.31700        5.13590
H          5.64290        8.97330        6.33570
H          6.85050       10.71570        5.08510
H          7.06390       11.97000        2.99100
H          6.43600       11.30750        1.47820
H          8.92390       11.28880        1.48640
H          8.29700        9.63710        1.44530
H          8.92140       10.30340        2.95310
H          5.40100        9.08770        1.42010
H          2.75180        0.78980       -0.62220
H          1.71890       -0.64990       -0.85390
H          3.72070       -1.95210       -1.54190
H          3.57090       -0.49800       -2.52780
H          4.75710       -0.55720       -1.21800
H          1.32820        1.35110        0.74550
H          1.39250        3.05390        0.22010
H          0.80880        3.76840        2.53160
H          0.84320        2.08650        3.07370
H         -0.39050        2.62620        1.92670
H          0.64570        8.06180        0.03220
H          0.51730        9.05190       -2.23300
H         -0.85570        7.61080       -3.67010
H         -3.06330        7.18480       -4.65510
H         -4.52840        7.80590       -3.88130
H         -4.35880        5.33980       -3.60960
H         -4.25820        6.14470       -2.03980
H         -2.79550        5.52700       -2.80690
H         -4.38700        9.12230       -1.81690
H         -3.01890       10.54730       -0.36340
H          2.66930       14.64220        0.44700
H          4.27160       15.99870        1.71040
H          4.84660       15.71780        5.30300
H          5.23340       16.62680        3.83480
H          6.83220       14.83280        3.15410
H          6.44290       13.93130        4.62080
H          7.25740       15.49560        4.73640
H          3.72630       13.48480        5.11410
H          2.10290       12.14260        3.86680
H          0.34990       15.12450        1.00860
H         -2.76430       15.55430       -1.34240
H         -3.54660       20.76280       -1.08150
H         -2.39220       22.66240        0.03280
H         -0.39020       22.27890        1.39100
H          0.52040       19.98260        1.67920
