275

C          6.17910       -1.03040       10.97520
C          6.82730       -0.16720       11.82830
C          6.65950        1.28620       11.88790
O          5.83100        1.96860       11.30880
C          7.71640        1.78590       12.78740
C          7.97670        3.11260       13.12170
C          9.04420        3.27550       13.97230
C          9.79870        2.19790       14.45210
C          9.55070        0.88380       14.13160
C          8.46680        0.69550       13.26970
C          7.89840       -0.53680       12.72240
C          8.30780       -1.80960       13.04180
C          7.67710       -2.99910       12.63050
N          7.20810       -4.01810       12.37610
C          9.40700       -2.11170       13.86910
N         10.29910       -2.43690       14.51620
C         10.71310        3.09050       15.25440
C         10.46320        3.14600       16.77610
C         11.15400        4.41860       17.20970
C         10.43890        5.44030       16.75660
C          9.25240        4.87530       16.00930
C          9.00080        3.60630       16.83370
C          9.87040        4.29300       14.72050
C          5.16840       -0.79770       10.04370
C          4.66680       -1.80580        9.18180
N          5.19380       -3.06110        9.02480
C          6.57950       -3.30370        9.02930
C          7.46530       -2.36830        8.49930
C          8.82390       -2.61080        8.52570
C          9.33280       -3.78990        9.05750
C         10.80740       -4.04560        9.11090
C          8.43790       -4.73070        9.55370
C          7.07750       -4.49640        9.54800
C          4.31600       -4.11980        8.72280
C          4.63480       -5.05270        7.74230
C          3.75730       -6.08020        7.45510
C          2.54800       -6.20100        8.12710
C          1.58540       -7.30260        7.80730
C          2.24120       -5.26610        9.11050
C          3.11130       -4.23960        9.41250
C          3.53430       -1.34980        8.48590
S          2.49490       -2.04740        7.28320
C          1.58420       -0.54890        7.19270
C          2.11060        0.44650        7.99190
N          1.66640        1.75990        8.01310
C          1.38750        2.43080        6.81890
C          2.00700        2.06640        5.62510
C          1.71250        2.72960        4.44920
C          0.80130        3.77570        4.42100
C          0.48550        4.51090        3.15380
C          0.19770        4.14650        5.61780
C          0.48340        3.49300        6.79800
C          1.67010        2.42410        9.25050
C          1.26220        1.74260       10.39390
C          1.27870        2.37310       11.62180
C          1.69690        3.69150       11.74490
C          1.74180        4.36490       13.08230
C          2.10490        4.36300       10.59830
C          2.09910        3.74330        9.36540
C          3.20720       -0.02750        8.75230
S          4.27840        0.71990        9.87820
C          0.38030       -0.44120        6.41200
C         -0.86900       -0.15430        6.91690
C         -1.14480       -0.18720        8.36200
C         -0.70670       -1.31800        9.05210
C         -0.93470       -1.46180       10.40560
C         -1.62170       -0.47180       11.08660
C         -2.06210        0.64890       10.40860
C         -1.82920        0.82030        9.04870
C         -2.29850        2.06370        8.34600
C         -2.22260        3.32440        9.20570
C         -1.81780       -0.03170        5.87700
S         -3.53380        0.29440        5.84910
C         -3.51970        0.15710        4.12360
C         -4.39950        0.29860        3.03220
C         -5.72190        0.78250        2.90610
C         -6.26410        1.01650        1.58950
N         -7.47110        1.55650        1.63250
S         -7.89890        1.74510        3.18280
N         -6.55600        1.15060        3.86500
C         -5.52920        0.60200        0.45510
C         -5.80320        0.57460       -0.92680
S         -6.96010        1.20640       -2.05410
C         -6.02510        0.52440       -3.36500
C         -6.10100        0.66540       -4.76530
C         -7.11950        1.49650       -5.43010
C         -8.46490        1.12220       -5.44430
C         -8.91430       -0.21700       -4.93490
C         -8.67260       -1.29640       -5.99170
C         -9.39070        1.99430       -5.99960
C         -9.00570        3.20990       -6.53340
C         -7.66890        3.56580       -6.53800
C         -6.73500        2.71160       -5.98560
C         -5.02860        0.05990       -5.38630
S         -4.00060       -0.81180       -4.25260
C         -4.90860       -0.18760       -2.92830
C         -4.76510       -0.13550       -1.53830
N         -3.83470       -0.51200       -0.60390
C         -4.27050       -0.03110        0.61560
C         -3.63860       -0.00560        1.87690
N         -2.32630       -0.25580        2.23540
C         -2.26090       -0.15280        3.60360
C         -1.28650       -0.25140        4.60610
S          0.40190       -0.60300        4.66740
C         -1.15670        0.00570        1.42190
C         -0.58650        1.39440        1.70730
C         -2.95800       -1.64150       -0.82920
C         -3.75240       -2.89430       -1.19640
C         -4.67600        0.08930       -6.76920
C         -3.40710        0.19950       -7.32730
N         -2.21180        0.35870       -6.64350
C         -1.04990       -0.20110       -7.20810
C         -1.07830       -1.48630       -7.74200
C          0.04400       -2.00620       -8.35350
C          1.21860       -1.26920       -8.43890
C          2.40760       -1.82220       -9.16120
C          1.24810       -0.00260       -7.87000
C          0.13010        0.53230       -7.26180
C         -2.13010        1.07710       -5.44920
C         -1.25560        0.67260       -4.44040
C         -1.28440        1.29270       -3.20740
C         -2.17700        2.32340       -2.93860
C         -2.27560        2.92330       -1.56930
C         -2.99450        2.76900       -3.97080
C         -2.96220        2.16950       -5.21290
C         -3.47330        0.16810       -8.74270
S         -2.27050        0.16790       -9.98060
C         -3.52950        0.07920      -11.21540
C         -4.82500       -0.03470      -10.64720
N         -5.98120       -0.26090      -11.34200
C         -7.21020        0.14750      -10.78650
C         -7.35640        1.42590      -10.25840
C         -8.57070        1.82250       -9.73180
C         -9.66030        0.96270       -9.71960
C        -10.98830        1.39030       -9.17680
C         -9.50240       -0.31490      -10.24790
C         -8.29630       -0.72350      -10.77660
C         -6.01930       -1.01500      -12.53220
C         -5.21520       -2.14060      -12.69360
C         -5.24320       -2.84350      -13.88120
C         -6.08270       -2.46270      -14.92220
C         -6.08350       -3.19740      -16.22690
C         -6.91550       -1.36650      -14.73170
C         -6.88670       -0.64380      -13.55570
C         -4.76330        0.05390       -9.24590
S         -5.94810        0.00950       -7.98070
C         -3.29550        0.18270      -12.58440
C         -2.11710        0.14460      -13.29630
C         -0.78090       -0.11430      -12.75750
O         -0.44070       -0.17910      -11.58770
C          0.10280       -0.30550      -13.92340
C          1.46270       -0.60080      -13.90580
C          2.02450       -0.72590      -15.15400
C          1.28600       -0.56830      -16.33300
C         -0.05730       -0.27440      -16.36360
C         -0.64760       -0.14340      -15.10450
C         -2.02680        0.17890      -14.73560
C         -3.03680        0.47270      -15.62130
C         -2.92130        0.38660      -17.02190
N         -2.91380        0.31200      -18.16870
C         -4.32290        0.92730      -15.27420
N         -5.38210        1.33630      -15.08960
C          2.48630       -0.81530      -17.21250
C          3.15770        0.41210      -17.87660
C          2.86350        1.59470      -16.98760
C          3.56340        1.44590      -15.87090
C          4.34330        0.15950      -15.98470
C          4.62270        0.14490      -17.49600
C          3.30990       -0.99080      -15.89780
H          6.50960       -2.06050       11.01250
H          7.37250        3.91250       12.72290
H         10.14450        0.06710       14.50640
H         11.76980        3.04090       14.99820
H         10.72490        2.23860       17.31350
H         12.09070        4.44380       17.73520
H         10.65900        6.48950       16.82800
H          8.41110        5.54460       15.84970
H          8.29900        2.91180       16.37590
H          8.68020        3.83210       17.84950
H         10.36620        5.04500       14.10900
H          7.08500       -1.44990        8.07620
H          9.49940       -1.87220        8.11830
H         11.04060       -5.03090        8.71140
H         11.15390       -4.01660       10.14410
H         11.35500       -3.29730        8.54330
H          8.81250       -5.65330        9.97050
H          6.39760       -5.22630        9.95780
H          5.56730       -4.96430        7.20480
H          4.01590       -6.79560        6.68800
H          2.01510       -8.00200        7.09510
H          0.67180       -6.89040        7.37940
H          1.31270       -7.84580        8.71070
H          1.30920       -5.34990        9.65040
H          2.86850       -3.52670       10.18710
H          2.73550        1.26920        5.61790
H          2.21240        2.42890        3.53920
H          1.00490        4.07020        2.30700
H         -0.58560        4.49180        2.95660
H          0.78730        5.55450        3.23930
H         -0.51010        4.96320        5.62370
H          0.01680        3.81040        7.71580
H          0.92870        0.71900       10.31380
H          0.95680        1.82890       12.49790
H          1.03530        3.90900       13.77190
H          2.74100        4.26940       13.50870
H          1.51520        5.42510       12.99210
H          2.44540        5.38570       10.67400
H          2.43810        4.27420        8.48830
H         -0.19560       -2.10060        8.51010
H         -0.58470       -2.34320       10.92240
H         -1.81470       -0.57280       12.14450
H         -2.59790        1.40980       10.95330
H         -1.69920        2.20600        7.44450
H         -3.33480        1.91700        8.02600
H         -1.25470        3.39700        9.69970
H         -2.36610        4.20380        8.58130
H         -2.99740        3.33280        9.96790
H         -8.37840       -0.48010       -4.02210
H         -9.97950       -0.17470       -4.69950
H         -9.15640       -1.02670       -6.92830
H         -7.60830       -1.40730       -6.18440
H         -9.06590       -2.25270       -5.65470
H        -10.43470        1.71590       -6.00150
H         -9.74730        3.88280       -6.93940
H         -7.35470        4.51030       -6.95750
H         -5.69370        2.99440       -5.96160
H         -0.40250       -0.75770        1.63860
H         -1.43510       -0.04320        0.37110
H          0.25920        1.58050        1.05070
H         -1.34570        2.15280        1.52810
H         -0.24900        1.47650        2.73650
H         -2.26530       -1.39330       -1.64090
H         -2.40060       -1.84240        0.08490
H         -4.47430       -3.12350       -0.41540
H         -3.07360       -3.73570       -1.30380
H         -4.28220       -2.75710       -2.13460
H         -1.98780       -2.06700       -7.68140
H          0.00630       -2.99850       -8.77890
H          2.24560       -1.73590      -10.23560
H          2.55110       -2.87560       -8.92790
H          3.31210       -1.27570       -8.90560
H          2.15390        0.58440       -7.92060
H          0.15810        1.52650       -6.83980
H         -0.58430       -0.15370       -4.62130
H         -0.61410        0.95240       -2.42990
H         -2.52670        3.98000       -1.62590
H         -3.06270        2.42440       -1.00040
H         -1.33940        2.81110       -1.02760
H         -3.67110        3.59330       -3.79600
H         -3.59190        2.52980       -6.01230
H         -6.52020        2.10930      -10.27590
H         -8.67060        2.81890       -9.32930
H        -11.72410        1.43810       -9.97950
H        -11.34790        0.67330       -8.44050
H        -10.92060        2.36860       -8.71060
H        -10.33880       -0.99900      -10.24260
H         -8.18480       -1.71790      -11.18290
H         -4.56020       -2.45100      -11.89250
H         -4.60430       -3.70710      -13.99860
H         -5.55190       -4.14220      -16.14480
H         -7.10160       -3.39210      -16.55840
H         -5.59540       -2.59390      -16.99280
H         -7.57940       -1.05810      -15.52490
H         -7.51920        0.22110      -13.43160
H         -4.19500        0.28130      -13.17780
H          1.99440       -0.70970      -12.97330
H         -0.61010       -0.15520      -17.28030
H          2.41710       -1.66590      -17.88800
H          2.92840        0.53610      -18.93160
H          2.15350        2.36380      -17.22980
H          3.55470        2.06580      -14.99350
H          5.19480        0.05340      -15.31740
H          4.99780       -0.81120      -17.85880
H          5.29200        0.94510      -17.80860
H          3.77840       -1.95640      -15.71570
