
  xtb     02232216153D
 energy: -352.487607916886 gnorm: 0.000427239053 xtb: 6.4.1 (unknown)
216242  0     0  0            999 V2000
   -2.1278   -7.4627    3.1339 C   0  0  0  0  0  0  0  0  0  0  0  0
   -2.1401   -8.5226    3.9831 C   0  0  0  0  0  0  0  0  0  0  0  0
   -2.9380   -9.7284    3.6233 C   0  0  0  0  0  0  0  0  0  0  0  0
   -3.4996   -9.9316    2.5699 O   0  0  0  0  0  0  0  0  0  0  0  0
   -2.9231  -10.5849    4.8226 C   0  0  0  0  0  0  0  0  0  0  0  0
   -3.6245  -11.7734    5.0206 C   0  0  0  0  0  0  0  0  0  0  0  0
   -3.4057  -12.3543    6.2460 C   0  0  0  0  0  0  0  0  0  0  0  0
   -2.5584  -11.7927    7.2115 C   0  0  0  0  0  0  0  0  0  0  0  0
   -1.8605  -10.6232    7.0300 C   0  0  0  0  0  0  0  0  0  0  0  0
   -2.0631  -10.0202    5.7859 C   0  0  0  0  0  0  0  0  0  0  0  0
   -1.4741   -8.8017    5.2345 C   0  0  0  0  0  0  0  0  0  0  0  0
   -0.3157   -8.2197    5.6777 C   0  0  0  0  0  0  0  0  0  0  0  0
    0.4310   -8.6926    6.7754 C   0  0  0  0  0  0  0  0  0  0  0  0
    1.0993   -9.0590    7.6347 N   0  0  0  0  0  0  0  0  0  0  0  0
    0.3321   -7.1513    5.0273 C   0  0  0  0  0  0  0  0  0  0  0  0
    0.9284   -6.3040    4.5322 N   0  0  0  0  0  0  0  0  0  0  0  0
   -2.8057  -12.9107    8.1938 C   0  0  0  0  0  0  0  0  0  0  0  0
   -1.6863  -13.9647    8.3282 C   0  0  0  0  0  0  0  0  0  0  0  0
   -2.3794  -15.1515    8.9577 C   0  0  0  0  0  0  0  0  0  0  0  0
   -3.1774  -15.6852    8.0418 C   0  0  0  0  0  0  0  0  0  0  0  0
   -3.0374  -14.8677    6.7779 C   0  0  0  0  0  0  0  0  0  0  0  0
   -1.5599  -14.4686    6.8846 C   0  0  0  0  0  0  0  0  0  0  0  0
   -3.7463  -13.5390    7.1160 C   0  0  0  0  0  0  0  0  0  0  0  0
   -1.8100   -6.0973    3.3649 C   0  0  0  0  0  0  0  0  0  0  0  0
   -2.2419   -5.2536    4.3824 C   0  0  0  0  0  0  0  0  0  0  0  0
   -3.0945   -5.6150    5.4304 N   0  0  0  0  0  0  0  0  0  0  0  0
   -4.3544   -5.0041    5.4522 C   0  0  0  0  0  0  0  0  0  0  0  0
   -4.9946   -4.7010    4.2508 C   0  0  0  0  0  0  0  0  0  0  0  0
   -6.2327   -4.0925    4.2540 C   0  0  0  0  0  0  0  0  0  0  0  0
   -6.8760   -3.7745    5.4444 C   0  0  0  0  0  0  0  0  0  0  0  0
   -8.2323   -3.1381    5.4340 C   0  0  0  0  0  0  0  0  0  0  0  0
   -6.2337   -4.0824    6.6366 C   0  0  0  0  0  0  0  0  0  0  0  0
   -4.9900   -4.6821    6.6490 C   0  0  0  0  0  0  0  0  0  0  0  0
   -2.5741   -6.2191    6.5855 C   0  0  0  0  0  0  0  0  0  0  0  0
   -1.3380   -5.8289    7.0924 C   0  0  0  0  0  0  0  0  0  0  0  0
   -0.8398   -6.4275    8.2338 C   0  0  0  0  0  0  0  0  0  0  0  0
   -1.5560   -7.4175    8.8980 C   0  0  0  0  0  0  0  0  0  0  0  0
   -0.9810   -8.0690   10.1162 C   0  0  0  0  0  0  0  0  0  0  0  0
   -2.7909   -7.7961    8.3845 C   0  0  0  0  0  0  0  0  0  0  0  0
   -3.2974   -7.2116    7.2401 C   0  0  0  0  0  0  0  0  0  0  0  0
   -1.8927   -3.9141    4.1073 C   0  0  0  0  0  0  0  0  0  0  0  0
   -2.0857   -2.4358    4.9772 S   0  0  0  0  0  0  0  0  0  0  0  0
   -1.1883   -1.5710    3.7436 C   0  0  0  0  0  0  0  0  0  0  0  0
   -0.7332   -2.4059    2.7309 C   0  0  0  0  0  0  0  0  0  0  0  0
    0.0822   -2.0380    1.6708 N   0  0  0  0  0  0  0  0  0  0  0  0
    1.1270   -1.1193    1.8308 C   0  0  0  0  0  0  0  0  0  0  0  0
    1.8228   -1.0211    3.0346 C   0  0  0  0  0  0  0  0  0  0  0  0
    2.7831   -0.0438    3.2030 C   0  0  0  0  0  0  0  0  0  0  0  0
    3.0847    0.8595    2.1907 C   0  0  0  0  0  0  0  0  0  0  0  0
    4.0952    1.9430    2.4117 C   0  0  0  0  0  0  0  0  0  0  0  0
    2.4273    0.7193    0.9754 C   0  0  0  0  0  0  0  0  0  0  0  0
    1.4619   -0.2512    0.7919 C   0  0  0  0  0  0  0  0  0  0  0  0
   -0.1517   -2.6449    0.4266 C   0  0  0  0  0  0  0  0  0  0  0  0
   -1.4561   -2.8677   -0.0070 C   0  0  0  0  0  0  0  0  0  0  0  0
   -1.6897   -3.4778   -1.2235 C   0  0  0  0  0  0  0  0  0  0  0  0
   -0.6385   -3.8704   -2.0417 C   0  0  0  0  0  0  0  0  0  0  0  0
   -0.8953   -4.5478   -3.3528 C   0  0  0  0  0  0  0  0  0  0  0  0
    0.6607   -3.6388   -1.6033 C   0  0  0  0  0  0  0  0  0  0  0  0
    0.9084   -3.0397   -0.3852 C   0  0  0  0  0  0  0  0  0  0  0  0
   -1.1718   -3.7353    2.9385 C   0  0  0  0  0  0  0  0  0  0  0  0
   -0.9790   -5.2222    2.0867 S   0  0  0  0  0  0  0  0  0  0  0  0
   -0.9191   -0.1649    3.8222 C   0  0  0  0  0  0  0  0  0  0  0  0
   -0.2855    0.5480    4.8182 C   0  0  0  0  0  0  0  0  0  0  0  0
   -0.0387    0.0577    6.1771 C   0  0  0  0  0  0  0  0  0  0  0  0
    1.2506    0.0486    6.6994 C   0  0  0  0  0  0  0  0  0  0  0  0
    1.4700   -0.4195    7.9805 C   0  0  0  0  0  0  0  0  0  0  0  0
    0.4118   -0.8698    8.7510 C   0  0  0  0  0  0  0  0  0  0  0  0
   -0.8857   -0.8391    8.2572 C   0  0  0  0  0  0  0  0  0  0  0  0
   -2.0367   -1.3385    9.0826 C   0  0  0  0  0  0  0  0  0  0  0  0
   -2.3168   -2.8119    8.7819 C   0  0  0  0  0  0  0  0  0  0  0  0
   -1.0986   -0.3705    6.9687 C   0  0  0  0  0  0  0  0  0  0  0  0
    0.1583    1.7997    4.3403 C   0  0  0  0  0  0  0  0  0  0  0  0
    1.2004    3.0180    5.0319 S   0  0  0  0  0  0  0  0  0  0  0  0
    1.1945    3.8533    3.5139 C   0  0  0  0  0  0  0  0  0  0  0  0
    1.8691    4.9104    2.8802 C   0  0  0  0  0  0  0  0  0  0  0  0
    2.9492    5.7190    3.2983 C   0  0  0  0  0  0  0  0  0  0  0  0
    3.6184    6.5465    2.3309 C   0  0  0  0  0  0  0  0  0  0  0  0
    4.6652    7.1745    2.8421 N   0  0  0  0  0  0  0  0  0  0  0  0
    4.7962    6.7696    4.4045 S   0  0  0  0  0  0  0  0  0  0  0  0
    3.5247    5.7703    4.4891 N   0  0  0  0  0  0  0  0  0  0  0  0
    3.0970    6.6284    1.0209 C   0  0  0  0  0  0  0  0  0  0  0  0
    3.4882    7.3678   -0.1099 C   0  0  0  0  0  0  0  0  0  0  0  0
    4.7565    8.4349   -0.6113 S   0  0  0  0  0  0  0  0  0  0  0  0
    3.9992    8.5622   -2.1832 C   0  0  0  0  0  0  0  0  0  0  0  0
    4.3703    9.2220   -3.3690 C   0  0  0  0  0  0  0  0  0  0  0  0
    5.6198    9.9752   -3.4942 C   0  0  0  0  0  0  0  0  0  0  0  0
    5.9682   10.9109   -2.5250 C   0  0  0  0  0  0  0  0  0  0  0  0
    7.1602   11.6029   -2.6336 C   0  0  0  0  0  0  0  0  0  0  0  0
    8.0123   11.3632   -3.6966 C   0  0  0  0  0  0  0  0  0  0  0  0
    7.6871   10.4207   -4.6656 C   0  0  0  0  0  0  0  0  0  0  0  0
    8.6336   10.1218   -5.7925 C   0  0  0  0  0  0  0  0  0  0  0  0
    9.6314    9.0383   -5.3791 C   0  0  0  0  0  0  0  0  0  0  0  0
    6.4922    9.7285   -4.5504 C   0  0  0  0  0  0  0  0  0  0  0  0
    3.4492    8.9897   -4.3816 C   0  0  0  0  0  0  0  0  0  0  0  0
    2.1393    7.9326   -3.8683 S   0  0  0  0  0  0  0  0  0  0  0  0
    2.8224    7.8149   -2.2885 C   0  0  0  0  0  0  0  0  0  0  0  0
    2.5339    7.1319   -1.1031 C   0  0  0  0  0  0  0  0  0  0  0  0
    1.5720    6.2676   -0.6419 N   0  0  0  0  0  0  0  0  0  0  0  0
    1.9215    5.9192    0.6522 C   0  0  0  0  0  0  0  0  0  0  0  0
    1.3933    4.9513    1.5408 C   0  0  0  0  0  0  0  0  0  0  0  0
    0.4922    3.9196    1.3605 N   0  0  0  0  0  0  0  0  0  0  0  0
    0.3843    3.2502    2.5485 C   0  0  0  0  0  0  0  0  0  0  0  0
   -0.1945    2.0651    3.0188 C   0  0  0  0  0  0  0  0  0  0  0  0
   -1.1228    0.7753    2.3480 S   0  0  0  0  0  0  0  0  0  0  0  0
    0.0009    3.3148    0.1427 C   0  0  0  0  0  0  0  0  0  0  0  0
   -1.5186    3.4258    0.0193 C   0  0  0  0  0  0  0  0  0  0  0  0
    0.2444    6.3242   -1.2160 C   0  0  0  0  0  0  0  0  0  0  0  0
   -0.3663    7.7173   -1.0631 C   0  0  0  0  0  0  0  0  0  0  0  0
    3.4048    9.4902   -5.7093 C   0  0  0  0  0  0  0  0  0  0  0  0
    4.0538   10.6005   -6.2401 C   0  0  0  0  0  0  0  0  0  0  0  0
    3.7676   10.7891   -7.5758 C   0  0  0  0  0  0  0  0  0  0  0  0
    2.8916    9.8432   -8.1170 C   0  0  0  0  0  0  0  0  0  0  0  0
    2.4144    8.6960   -6.8916 S   0  0  0  0  0  0  0  0  0  0  0  0
    2.5068    9.8605   -9.4638 C   0  0  0  0  0  0  0  0  0  0  0  0
    1.6636    9.0271  -10.1553 C   0  0  0  0  0  0  0  0  0  0  0  0
    0.9198    7.8999   -9.5850 C   0  0  0  0  0  0  0  0  0  0  0  0
    0.9374    7.5039   -8.4314 O   0  0  0  0  0  0  0  0  0  0  0  0
    0.1265    7.3262  -10.6853 C   0  0  0  0  0  0  0  0  0  0  0  0
   -0.7456    6.2423  -10.6133 C   0  0  0  0  0  0  0  0  0  0  0  0
   -1.3526    5.9339  -11.8069 C   0  0  0  0  0  0  0  0  0  0  0  0
   -1.1136    6.6546  -12.9841 C   0  0  0  0  0  0  0  0  0  0  0  0
   -0.2578    7.7275  -13.0674 C   0  0  0  0  0  0  0  0  0  0  0  0
    0.3760    8.0553  -11.8650 C   0  0  0  0  0  0  0  0  0  0  0  0
    1.3411    9.1135  -11.5648 C   0  0  0  0  0  0  0  0  0  0  0  0
    1.8479   10.0017  -12.4800 C   0  0  0  0  0  0  0  0  0  0  0  0
    2.7902   11.0163  -12.2133 C   0  0  0  0  0  0  0  0  0  0  0  0
    3.5561   11.8646  -12.0922 N   0  0  0  0  0  0  0  0  0  0  0  0
    1.5054   10.0244  -13.8478 C   0  0  0  0  0  0  0  0  0  0  0  0
    1.2813   10.1070  -14.9713 N   0  0  0  0  0  0  0  0  0  0  0  0
   -2.0509    5.7953  -13.7959 C   0  0  0  0  0  0  0  0  0  0  0  0
   -1.3973    4.7427  -14.7160 C   0  0  0  0  0  0  0  0  0  0  0  0
   -2.5146    3.7637  -14.9960 C   0  0  0  0  0  0  0  0  0  0  0  0
   -2.7408    3.0801  -13.8815 C   0  0  0  0  0  0  0  0  0  0  0  0
   -1.7802    3.5857  -12.8293 C   0  0  0  0  0  0  0  0  0  0  0  0
   -0.5734    3.9230  -13.7144 C   0  0  0  0  0  0  0  0  0  0  0  0
   -2.3169    4.9909  -12.4831 C   0  0  0  0  0  0  0  0  0  0  0  0
   -2.4874   -7.6845    2.1313 H   0  0  0  0  0  0  0  0  0  0  0  0
   -4.2696  -12.1710    4.2529 H   0  0  0  0  0  0  0  0  0  0  0  0
   -1.2202  -10.1931    7.7814 H   0  0  0  0  0  0  0  0  0  0  0  0
   -3.2329  -12.6189    9.1515 H   0  0  0  0  0  0  0  0  0  0  0  0
   -0.7827  -13.6088    8.8154 H   0  0  0  0  0  0  0  0  0  0  0  0
   -2.2632  -15.4384    9.9864 H   0  0  0  0  0  0  0  0  0  0  0  0
   -3.8611  -16.5064    8.1525 H   0  0  0  0  0  0  0  0  0  0  0  0
   -3.3647  -15.3360    5.8535 H   0  0  0  0  0  0  0  0  0  0  0  0
   -1.2531  -13.7042    6.1733 H   0  0  0  0  0  0  0  0  0  0  0  0
   -0.8952  -15.3271    6.8055 H   0  0  0  0  0  0  0  0  0  0  0  0
   -4.8005  -13.6679    7.3548 H   0  0  0  0  0  0  0  0  0  0  0  0
   -4.5200   -4.9497    3.3129 H   0  0  0  0  0  0  0  0  0  0  0  0
   -6.7122   -3.8652    3.3126 H   0  0  0  0  0  0  0  0  0  0  0  0
   -8.9987   -3.8928    5.2537 H   0  0  0  0  0  0  0  0  0  0  0  0
   -8.3042   -2.3947    4.6427 H   0  0  0  0  0  0  0  0  0  0  0  0
   -8.4448   -2.6603    6.3872 H   0  0  0  0  0  0  0  0  0  0  0  0
   -6.7085   -3.8388    7.5764 H   0  0  0  0  0  0  0  0  0  0  0  0
   -4.5033   -4.8939    7.5889 H   0  0  0  0  0  0  0  0  0  0  0  0
   -0.7756   -5.0521    6.5954 H   0  0  0  0  0  0  0  0  0  0  0  0
    0.1230   -6.1222    8.6171 H   0  0  0  0  0  0  0  0  0  0  0  0
   -1.6831   -8.7756   10.5518 H   0  0  0  0  0  0  0  0  0  0  0  0
   -0.0657   -8.5988    9.8497 H   0  0  0  0  0  0  0  0  0  0  0  0
   -0.7239   -7.3215   10.8650 H   0  0  0  0  0  0  0  0  0  0  0  0
   -3.3634   -8.5669    8.8809 H   0  0  0  0  0  0  0  0  0  0  0  0
   -4.2559   -7.5158    6.8453 H   0  0  0  0  0  0  0  0  0  0  0  0
    1.6051   -1.7098    3.8376 H   0  0  0  0  0  0  0  0  0  0  0  0
    3.3130    0.0217    4.1419 H   0  0  0  0  0  0  0  0  0  0  0  0
    3.9003    2.4632    3.3484 H   0  0  0  0  0  0  0  0  0  0  0  0
    4.0730    2.6687    1.6016 H   0  0  0  0  0  0  0  0  0  0  0  0
    5.0986    1.5210    2.4684 H   0  0  0  0  0  0  0  0  0  0  0  0
    2.6660    1.3908    0.1621 H   0  0  0  0  0  0  0  0  0  0  0  0
    0.9404   -0.3293   -0.1513 H   0  0  0  0  0  0  0  0  0  0  0  0
   -2.2845   -2.5509    0.6104 H   0  0  0  0  0  0  0  0  0  0  0  0
   -2.7075   -3.6438   -1.5457 H   0  0  0  0  0  0  0  0  0  0  0  0
   -1.8661   -4.2648   -3.7531 H   0  0  0  0  0  0  0  0  0  0  0  0
   -0.8875   -5.6301   -3.2198 H   0  0  0  0  0  0  0  0  0  0  0  0
   -0.1257   -4.2940   -4.0784 H   0  0  0  0  0  0  0  0  0  0  0  0
    1.4926   -3.9415   -2.2227 H   0  0  0  0  0  0  0  0  0  0  0  0
    1.9227   -2.8772   -0.0522 H   0  0  0  0  0  0  0  0  0  0  0  0
    2.0731    0.4005    6.0969 H   0  0  0  0  0  0  0  0  0  0  0  0
    2.4727   -0.4330    8.3816 H   0  0  0  0  0  0  0  0  0  0  0  0
    0.5928   -1.2365    9.7512 H   0  0  0  0  0  0  0  0  0  0  0  0
   -1.8065   -1.2242   10.1438 H   0  0  0  0  0  0  0  0  0  0  0  0
   -2.9311   -0.7529    8.8606 H   0  0  0  0  0  0  0  0  0  0  0  0
   -1.4384   -3.4184    8.9911 H   0  0  0  0  0  0  0  0  0  0  0  0
   -2.5800   -2.9398    7.7345 H   0  0  0  0  0  0  0  0  0  0  0  0
   -3.1404   -3.1743    9.3929 H   0  0  0  0  0  0  0  0  0  0  0  0
   -2.1069   -0.3093    6.5836 H   0  0  0  0  0  0  0  0  0  0  0  0
    5.2982   11.1042   -1.7011 H   0  0  0  0  0  0  0  0  0  0  0  0
    7.4244   12.3344   -1.8846 H   0  0  0  0  0  0  0  0  0  0  0  0
    8.9403   11.9107   -3.7775 H   0  0  0  0  0  0  0  0  0  0  0  0
    9.1787   11.0272   -6.0666 H   0  0  0  0  0  0  0  0  0  0  0  0
    8.0731    9.7822   -6.6659 H   0  0  0  0  0  0  0  0  0  0  0  0
    9.1071    8.1229   -5.1141 H   0  0  0  0  0  0  0  0  0  0  0  0
   10.3177    8.8226   -6.1946 H   0  0  0  0  0  0  0  0  0  0  0  0
   10.2077    9.3638   -4.5160 H   0  0  0  0  0  0  0  0  0  0  0  0
    6.2319    8.9828   -5.2882 H   0  0  0  0  0  0  0  0  0  0  0  0
    0.2663    2.2523    0.1735 H   0  0  0  0  0  0  0  0  0  0  0  0
    0.5126    3.7622   -0.7098 H   0  0  0  0  0  0  0  0  0  0  0  0
   -1.9976    2.8308    0.7922 H   0  0  0  0  0  0  0  0  0  0  0  0
   -1.8360    3.0502   -0.9493 H   0  0  0  0  0  0  0  0  0  0  0  0
   -1.8605    4.4530    0.1274 H   0  0  0  0  0  0  0  0  0  0  0  0
   -0.3964    5.6115   -0.7096 H   0  0  0  0  0  0  0  0  0  0  0  0
    0.3156    6.0653   -2.2772 H   0  0  0  0  0  0  0  0  0  0  0  0
   -1.3760    7.7173   -1.4645 H   0  0  0  0  0  0  0  0  0  0  0  0
   -0.4062    7.9967   -0.0121 H   0  0  0  0  0  0  0  0  0  0  0  0
    0.2170    8.4605   -1.5993 H   0  0  0  0  0  0  0  0  0  0  0  0
    4.6912   11.2449   -5.6629 H   0  0  0  0  0  0  0  0  0  0  0  0
    4.1708   11.5914   -8.1690 H   0  0  0  0  0  0  0  0  0  0  0  0
    2.9648   10.6677  -10.0224 H   0  0  0  0  0  0  0  0  0  0  0  0
   -0.9036    5.7200   -9.6827 H   0  0  0  0  0  0  0  0  0  0  0  0
   -0.0915    8.2730  -13.9809 H   0  0  0  0  0  0  0  0  0  0  0  0
   -2.8835    6.3143  -14.2669 H   0  0  0  0  0  0  0  0  0  0  0  0
   -0.8770    5.1518  -15.5776 H   0  0  0  0  0  0  0  0  0  0  0  0
   -3.0454    3.7097  -15.9283 H   0  0  0  0  0  0  0  0  0  0  0  0
   -3.4984    2.3411  -13.6968 H   0  0  0  0  0  0  0  0  0  0  0  0
   -1.6085    2.9395  -11.9726 H   0  0  0  0  0  0  0  0  0  0  0  0
    0.2034    4.4925  -13.2076 H   0  0  0  0  0  0  0  0  0  0  0  0
   -0.1361    3.0360  -14.1698 H   0  0  0  0  0  0  0  0  0  0  0  0
   -3.3275    4.9732  -12.0789 H   0  0  0  0  0  0  0  0  0  0  0  0
  1  2  2  0  0  0  0
  2  3  1  0  0  0  0
  3  4  2  0  0  0  0
  3  5  1  0  0  0  0
  5  6  2  0  0  0  0
  6  7  1  0  0  0  0
  7  8  2  0  0  0  0
  8  9  1  0  0  0  0
  9 10  2  0  0  0  0
 10 11  1  0  0  0  0
 11 12  2  0  0  0  0
 12 13  1  0  0  0  0
 13 14  3  0  0  0  0
 12 15  1  0  0  0  0
 15 16  3  0  0  0  0
  8 17  1  0  0  0  0
 17 18  1  0  0  0  0
 18 19  1  0  0  0  0
 19 20  2  0  0  0  0
 20 21  1  0  0  0  0
 21 22  1  0  0  0  0
 21 23  1  0  0  0  0
  1 24  1  0  0  0  0
 24 25  2  0  0  0  0
 25 26  1  0  0  0  0
 26 27  1  0  0  0  0
 27 28  2  0  0  0  0
 28 29  1  0  0  0  0
 29 30  2  0  0  0  0
 30 31  1  0  0  0  0
 30 32  1  0  0  0  0
 32 33  2  0  0  0  0
 26 34  1  0  0  0  0
 34 35  2  0  0  0  0
 35 36  1  0  0  0  0
 36 37  2  0  0  0  0
 37 38  1  0  0  0  0
 37 39  1  0  0  0  0
 39 40  2  0  0  0  0
 25 41  1  0  0  0  0
 41 42  1  0  0  0  0
 42 43  1  0  0  0  0
 43 44  2  0  0  0  0
 44 45  1  0  0  0  0
 45 46  1  0  0  0  0
 46 47  2  0  0  0  0
 47 48  1  0  0  0  0
 48 49  2  0  0  0  0
 49 50  1  0  0  0  0
 49 51  1  0  0  0  0
 51 52  2  0  0  0  0
 45 53  1  0  0  0  0
 53 54  2  0  0  0  0
 54 55  1  0  0  0  0
 55 56  2  0  0  0  0
 56 57  1  0  0  0  0
 56 58  1  0  0  0  0
 58 59  2  0  0  0  0
 44 60  1  0  0  0  0
 60 61  1  0  0  0  0
 43 62  1  0  0  0  0
 62 63  2  0  0  0  0
 63 64  1  0  0  0  0
 64 65  2  0  0  0  0
 65 66  1  0  0  0  0
 66 67  2  0  0  0  0
 67 68  1  0  0  0  0
 68 69  1  0  0  0  0
 69 70  1  0  0  0  0
 68 71  2  0  0  0  0
 63 72  1  0  0  0  0
 72 73  1  0  0  0  0
 73 74  1  0  0  0  0
 74 75  1  0  0  0  0
 75 76  1  0  0  0  0
 76 77  1  0  0  0  0
 77 78  2  0  0  0  0
 78 79  1  0  0  0  0
 79 80  1  0  0  0  0
 77 81  1  0  0  0  0
 81 82  1  0  0  0  0
 82 83  1  0  0  0  0
 83 84  1  0  0  0  0
 84 85  1  0  0  0  0
 85 86  1  0  0  0  0
 86 87  2  0  0  0  0
 87 88  1  0  0  0  0
 88 89  2  0  0  0  0
 89 90  1  0  0  0  0
 90 91  1  0  0  0  0
 91 92  1  0  0  0  0
 90 93  2  0  0  0  0
 85 94  2  0  0  0  0
 94 95  1  0  0  0  0
 95 96  1  0  0  0  0
 96 97  1  0  0  0  0
 97 98  1  0  0  0  0
 98 99  1  0  0  0  0
 99100  1  0  0  0  0
100101  1  0  0  0  0
101102  1  0  0  0  0
102103  1  0  0  0  0
103104  1  0  0  0  0
101105  1  0  0  0  0
105106  1  0  0  0  0
 98107  1  0  0  0  0
107108  1  0  0  0  0
 94109  1  0  0  0  0
109110  2  0  0  0  0
110111  1  0  0  0  0
111112  2  0  0  0  0
112113  1  0  0  0  0
112114  1  0  0  0  0
114115  2  0  0  0  0
115116  1  0  0  0  0
116117  2  0  0  0  0
116118  1  0  0  0  0
118119  2  0  0  0  0
119120  1  0  0  0  0
120121  2  0  0  0  0
121122  1  0  0  0  0
122123  2  0  0  0  0
123124  1  0  0  0  0
124125  2  0  0  0  0
125126  1  0  0  0  0
126127  3  0  0  0  0
125128  1  0  0  0  0
128129  3  0  0  0  0
121130  1  0  0  0  0
130131  1  0  0  0  0
131132  1  0  0  0  0
132133  2  0  0  0  0
133134  1  0  0  0  0
134135  1  0  0  0  0
134136  1  0  0  0  0
 11  2  1  0  0  0  0
 23 17  1  0  0  0  0
 61 24  1  0  0  0  0
104 62  1  0  0  0  0
113109  1  0  0  0  0
124115  1  0  0  0  0
136130  1  0  0  0  0
 10  5  1  0  0  0  0
 22 18  1  0  0  0  0
 33 27  1  0  0  0  0
 40 34  1  0  0  0  0
 60 41  2  0  0  0  0
 71 64  1  0  0  0  0
103 72  2  0  0  0  0
123118  1  0  0  0  0
135131  1  0  0  0  0
 23  7  1  0  0  0  0
 52 46  1  0  0  0  0
 59 53  1  0  0  0  0
102 74  2  0  0  0  0
136120  1  0  0  0  0
100 75  2  0  0  0  0
 80 76  2  0  0  0  0
 99 81  2  0  0  0  0
 97 82  2  0  0  0  0
 96 84  2  0  0  0  0
 93 86  1  0  0  0  0
  1137  1  0  0  0  0
  6138  1  0  0  0  0
  9139  1  0  0  0  0
 17140  1  0  0  0  0
 18141  1  0  0  0  0
 19142  1  0  0  0  0
 20143  1  0  0  0  0
 21144  1  0  0  0  0
 22145  1  0  0  0  0
 22146  1  0  0  0  0
 23147  1  0  0  0  0
 28148  1  0  0  0  0
 29149  1  0  0  0  0
 31150  1  0  0  0  0
 31151  1  0  0  0  0
 31152  1  0  0  0  0
 32153  1  0  0  0  0
 33154  1  0  0  0  0
 35155  1  0  0  0  0
 36156  1  0  0  0  0
 38157  1  0  0  0  0
 38158  1  0  0  0  0
 38159  1  0  0  0  0
 39160  1  0  0  0  0
 40161  1  0  0  0  0
 47162  1  0  0  0  0
 48163  1  0  0  0  0
 50164  1  0  0  0  0
 50165  1  0  0  0  0
 50166  1  0  0  0  0
 51167  1  0  0  0  0
 52168  1  0  0  0  0
 54169  1  0  0  0  0
 55170  1  0  0  0  0
 57171  1  0  0  0  0
 57172  1  0  0  0  0
 57173  1  0  0  0  0
 58174  1  0  0  0  0
 59175  1  0  0  0  0
 65176  1  0  0  0  0
 66177  1  0  0  0  0
 67178  1  0  0  0  0
 69179  1  0  0  0  0
 69180  1  0  0  0  0
 70181  1  0  0  0  0
 70182  1  0  0  0  0
 70183  1  0  0  0  0
 71184  1  0  0  0  0
 87185  1  0  0  0  0
 88186  1  0  0  0  0
 89187  1  0  0  0  0
 91188  1  0  0  0  0
 91189  1  0  0  0  0
 92190  1  0  0  0  0
 92191  1  0  0  0  0
 92192  1  0  0  0  0
 93193  1  0  0  0  0
105194  1  0  0  0  0
105195  1  0  0  0  0
106196  1  0  0  0  0
106197  1  0  0  0  0
106198  1  0  0  0  0
107199  1  0  0  0  0
107200  1  0  0  0  0
108201  1  0  0  0  0
108202  1  0  0  0  0
108203  1  0  0  0  0
110204  1  0  0  0  0
111205  1  0  0  0  0
114206  1  0  0  0  0
119207  1  0  0  0  0
122208  1  0  0  0  0
130209  1  0  0  0  0
131210  1  0  0  0  0
132211  1  0  0  0  0
133212  1  0  0  0  0
134213  1  0  0  0  0
135214  1  0  0  0  0
135215  1  0  0  0  0
136216  1  0  0  0  0
M  END
