262

C          4.27660      -10.30980       -1.77430
C          5.53860      -10.84670       -1.63650
C          6.21990      -11.03200       -0.34600
O          5.80330      -10.73330        0.75860
C          7.45750      -11.78250       -0.65050
C          8.43630      -12.19200        0.24960
C          9.49210      -12.85300       -0.33320
C          9.55800      -13.11150       -1.70710
C          8.59220      -12.72310       -2.60540
C          7.52260      -12.02990       -2.03500
C          6.34950      -11.42990       -2.66690
C          6.15140      -11.28120       -4.01900
C          5.07990      -10.56160       -4.58290
N          4.25630       -9.95720       -5.10900
C          7.03790      -11.74150       -5.00850
N          7.73040      -12.07450       -5.86340
C         10.89350      -13.80590       -1.59550
C         12.12670      -12.99610       -2.04800
C         13.28850      -13.70220       -1.38760
C         13.22940      -13.44640       -0.08690
C         12.02600      -12.56380        0.15360
C         12.02610      -11.75620       -1.15070
C         10.82460      -13.50870       -0.06320
C          3.66800       -9.40150       -0.90480
C          4.21200       -8.47440        0.00830
N          5.52920       -8.15150        0.17480
C          6.48890       -8.29000       -0.83480
C          6.18230       -8.03090       -2.17050
C          7.13590       -8.21340       -3.14960
C          8.41980       -8.65310       -2.83540
C          9.42170       -8.90310       -3.91820
C          8.73120       -8.86060       -1.49860
C          7.78490       -8.68440       -0.50740
C          5.94240       -7.61690        1.41500
C          6.74530       -6.48250        1.45280
C          7.14130       -5.96010        2.66890
C          6.74950       -6.55030        3.86400
C          7.15490       -5.96690        5.18250
C          5.95720       -7.69220        3.81200
C          5.55580       -8.22650        2.60460
C          3.17720       -7.78440        0.68280
S          3.16290       -6.49880        1.84530
C          1.41290       -6.43800        1.77970
C          0.87440       -7.32320        0.85770
N         -0.46450       -7.39400        0.50380
C         -1.04210       -8.65010        0.27180
C         -0.61960       -9.76440        0.98960
C         -1.19510      -10.99930        0.76210
C         -2.20440      -11.15910       -0.17630
C         -2.84330      -12.49200       -0.42040
C         -2.61370      -10.04220       -0.89780
C         -2.04080       -8.80560       -0.68770
C         -1.22390       -6.22010        0.39720
C         -0.65150       -5.04490       -0.08370
C         -1.37800       -3.86950       -0.10280
C         -2.69060       -3.82590        0.34610
C         -3.47100       -2.54660        0.36220
C         -3.27510       -5.01540        0.76740
C         -2.56170       -6.19560        0.78750
C          1.89390       -8.10260        0.26180
S          1.90010       -9.29610       -0.97970
C          0.65730       -5.48850        2.54290
C         -0.49950       -5.74360        3.25130
C         -0.90030       -7.08950        3.65600
C          0.06810       -8.02510        4.01660
C         -0.30580       -9.30240        4.38690
C         -1.64020       -9.66760        4.38290
C         -2.62100       -8.74390        4.04460
C         -4.06430       -9.15410        3.99140
C         -4.36710       -9.85060        2.66270
C         -2.24180       -7.45470        3.70530
C         -1.18450       -4.54400        3.54640
S         -2.74340       -4.20500        4.25450
C         -2.51520       -2.52290        3.91490
C         -3.25450       -1.32680        3.91990
C         -4.61590       -1.06180        4.18790
C         -5.16000        0.22460        3.84140
N         -6.46430        0.29470        4.05650
S         -6.96540       -1.12450        4.65440
N         -5.53810       -1.89040        4.65190
C         -4.29240        1.23120        3.36500
C         -4.50510        2.56840        2.97900
S         -5.81180        3.67280        2.71680
C         -4.67390        4.86660        2.14270
C         -4.82150        6.14870        1.56720
C         -6.07170        6.89760        1.46730
C         -6.07390        8.28770        1.57770
C         -7.25920        8.98950        1.47860
C         -8.45240        8.32090        1.26530
C         -8.47410        6.93570        1.17580
C         -9.76600        6.18960        1.00590
C        -10.28950        5.71540        2.36280
C         -7.28290        6.23630        1.29260
C         -3.60160        6.64070        1.14420
S         -2.25500        5.59240        1.56320
C         -3.35330        4.42320        2.19730
C         -3.25700        3.11110        2.67410
N         -2.27430        2.16930        2.85040
C         -2.89840        0.99470        3.23770
C         -2.40500       -0.32420        3.37940
N         -1.20410       -0.90620        3.01940
C         -1.27820       -2.23720        3.33410
C         -0.52320       -3.39600        3.11170
S          0.97790       -3.77490        2.34840
C         -0.18910       -0.43230        2.10550
C          1.17740       -0.29730        2.77590
C         -0.92600        2.59030        3.16450
C         -0.90100        3.52220        4.37590
C         -3.38350        7.72610        0.23520
C         -4.03130        7.90060       -0.98030
N         -4.96750        7.03870       -1.52580
C         -6.04080        7.57650       -2.25360
C         -6.60270        8.79580       -1.88420
C         -7.65190        9.32480       -2.60770
C         -8.17420        8.65840       -3.70910
C         -9.30150        9.24970       -4.49880
C         -7.60580        7.44350       -4.07250
C         -6.54980        6.90730       -3.36320
C         -4.83590        5.65390       -1.35230
C         -3.57620        5.05970       -1.32510
C         -3.44390        3.71310       -1.04700
C         -4.55450        2.91610       -0.80570
C         -4.41010        1.46440       -0.46340
C         -5.81220        3.50090       -0.90590
C         -5.95770        4.84580       -1.17840
C         -3.55440        9.05980       -1.63470
S         -3.88990        9.77290       -3.16240
C         -2.68920       11.03850       -2.86810
C         -2.00440       10.83710       -1.64960
N         -0.91000       11.53320       -1.19990
C          0.07070       12.05410       -2.05930
C          0.33560       11.48710       -3.30380
C          1.28540       12.04500       -4.13500
C          2.01600       13.16330       -3.74840
C          3.03340       13.76440       -4.66570
C          1.78650       13.69000       -2.48330
C          0.82350       13.15560       -1.65150
C         -0.60290       11.49390        0.18450
C         -1.56730       11.82390        1.13230
C         -1.24810       11.80790        2.47470
C          0.02790       11.46360        2.90730
C          0.35300       11.46000        4.36830
C          0.97960       11.12740        1.95350
C          0.67370       11.13920        0.60650
C         -2.54010        9.72710       -0.96060
S         -2.13540        8.92410        0.52140
C         -2.57410       12.00180       -3.87520
C         -1.99540       13.25010       -3.86230
C         -1.49260       13.83410       -5.12260
O         -1.64860       13.41190       -6.24710
C         -0.69640       15.01530       -4.70810
C          0.06730       15.85770       -5.48820
C          0.71970       16.89350       -4.83600
F          1.49220       17.73100       -5.55400
C          0.60910       17.10130       -3.47050
C         -0.16880       16.25040       -2.69890
C         -0.81320       15.19280       -3.31920
C         -1.68360       14.14420       -2.78740
C         -2.28140       14.14300       -1.54510
C         -1.90480       14.98610       -0.48660
N         -1.59860       15.61360        0.42650
C         -3.38270       13.32890       -1.23750
N         -4.31330       12.70980       -0.96740
H          3.67080      -10.62560       -2.61540
H          8.34450      -11.98260        1.30410
H          8.64770      -12.93910       -3.65940
H         10.92070      -14.84330       -1.92320
H         12.19670      -12.83440       -3.12020
H         13.97800      -14.34000       -1.90890
H         13.85920      -13.82830        0.69520
H         12.00610      -12.00770        1.08740
H         12.89950      -11.11120       -1.23680
H         11.12100      -11.17290       -1.30910
H         10.81310      -14.34770        0.63040
H          5.19380       -7.69090       -2.44060
H          6.87770       -8.01890       -4.18060
H          9.47320       -8.05420       -4.59760
H          9.13170       -9.77580       -4.50420
H         10.40970       -9.08310       -3.50210
H          9.72660       -9.17900       -1.22440
H          8.03860       -8.86610        0.52610
H          7.05190       -6.01380        0.52890
H          7.76100       -5.07530        2.68800
H          7.39990       -6.75270        5.89380
H          6.33230       -5.38450        5.59860
H          8.01390       -5.31000        5.07150
H          5.65730       -8.17290        4.73180
H          4.96820       -9.13030        2.56330
H          0.15110       -9.65850        1.73740
H         -0.85440      -11.85070        1.33350
H         -3.92090      -12.43020       -0.27350
H         -2.66590      -12.81450       -1.44580
H         -2.44200      -13.24540        0.25260
H         -3.38940      -10.14740       -1.64260
H         -2.36090       -7.95270       -1.26770
H          0.37050       -5.05230       -0.43450
H         -0.90810       -2.96800       -0.47160
H         -2.81240       -1.68390        0.28620
H         -4.16720       -2.51780       -0.47680
H         -4.05180       -2.46310        1.27980
H         -4.30210       -5.01030        1.10310
H         -3.02780       -7.10760        1.12570
H          1.11060       -7.74280        4.02420
H          0.44940      -10.01960        4.67480
H         -1.92530      -10.67330        4.65550
H         -4.28540       -9.83920        4.81260
H         -4.70410       -8.27600        4.09630
H         -4.17140       -9.18320        1.82610
H         -3.73740      -10.72890        2.54070
H         -5.40940      -10.15870        2.62350
H         -2.99850       -6.72450        3.46250
H         -5.14860        8.81460        1.75800
H         -7.25220       10.06610        1.56600
H         -9.37380        8.87780        1.17570
H        -10.50860        6.83670        0.53510
H         -9.60950        5.32280        0.36030
H        -10.46430        6.56570        3.01820
H        -11.22370        5.17210        2.24170
H         -9.56410        5.05940        2.83870
H         -7.29560        5.15910        1.22870
H         -0.51770        0.51050        1.66720
H         -0.10240       -1.16780        1.29700
H          1.54530       -1.27560        3.07230
H          1.88600        0.13900        2.07770
H          1.13190        0.32750        3.66510
H         -0.50540        3.10570        2.29450
H         -0.32990        1.71370        3.39550
H          0.12810        3.76790        4.62370
H         -1.36180        3.03580        5.23310
H         -1.43460        4.44540        4.16990
H         -6.22200        9.32360       -1.02370
H         -8.07450       10.27190       -2.30610
H         -8.90920        9.93550       -5.25060
H         -9.97360        9.81070       -3.85330
H         -9.86680        8.47500       -5.01130
H         -7.98950        6.91090       -4.93090
H         -6.11150        5.96830       -3.66810
H         -2.69730        5.66100       -1.50850
H         -2.45490        3.27820       -1.00870
H         -4.59910        0.84680       -1.34190
H         -3.40570        1.24860       -0.10520
H         -5.12360        1.17760        0.30670
H         -6.69160        2.89420       -0.74490
H         -6.94010        5.28890       -1.23530
H         -0.20100       10.60610       -3.62100
H          1.46190       11.60210       -5.10390
H          3.96630       13.20230       -4.61230
H          2.68440       13.73460       -5.69530
H          3.24230       14.79550       -4.39190
H          2.35460       14.54570       -2.14980
H          0.64200       13.59710       -0.68250
H         -2.56310       12.09340        0.81720
H         -2.00250       12.07440        3.19970
H         -0.29870       10.76720        4.89870
H          0.19730       12.45150        4.79120
H          1.38570       11.16710        4.53840
H          1.97540       10.84820        2.26530
H          1.42280       10.87150       -0.12430
H         -2.95030       11.69400       -4.84680
H          0.15280       15.72090       -6.55420
H          1.13480       17.92880       -3.02030
H         -0.24910       16.41330       -1.63630
