253

C          9.45830        5.96480        3.01810
C          9.64390        6.83220        4.06550
C         10.34850        6.36980        5.28370
O         10.91640        5.30980        5.44110
C         10.16890        7.44760        6.27940
C         10.63640        7.47230        7.59080
C         10.36960        8.64200        8.26270
C          9.68740        9.71370        7.67330
C          9.21900        9.70240        6.38040
C          9.47640        8.52000        5.68420
C          9.20600        8.17890        4.28750
C          8.82780        9.06750        3.30300
C          9.00610        8.80450        1.93580
N          9.18250        8.65240        0.80980
C          8.29940       10.34690        3.54210
N          7.80350       11.37590        3.67220
C          9.83640       10.58600        8.89580
C          8.61890       10.77790        9.83180
C          7.75870        9.54890        9.68230
C          8.40290        8.53290       10.24030
C          9.71040        9.05660       10.77860
C          9.28450       10.47710       11.18480
C         10.59570        9.39110        9.55390
C          8.51230        5.96220        1.98200
C          7.25050        6.57390        1.85480
N          6.58120        7.22840        2.86090
C          5.54220        8.13250        2.54340
C          4.31490        8.04390        3.19290
C          3.31280        8.95120        2.90980
C          3.50730        9.96770        1.98370
C          2.42550       10.95340        1.66840
C          4.73590       10.04450        1.33820
C          5.74140        9.13730        1.60110
C          6.68550        6.78660        4.19250
C          6.57780        7.70040        5.23880
C          6.70750        7.27560        6.54680
C          6.95150        5.94220        6.84840
C          7.15380        5.49690        8.26170
C          7.01880        5.03110        5.80040
C          6.87950        5.44040        4.49120
C          6.67800        6.28220        0.59710
S          5.18740        6.70790       -0.16970
C          5.55780        5.65880       -1.52960
C          6.78630        5.03630       -1.39400
N          7.31920        4.16340       -2.32340
C          8.06430        3.05740       -1.89360
C          7.72180        2.37840       -0.72700
C          8.47810        1.30410       -0.30180
C          9.57900        0.86910       -1.02830
C         10.41230       -0.27860       -0.54620
C          9.90040        1.53950       -2.20310
C          9.16010        2.62140       -2.63390
C          7.04340        4.34210       -3.68940
C          6.69520        3.25210       -4.48340
C          6.36850        3.44010       -5.81070
C          6.39790        4.70650       -6.38530
C          5.99860        4.89850       -7.81620
C          6.78720        5.78020       -5.59560
C          7.09870        5.60830       -4.26130
C          7.42390        5.41320       -0.18700
S          8.89100        4.94980        0.58450
C          4.56720        5.28470       -2.51140
C          3.96620        5.94560       -3.55770
C          4.22290        7.32400       -3.97610
C          4.27020        7.62240       -5.33770
C          4.53430        8.91090       -5.75780
C          4.75610        9.91680       -4.83340
C          4.69270        9.64390       -3.47400
C          4.96480       10.71220       -2.45540
C          6.41460       10.62430       -1.97400
C          4.41900        8.34890       -3.05860
C          3.09070        5.08180       -4.26560
S          2.00940        5.32870       -5.61820
C          1.44740        3.69840       -5.45450
C          0.50290        2.82210       -6.02530
C         -0.37060        2.94210       -7.12840
C         -1.23560        1.84080       -7.46030
N         -1.96700        2.08110       -8.53660
S         -1.60540        3.56070       -9.08550
N         -0.50100        3.95580       -7.96940
C         -1.27980        0.71870       -6.60250
C         -2.17410       -0.36250       -6.51630
S         -3.56190       -0.98760       -7.34420
C         -3.76650       -2.16310       -6.06690
C         -4.72900       -3.16570       -5.84010
C         -5.84050       -3.44790       -6.75370
C         -6.70800       -2.42750       -7.12670
C         -7.76770       -2.70270       -7.97060
C         -7.96240       -3.98470       -8.45170
C         -7.08790       -5.00950       -8.11110
C         -7.32200       -6.40800       -8.60470
C         -8.32520       -7.12400       -7.69920
C         -6.02810       -4.72910       -7.26310
C         -4.49240       -3.83100       -4.65100
S         -3.05130       -3.23910       -3.82920
C         -2.78660       -2.07440       -5.07590
C         -1.86980       -1.05020       -5.33720
N         -0.80310       -0.46090       -4.71190
C         -0.41910        0.62430       -5.47510
C          0.56750        1.61930       -5.27350
N          1.57190        1.73120       -4.32460
C          2.08140        3.00140       -4.42670
C          3.02120        3.79120       -3.75250
S          4.05990        3.59650       -2.39390
C          2.41770        0.67400       -3.81210
C          3.71440        0.56680       -4.61480
C         -0.50220       -0.77390       -3.33290
C          0.22850       -2.10890       -3.19010
C         -5.27810       -4.79640       -3.96330
C         -4.92990       -5.42850       -2.80030
C         -5.93950       -6.26240       -2.27420
C         -5.89030       -7.05430       -1.11050
C         -4.75450       -7.02700       -0.21540
C         -4.02800       -5.95180        0.21990
C         -3.04090       -6.28190        1.16330
C         -3.00430       -7.61910        1.44460
S         -1.88640       -8.39120        2.53850
C         -2.67110      -10.02080        2.81050
C         -3.92770       -9.94090        3.65420
S         -4.18600       -8.49650        0.52690
C         -7.01000       -7.83460       -0.83920
C         -8.16520       -7.84540       -1.66440
C         -8.20460       -7.06900       -2.85250
C         -9.32670       -7.13190       -3.75710
C        -10.06920       -8.23070       -4.10480
C        -11.06310       -7.96650       -5.05980
C        -11.09270       -6.65320       -5.43700
S        -12.10290       -5.84270       -6.60900
C        -13.61450       -6.87350       -6.58250
C        -14.32410       -6.81350       -5.24510
S         -9.88120       -5.71970       -4.62100
C         -7.09490       -6.27280       -3.09770
S         -6.89620       -5.22200       -4.47820
C         -9.18310       -8.62480       -1.09880
C         -8.84240       -9.22480        0.10210
S         -7.20630       -8.82720        0.57570
C         -9.74480      -10.04290        0.80880
C         -9.59930      -10.70950        1.99440
C         -8.40840      -10.70360        2.86050
O         -7.34330      -10.14800        2.66560
C         -8.75250      -11.51430        4.03990
C         -7.93660      -11.77520        5.13800
C         -8.52360      -12.56870        6.09340
C         -9.83000      -13.06030        5.96800
C        -10.64660      -12.80510        4.89210
C        -10.06620      -12.00540        3.90300
C        -10.61080      -11.53340        2.63110
C        -11.85390      -11.84480        2.14080
C        -12.79260      -12.66360        2.80300
N        -13.60920      -13.31950        3.27420
C        -12.39240      -11.41920        0.90870
N        -12.91400      -11.12940       -0.07370
C         -9.76670      -13.79000        7.28640
C         -9.55550      -15.32380        7.25040
C         -8.82620      -15.62650        5.96490
C         -7.58930      -15.16230        6.08220
C         -7.45980      -14.53750        7.44940
C         -8.39840      -15.45050        8.25430
C         -8.31080      -13.24340        7.42510
H         10.12890        5.10970        3.02480
H         11.18180        6.63580        7.99990
H          8.70530       10.53730        5.93220
H         10.38690       11.51270        8.74360
H          8.11230       11.73350        9.72430
H          6.81840        9.54100        9.16230
H          8.11500        7.49940       10.27920
H         10.19620        8.44480       11.53450
H          8.57780       10.48450       12.01350
H         10.12330       11.13370       11.41140
H         11.63740        9.54490        9.83050
H          4.14910        7.26040        3.91800
H          2.36450        8.86550        3.42010
H          2.82310       11.96640        1.65840
H          2.00920       10.74890        0.68160
H          1.62100       10.89760        2.39710
H          4.91580       10.83710        0.62880
H          6.68650        9.21700        1.08800
H          6.39110        8.74230        5.02170
H          6.63950        7.99700        7.34670
H          8.20640        5.60280        8.52720
H          6.56520        6.10330        8.94620
H          6.87880        4.45190        8.38380
H          7.18000        3.98460        6.01210
H          6.91900        4.71280        3.69460
H          6.85370        2.68880       -0.16350
H          8.20280        0.78970        0.60780
H         10.87490       -0.80110       -1.38030
H          9.81120       -0.98350        0.02380
H         11.20740        0.08790        0.10410
H         10.75100        1.21530       -2.78510
H          9.42610        3.13970       -3.54330
H          6.67140        2.26480       -4.04450
H          6.07800        2.59040       -6.41270
H          6.22980        5.90620       -8.15150
H          6.51300        4.18670       -8.45980
H          4.92650        4.73480       -7.93120
H          6.84390        6.76950       -6.02470
H          7.38020        6.45720       -3.65590
H          4.11760        6.84130       -6.06500
H          4.57080        9.13180       -6.81470
H          4.97010       10.92150       -5.16870
H          4.78600       11.69730       -2.89080
H          4.29150       10.58310       -1.60550
H          6.62660       11.40070       -1.24240
H          7.09810       10.74570       -2.81130
H          6.60460        9.65620       -1.51640
H          4.33350        8.14600       -2.00240
H         -6.55880       -1.42990       -6.74170
H         -8.44780       -1.91240       -8.25150
H         -8.79850       -4.19380       -9.10310
H         -6.38150       -6.96230       -8.61250
H         -7.71330       -6.38130       -9.62380
H         -7.95160       -7.16170       -6.67800
H         -9.27410       -6.59270       -7.69690
H         -8.49600       -8.14120       -8.04460
H         -5.33210       -5.51250       -6.99650
H          2.64860        0.89050       -2.76390
H          1.89030       -0.27110       -3.88240
H          3.49200        0.36750       -5.66130
H          4.28780        1.48720       -4.55010
H          4.31900       -0.24700       -4.22350
H          0.06750        0.04790       -2.89880
H         -1.45330       -0.84190       -2.79200
H         -0.42500       -2.92570       -3.48340
H          0.52070       -2.25760       -2.15450
H          1.11760       -2.15130       -3.81530
H         -3.96200       -5.31040       -2.34750
H         -4.23730       -4.94130       -0.08270
H         -2.39010       -5.56820        1.63390
H         -1.89580      -10.60000        3.31250
H         -2.86740      -10.45610        1.83080
H         -4.72240       -9.41090        3.13480
H         -3.72200       -9.43650        4.59600
H         -4.28130      -10.94820        3.86480
H         -9.87030       -9.21870       -3.73050
H        -11.71450       -8.72430       -5.45480
H        -14.23060       -6.45080       -7.37560
H        -13.33540       -7.89000       -6.85600
H        -13.69100       -7.20870       -4.45340
H        -15.23700       -7.40400       -5.28590
H        -14.58360       -5.78620       -5.00010
H        -10.16470       -8.73060       -1.52500
H        -10.70170      -10.13710        0.30960
H         -6.93860      -11.36910        5.19430
H        -11.65040      -13.18790        4.81710
H        -10.49800      -13.48930        8.03390
H        -10.45190      -15.90720        7.44220
H         -9.28750      -16.08120        5.10790
H         -6.81040      -15.15190        5.34230
H         -6.44770      -14.40550        7.82320
H         -8.02400      -16.46950        8.33900
H         -8.63770      -15.06290        9.24360
H         -8.09060      -12.58620        8.26410
