
  xtb     02232202073D
 energy: -493.216616023708 gnorm: 0.000291119052 xtb: 6.4.1 (unknown)
300331  0     0  0            999 V2000
    7.5676    6.5251    7.9519 C   0  0  0  0  0  0  0  0  0  0  0  0
    7.7374    7.8798    7.7602 C   0  0  0  0  0  0  0  0  0  0  0  0
    6.6298    8.8242    7.5451 C   0  0  0  0  0  0  0  0  0  0  0  0
    5.4417    8.5662    7.4770 O   0  0  0  0  0  0  0  0  0  0  0  0
    7.2413   10.1698    7.5593 C   0  0  0  0  0  0  0  0  0  0  0  0
    6.5915   11.3884    7.3955 C   0  0  0  0  0  0  0  0  0  0  0  0
    7.4288   12.4787    7.4293 C   0  0  0  0  0  0  0  0  0  0  0  0
    8.8101   12.3657    7.6241 C   0  0  0  0  0  0  0  0  0  0  0  0
    9.4632   11.1674    7.7948 C   0  0  0  0  0  0  0  0  0  0  0  0
    8.6304   10.0480    7.7548 C   0  0  0  0  0  0  0  0  0  0  0  0
    8.9582    8.6275    7.8612 C   0  0  0  0  0  0  0  0  0  0  0  0
   10.2234    8.0906    7.8703 C   0  0  0  0  0  0  0  0  0  0  0  0
   11.4097    8.8448    7.8408 C   0  0  0  0  0  0  0  0  0  0  0  0
   12.4146    9.4014    7.7980 N   0  0  0  0  0  0  0  0  0  0  0  0
   10.4915    6.7088    7.8183 C   0  0  0  0  0  0  0  0  0  0  0  0
   10.7851    5.6005    7.7414 N   0  0  0  0  0  0  0  0  0  0  0  0
    9.0228   13.8580    7.5604 C   0  0  0  0  0  0  0  0  0  0  0  0
    9.2412   14.6148    8.8936 C   0  0  0  0  0  0  0  0  0  0  0  0
    8.5544   13.8045    9.9645 C   0  0  0  0  0  0  0  0  0  0  0  0
    7.2458   13.9120    9.7771 C   0  0  0  0  0  0  0  0  0  0  0  0
    7.0243   14.7971    8.5756 C   0  0  0  0  0  0  0  0  0  0  0  0
    8.2210   15.7511    8.7179 C   0  0  0  0  0  0  0  0  0  0  0  0
    7.4823   13.9841    7.3397 C   0  0  0  0  0  0  0  0  0  0  0  0
    6.5043    5.7595    7.4672 C   0  0  0  0  0  0  0  0  0  0  0  0
    5.6368    5.9640    6.3735 C   0  0  0  0  0  0  0  0  0  0  0  0
    5.7334    6.9278    5.4108 N   0  0  0  0  0  0  0  0  0  0  0  0
    6.9428    7.5438    5.0645 C   0  0  0  0  0  0  0  0  0  0  0  0
    8.1371    6.8246    5.0228 C   0  0  0  0  0  0  0  0  0  0  0  0
    9.3197    7.4617    4.7140 C   0  0  0  0  0  0  0  0  0  0  0  0
    9.3541    8.8271    4.4383 C   0  0  0  0  0  0  0  0  0  0  0  0
   10.6560    9.5084    4.1570 C   0  0  0  0  0  0  0  0  0  0  0  0
    8.1552    9.5267    4.4387 C   0  0  0  0  0  0  0  0  0  0  0  0
    6.9617    8.8995    4.7434 C   0  0  0  0  0  0  0  0  0  0  0  0
    4.5737    7.2890    4.6914 C   0  0  0  0  0  0  0  0  0  0  0  0
    4.6148    7.3796    3.3041 C   0  0  0  0  0  0  0  0  0  0  0  0
    3.4741    7.7173    2.6030 C   0  0  0  0  0  0  0  0  0  0  0  0
    2.2761    7.9711    3.2613 C   0  0  0  0  0  0  0  0  0  0  0  0
    1.0343    8.2993    2.4910 C   0  0  0  0  0  0  0  0  0  0  0  0
    2.2532    7.8953    4.6491 C   0  0  0  0  0  0  0  0  0  0  0  0
    3.3862    7.5602    5.3636 C   0  0  0  0  0  0  0  0  0  0  0  0
    4.6836    4.9222    6.3039 C   0  0  0  0  0  0  0  0  0  0  0  0
    3.3929    4.5510    5.2153 S   0  0  0  0  0  0  0  0  0  0  0  0
    3.0776    3.0263    6.0449 C   0  0  0  0  0  0  0  0  0  0  0  0
    3.9636    2.8169    7.0957 C   0  0  0  0  0  0  0  0  0  0  0  0
    4.0002    1.7309    7.9642 N   0  0  0  0  0  0  0  0  0  0  0  0
    4.1385    2.0141    9.3319 C   0  0  0  0  0  0  0  0  0  0  0  0
    3.4566    3.0975    9.8826 C   0  0  0  0  0  0  0  0  0  0  0  0
    3.5941    3.3996   11.2218 C   0  0  0  0  0  0  0  0  0  0  0  0
    4.4002    2.6299   12.0517 C   0  0  0  0  0  0  0  0  0  0  0  0
    4.5163    2.9465   13.5107 C   0  0  0  0  0  0  0  0  0  0  0  0
    5.0775    1.5519   11.4947 C   0  0  0  0  0  0  0  0  0  0  0  0
    4.9599    1.2470   10.1534 C   0  0  0  0  0  0  0  0  0  0  0  0
    4.1075    0.4271    7.4760 C   0  0  0  0  0  0  0  0  0  0  0  0
    4.6997    0.1785    6.2392 C   0  0  0  0  0  0  0  0  0  0  0  0
    4.7386   -1.1055    5.7286 C   0  0  0  0  0  0  0  0  0  0  0  0
    4.2099   -2.1730    6.4381 C   0  0  0  0  0  0  0  0  0  0  0  0
    4.2245   -3.5649    5.8877 C   0  0  0  0  0  0  0  0  0  0  0  0
    3.6532   -1.9221    7.6894 C   0  0  0  0  0  0  0  0  0  0  0  0
    3.5918   -0.6460    8.2046 C   0  0  0  0  0  0  0  0  0  0  0  0
    4.8508    3.9119    7.2372 C   0  0  0  0  0  0  0  0  0  0  0  0
    6.1877    4.2181    8.2821 S   0  0  0  0  0  0  0  0  0  0  0  0
    1.9864    2.2688    5.5334 C   0  0  0  0  0  0  0  0  0  0  0  0
    1.0166    2.7828    4.6945 C   0  0  0  0  0  0  0  0  0  0  0  0
    0.0970    1.8157    4.2939 C   0  0  0  0  0  0  0  0  0  0  0  0
   -1.2933    1.8348    3.2498 S   0  0  0  0  0  0  0  0  0  0  0  0
   -1.4679    0.1267    3.4859 C   0  0  0  0  0  0  0  0  0  0  0  0
   -2.3364   -0.8846    2.9730 C   0  0  0  0  0  0  0  0  0  0  0  0
   -3.3793   -0.8038    2.0552 C   0  0  0  0  0  0  0  0  0  0  0  0
   -3.9475   -1.9861    1.6469 C   0  0  0  0  0  0  0  0  0  0  0  0
   -5.0098   -2.1846    0.5812 C   0  0  0  0  0  0  0  0  0  0  0  0
   -4.6268   -1.4864   -0.7131 C   0  0  0  0  0  0  0  0  0  0  0  0
   -3.6842   -2.0603   -1.5593 C   0  0  0  0  0  0  0  0  0  0  0  0
   -3.3749   -1.4785   -2.7735 C   0  0  0  0  0  0  0  0  0  0  0  0
   -3.9926   -0.2995   -3.1678 C   0  0  0  0  0  0  0  0  0  0  0  0
   -3.6792    0.3111   -4.5080 C   0  0  0  0  0  0  0  0  0  0  0  0
   -3.5231   -0.7140   -5.4680 O   0  0  0  0  0  0  0  0  0  0  0  0
   -3.4418   -0.2382   -6.7711 C   0  0  0  0  0  0  0  0  0  0  0  0
   -3.4378   -1.3414   -7.6152 O   0  0  0  0  0  0  0  0  0  0  0  0
   -3.6736   -1.0007   -8.9614 C   0  0  0  0  0  0  0  0  0  0  0  0
   -4.8950    0.3022   -2.3020 C   0  0  0  0  0  0  0  0  0  0  0  0
   -5.2047   -0.2805   -1.0855 C   0  0  0  0  0  0  0  0  0  0  0  0
   -6.4090   -1.8134    1.0404 C   0  0  0  0  0  0  0  0  0  0  0  0
   -6.6744   -1.3601    2.3242 C   0  0  0  0  0  0  0  0  0  0  0  0
   -7.9708   -1.0657    2.7088 C   0  0  0  0  0  0  0  0  0  0  0  0
   -9.0268   -1.2306    1.8238 C   0  0  0  0  0  0  0  0  0  0  0  0
  -10.4351   -0.9276    2.2595 C   0  0  0  0  0  0  0  0  0  0  0  0
  -11.2501   -0.6880    1.1393 O   0  0  0  0  0  0  0  0  0  0  0  0
  -12.5780   -0.3803    1.4752 C   0  0  0  0  0  0  0  0  0  0  0  0
  -13.3507   -0.2643    0.3411 O   0  0  0  0  0  0  0  0  0  0  0  0
  -12.9804    0.8158   -0.4952 C   0  0  0  0  0  0  0  0  0  0  0  0
   -8.7632   -1.6974    0.5433 C   0  0  0  0  0  0  0  0  0  0  0  0
   -7.4690   -1.9833    0.1563 C   0  0  0  0  0  0  0  0  0  0  0  0
   -4.9526   -3.6809    0.4241 C   0  0  0  0  0  0  0  0  0  0  0  0
   -4.1186   -4.2518    1.3653 C   0  0  0  0  0  0  0  0  0  0  0  0
   -3.4836   -3.2281    2.1430 C   0  0  0  0  0  0  0  0  0  0  0  0
   -2.4803   -3.3013    3.1053 C   0  0  0  0  0  0  0  0  0  0  0  0
   -1.9097   -2.1185    3.5178 C   0  0  0  0  0  0  0  0  0  0  0  0
   -0.7120   -1.9157    4.4391 C   0  0  0  0  0  0  0  0  0  0  0  0
    0.4348   -2.7490    3.8994 C   0  0  0  0  0  0  0  0  0  0  0  0
    1.4136   -2.2083    3.0786 C   0  0  0  0  0  0  0  0  0  0  0  0
    2.3900   -3.0168    2.5253 C   0  0  0  0  0  0  0  0  0  0  0  0
    2.3960   -4.3864    2.7530 C   0  0  0  0  0  0  0  0  0  0  0  0
    3.4389   -5.2632    2.1077 C   0  0  0  0  0  0  0  0  0  0  0  0
    4.6283   -5.3762    2.8896 O   0  0  0  0  0  0  0  0  0  0  0  0
    4.5762   -6.3611    3.8777 C   0  0  0  0  0  0  0  0  0  0  0  0
    4.4257   -7.6524    3.3769 O   0  0  0  0  0  0  0  0  0  0  0  0
    5.5424   -8.1097    2.6407 C   0  0  0  0  0  0  0  0  0  0  0  0
    1.4276   -4.9233    3.5932 C   0  0  0  0  0  0  0  0  0  0  0  0
    0.4680   -4.1126    4.1698 C   0  0  0  0  0  0  0  0  0  0  0  0
   -0.9556   -2.1919    5.9085 C   0  0  0  0  0  0  0  0  0  0  0  0
   -2.2306   -2.1967    6.4555 C   0  0  0  0  0  0  0  0  0  0  0  0
   -2.4029   -2.3250    7.8228 C   0  0  0  0  0  0  0  0  0  0  0  0
   -1.3089   -2.4638    8.6664 C   0  0  0  0  0  0  0  0  0  0  0  0
   -1.4863   -2.5118   10.1640 C   0  0  0  0  0  0  0  0  0  0  0  0
   -1.4862   -1.2203   10.7493 O   0  0  0  0  0  0  0  0  0  0  0  0
   -0.2673   -0.5590   10.6698 C   0  0  0  0  0  0  0  0  0  0  0  0
   -0.3452    0.5435   11.5124 O   0  0  0  0  0  0  0  0  0  0  0  0
    0.7910    1.3655   11.4327 C   0  0  0  0  0  0  0  0  0  0  0  0
   -0.0355   -2.4765    8.1101 C   0  0  0  0  0  0  0  0  0  0  0  0
    0.1426   -2.3290    6.7492 C   0  0  0  0  0  0  0  0  0  0  0  0
   -0.5127   -0.4274    4.3157 C   0  0  0  0  0  0  0  0  0  0  0  0
    0.3640    0.5392    4.8076 C   0  0  0  0  0  0  0  0  0  0  0  0
    1.7364    0.5580    5.8503 S   0  0  0  0  0  0  0  0  0  0  0  0
   -3.8522   -5.9500    1.1078 S   0  0  0  0  0  0  0  0  0  0  0  0
   -4.7883   -5.8665   -0.3624 C   0  0  0  0  0  0  0  0  0  0  0  0
   -4.9089   -6.6995   -1.4816 C   0  0  0  0  0  0  0  0  0  0  0  0
   -5.5375   -6.0624   -2.5274 C   0  0  0  0  0  0  0  0  0  0  0  0
   -6.0990   -4.4511   -2.0895 S   0  0  0  0  0  0  0  0  0  0  0  0
   -5.3437   -4.5940   -0.5501 C   0  0  0  0  0  0  0  0  0  0  0  0
   -5.5057   -6.3678   -3.9163 C   0  0  0  0  0  0  0  0  0  0  0  0
   -5.8570   -5.4910   -4.9046 C   0  0  0  0  0  0  0  0  0  0  0  0
   -5.3419   -5.8213   -6.1755 C   0  0  0  0  0  0  0  0  0  0  0  0
   -5.3707   -5.0322   -7.3364 C   0  0  0  0  0  0  0  0  0  0  0  0
   -6.0012   -3.7076   -7.3543 C   0  0  0  0  0  0  0  0  0  0  0  0
   -5.7779   -2.7845   -6.3327 C   0  0  0  0  0  0  0  0  0  0  0  0
   -6.3950   -1.5546   -6.3551 C   0  0  0  0  0  0  0  0  0  0  0  0
   -7.2166   -1.1669   -7.4127 C   0  0  0  0  0  0  0  0  0  0  0  0
   -7.8403    0.4879   -7.3408 S   0  0  0  0  0  0  0  0  0  0  0  0
   -9.4526    0.4676   -8.2179 C   0  0  0  0  0  0  0  0  0  0  0  0
   -9.3631    1.0563   -9.6119 C   0  0  0  0  0  0  0  0  0  0  0  0
   -7.3998   -2.0820   -8.4431 C   0  0  0  0  0  0  0  0  0  0  0  0
   -8.1614   -1.7792   -9.5203 F   0  0  0  0  0  0  0  0  0  0  0  0
   -6.8246   -3.3363   -8.4120 C   0  0  0  0  0  0  0  0  0  0  0  0
   -4.7018   -5.5360   -8.4433 C   0  0  0  0  0  0  0  0  0  0  0  0
   -4.0538   -6.8007   -8.4412 C   0  0  0  0  0  0  0  0  0  0  0  0
   -4.0507   -7.6067   -7.2780 C   0  0  0  0  0  0  0  0  0  0  0  0
   -3.4069   -8.9238   -7.2718 C   0  0  0  0  0  0  0  0  0  0  0  0
   -2.4948   -9.2888   -6.2822 C   0  0  0  0  0  0  0  0  0  0  0  0
   -1.9028  -10.5320   -6.2985 C   0  0  0  0  0  0  0  0  0  0  0  0
   -2.2049  -11.4724   -7.2846 C   0  0  0  0  0  0  0  0  0  0  0  0
   -1.4065  -13.0383   -7.1598 S   0  0  0  0  0  0  0  0  0  0  0  0
   -1.3192  -13.6534   -8.8895 C   0  0  0  0  0  0  0  0  0  0  0  0
   -0.2148  -14.6878   -8.9805 C   0  0  0  0  0  0  0  0  0  0  0  0
   -3.1407  -11.1051   -8.2482 C   0  0  0  0  0  0  0  0  0  0  0  0
   -3.7188   -9.8524   -8.2605 C   0  0  0  0  0  0  0  0  0  0  0  0
   -3.5331  -11.9743   -9.2066 F   0  0  0  0  0  0  0  0  0  0  0  0
   -4.6556   -7.0673   -6.1593 C   0  0  0  0  0  0  0  0  0  0  0  0
   -4.6542   -7.7631   -4.5510 S   0  0  0  0  0  0  0  0  0  0  0  0
   -3.3601   -7.0179   -9.6420 C   0  0  0  0  0  0  0  0  0  0  0  0
   -3.4267   -5.9609  -10.5332 C   0  0  0  0  0  0  0  0  0  0  0  0
   -4.4185   -4.6567   -9.9146 S   0  0  0  0  0  0  0  0  0  0  0  0
   -2.7313   -5.9764  -11.7607 C   0  0  0  0  0  0  0  0  0  0  0  0
   -2.5545   -4.9925  -12.6924 C   0  0  0  0  0  0  0  0  0  0  0  0
   -3.0468   -3.6063  -12.6054 C   0  0  0  0  0  0  0  0  0  0  0  0
   -3.7785   -3.1236  -11.7610 O   0  0  0  0  0  0  0  0  0  0  0  0
   -2.4647   -2.8899  -13.7510 C   0  0  0  0  0  0  0  0  0  0  0  0
   -2.6179   -1.5378  -14.0521 C   0  0  0  0  0  0  0  0  0  0  0  0
   -1.9457   -1.1385  -15.1816 C   0  0  0  0  0  0  0  0  0  0  0  0
   -1.1814   -2.0210  -15.9575 C   0  0  0  0  0  0  0  0  0  0  0  0
   -1.0284   -3.3575  -15.6750 C   0  0  0  0  0  0  0  0  0  0  0  0
   -1.7002   -3.7855  -14.5248 C   0  0  0  0  0  0  0  0  0  0  0  0
   -1.7603   -5.1074  -13.9043 C   0  0  0  0  0  0  0  0  0  0  0  0
   -1.1736   -6.2417  -14.4030 C   0  0  0  0  0  0  0  0  0  0  0  0
   -1.2330   -7.5288  -13.8279 C   0  0  0  0  0  0  0  0  0  0  0  0
   -1.2237   -8.6100  -13.4390 N   0  0  0  0  0  0  0  0  0  0  0  0
   -0.4151   -6.2928  -15.5918 C   0  0  0  0  0  0  0  0  0  0  0  0
    0.2147   -6.4141  -16.5442 N   0  0  0  0  0  0  0  0  0  0  0  0
   -0.7749   -0.9411  -16.9290 C   0  0  0  0  0  0  0  0  0  0  0  0
    0.6547   -0.3799  -16.7743 C   0  0  0  0  0  0  0  0  0  0  0  0
    0.6043    0.9442  -17.5018 C   0  0  0  0  0  0  0  0  0  0  0  0
   -0.1203    1.7799  -16.7690 C   0  0  0  0  0  0  0  0  0  0  0  0
   -0.5716    1.0347  -15.5335 C   0  0  0  0  0  0  0  0  0  0  0  0
    0.6393    0.1166  -15.3227 C   0  0  0  0  0  0  0  0  0  0  0  0
   -1.6279    0.0423  -16.0649 C   0  0  0  0  0  0  0  0  0  0  0  0
    8.2959    5.9903    8.5498 H   0  0  0  0  0  0  0  0  0  0  0  0
    5.5235   11.4333    7.2475 H   0  0  0  0  0  0  0  0  0  0  0  0
   10.5265   11.0946    7.9525 H   0  0  0  0  0  0  0  0  0  0  0  0
    9.6818   14.2134    6.7703 H   0  0  0  0  0  0  0  0  0  0  0  0
   10.2729   14.8938    9.0903 H   0  0  0  0  0  0  0  0  0  0  0  0
    9.0751   13.2072   10.6899 H   0  0  0  0  0  0  0  0  0  0  0  0
    6.4550   13.4221   10.3143 H   0  0  0  0  0  0  0  0  0  0  0  0
    6.0372   15.2429    8.4830 H   0  0  0  0  0  0  0  0  0  0  0  0
    8.1477   16.3914    9.5957 H   0  0  0  0  0  0  0  0  0  0  0  0
    8.3982   16.3599    7.8322 H   0  0  0  0  0  0  0  0  0  0  0  0
    7.1362   14.4212    6.4046 H   0  0  0  0  0  0  0  0  0  0  0  0
    8.1365    5.7662    5.2366 H   0  0  0  0  0  0  0  0  0  0  0  0
   10.2374    6.8920    4.6943 H   0  0  0  0  0  0  0  0  0  0  0  0
   10.4989   10.5440    3.8669 H   0  0  0  0  0  0  0  0  0  0  0  0
   11.1917    8.9957    3.3596 H   0  0  0  0  0  0  0  0  0  0  0  0
   11.2908    9.4915    5.0431 H   0  0  0  0  0  0  0  0  0  0  0  0
    8.1528   10.5836    4.2149 H   0  0  0  0  0  0  0  0  0  0  0  0
    6.0381    9.4585    4.7497 H   0  0  0  0  0  0  0  0  0  0  0  0
    5.5395    7.1792    2.7827 H   0  0  0  0  0  0  0  0  0  0  0  0
    3.5132    7.7785    1.5250 H   0  0  0  0  0  0  0  0  0  0  0  0
    1.2759    8.8094    1.5615 H   0  0  0  0  0  0  0  0  0  0  0  0
    0.3676    8.9271    3.0773 H   0  0  0  0  0  0  0  0  0  0  0  0
    0.5000    7.3817    2.2418 H   0  0  0  0  0  0  0  0  0  0  0  0
    1.3360    8.1077    5.1789 H   0  0  0  0  0  0  0  0  0  0  0  0
    3.3763    7.5326    6.4418 H   0  0  0  0  0  0  0  0  0  0  0  0
    2.8195    3.7027    9.2536 H   0  0  0  0  0  0  0  0  0  0  0  0
    3.0626    4.2463   11.6307 H   0  0  0  0  0  0  0  0  0  0  0  0
    3.6679    2.5269   14.0527 H   0  0  0  0  0  0  0  0  0  0  0  0
    4.5173    4.0220   13.6731 H   0  0  0  0  0  0  0  0  0  0  0  0
    5.4274    2.5257   13.9287 H   0  0  0  0  0  0  0  0  0  0  0  0
    5.7213    0.9479   12.1177 H   0  0  0  0  0  0  0  0  0  0  0  0
    5.5140    0.4211    9.7333 H   0  0  0  0  0  0  0  0  0  0  0  0
    5.1198    0.9984    5.6751 H   0  0  0  0  0  0  0  0  0  0  0  0
    5.1863   -1.2783    4.7610 H   0  0  0  0  0  0  0  0  0  0  0  0
    3.2173   -3.9811    5.8869 H   0  0  0  0  0  0  0  0  0  0  0  0
    4.8508   -4.2104    6.5033 H   0  0  0  0  0  0  0  0  0  0  0  0
    4.6042   -3.5816    4.8698 H   0  0  0  0  0  0  0  0  0  0  0  0
    3.2515   -2.7476    8.2597 H   0  0  0  0  0  0  0  0  0  0  0  0
    3.1265   -0.4631    9.1621 H   0  0  0  0  0  0  0  0  0  0  0  0
    0.9882    3.8138    4.3919 H   0  0  0  0  0  0  0  0  0  0  0  0
   -3.6932    0.1470    1.6519 H   0  0  0  0  0  0  0  0  0  0  0  0
   -3.1899   -2.9769   -1.2716 H   0  0  0  0  0  0  0  0  0  0  0  0
   -2.6666   -1.9460   -3.4390 H   0  0  0  0  0  0  0  0  0  0  0  0
   -4.4894    0.9934   -4.8112 H   0  0  0  0  0  0  0  0  0  0  0  0
   -2.7513    0.9073   -4.4434 H   0  0  0  0  0  0  0  0  0  0  0  0
   -2.5170    0.3691   -6.9097 H   0  0  0  0  0  0  0  0  0  0  0  0
   -4.3110    0.4205   -6.9965 H   0  0  0  0  0  0  0  0  0  0  0  0
   -2.8826   -0.3460   -9.3476 H   0  0  0  0  0  0  0  0  0  0  0  0
   -3.6874   -1.9303   -9.5249 H   0  0  0  0  0  0  0  0  0  0  0  0
   -4.6384   -0.4924   -9.0743 H   0  0  0  0  0  0  0  0  0  0  0  0
   -5.3723    1.2302   -2.5827 H   0  0  0  0  0  0  0  0  0  0  0  0
   -5.9198    0.1984   -0.4331 H   0  0  0  0  0  0  0  0  0  0  0  0
   -5.8684   -1.2283    3.0302 H   0  0  0  0  0  0  0  0  0  0  0  0
   -8.1606   -0.7053    3.7097 H   0  0  0  0  0  0  0  0  0  0  0  0
  -10.4427   -0.0498    2.9273 H   0  0  0  0  0  0  0  0  0  0  0  0
  -10.8343   -1.7815    2.8362 H   0  0  0  0  0  0  0  0  0  0  0  0
  -13.0250   -1.1917    2.0724 H   0  0  0  0  0  0  0  0  0  0  0  0
  -12.5956    0.5579    2.0752 H   0  0  0  0  0  0  0  0  0  0  0  0
  -13.6765    0.8022   -1.3304 H   0  0  0  0  0  0  0  0  0  0  0  0
  -11.9575    0.6962   -0.8595 H   0  0  0  0  0  0  0  0  0  0  0  0
  -13.0640    1.7674    0.0428 H   0  0  0  0  0  0  0  0  0  0  0  0
   -9.5820   -1.8267   -0.1457 H   0  0  0  0  0  0  0  0  0  0  0  0
   -7.2756   -2.3370   -0.8460 H   0  0  0  0  0  0  0  0  0  0  0  0
   -2.1444   -4.2588    3.4707 H   0  0  0  0  0  0  0  0  0  0  0  0
    1.4130   -1.1509    2.8604 H   0  0  0  0  0  0  0  0  0  0  0  0
    3.1477   -2.5807    1.8911 H   0  0  0  0  0  0  0  0  0  0  0  0
    3.7645   -4.8237    1.1611 H   0  0  0  0  0  0  0  0  0  0  0  0
    3.0330   -6.2644    1.9207 H   0  0  0  0  0  0  0  0  0  0  0  0
    5.5216   -6.2546    4.4312 H   0  0  0  0  0  0  0  0  0  0  0  0
    3.7265   -6.2101    4.5573 H   0  0  0  0  0  0  0  0  0  0  0  0
    5.2824   -9.0995    2.2727 H   0  0  0  0  0  0  0  0  0  0  0  0
    5.7593   -7.4454    1.7992 H   0  0  0  0  0  0  0  0  0  0  0  0
    6.4278   -8.1723    3.2832 H   0  0  0  0  0  0  0  0  0  0  0  0
    1.4117   -5.9869    3.7849 H   0  0  0  0  0  0  0  0  0  0  0  0
   -0.2653   -4.5435    4.8363 H   0  0  0  0  0  0  0  0  0  0  0  0
   -3.0909   -2.0875    5.8112 H   0  0  0  0  0  0  0  0  0  0  0  0
   -3.3979   -2.3073    8.2420 H   0  0  0  0  0  0  0  0  0  0  0  0
   -0.6923   -3.1248   10.6188 H   0  0  0  0  0  0  0  0  0  0  0  0
   -2.4603   -2.9293   10.4267 H   0  0  0  0  0  0  0  0  0  0  0  0
    0.5622   -1.2330   10.9889 H   0  0  0  0  0  0  0  0  0  0  0  0
   -0.0524   -0.2316    9.6278 H   0  0  0  0  0  0  0  0  0  0  0  0
    0.6160    2.1978   12.1094 H   0  0  0  0  0  0  0  0  0  0  0  0
    0.9403    1.7439   10.4139 H   0  0  0  0  0  0  0  0  0  0  0  0
    1.6989    0.8299   11.7391 H   0  0  0  0  0  0  0  0  0  0  0  0
    0.8278   -2.5912    8.7489 H   0  0  0  0  0  0  0  0  0  0  0  0
    1.1415   -2.3079    6.3383 H   0  0  0  0  0  0  0  0  0  0  0  0
   -4.4920   -7.6871   -1.5611 H   0  0  0  0  0  0  0  0  0  0  0  0
   -6.4224   -4.5991   -4.7064 H   0  0  0  0  0  0  0  0  0  0  0  0
   -5.0878   -3.0049   -5.5352 H   0  0  0  0  0  0  0  0  0  0  0  0
   -6.2345   -0.8592   -5.5466 H   0  0  0  0  0  0  0  0  0  0  0  0
  -10.1081    1.0671   -7.5852 H   0  0  0  0  0  0  0  0  0  0  0  0
   -9.8111   -0.5585   -8.2275 H   0  0  0  0  0  0  0  0  0  0  0  0
  -10.3529    1.0748  -10.0638 H   0  0  0  0  0  0  0  0  0  0  0  0
   -8.9793    2.0734   -9.5692 H   0  0  0  0  0  0  0  0  0  0  0  0
   -8.7079    0.4615  -10.2420 H   0  0  0  0  0  0  0  0  0  0  0  0
   -7.0292   -4.0120   -9.2276 H   0  0  0  0  0  0  0  0  0  0  0  0
   -2.2245   -8.5808   -5.5148 H   0  0  0  0  0  0  0  0  0  0  0  0
   -1.1854  -10.8040   -5.5401 H   0  0  0  0  0  0  0  0  0  0  0  0
   -1.1096  -12.7970   -9.5282 H   0  0  0  0  0  0  0  0  0  0  0  0
   -2.2842  -14.0841   -9.1517 H   0  0  0  0  0  0  0  0  0  0  0  0
   -0.4165  -15.5218   -8.3120 H   0  0  0  0  0  0  0  0  0  0  0  0
    0.7428  -14.2504   -8.7070 H   0  0  0  0  0  0  0  0  0  0  0  0
   -0.1501  -15.0645   -9.9989 H   0  0  0  0  0  0  0  0  0  0  0  0
   -4.4449   -9.6258   -9.0261 H   0  0  0  0  0  0  0  0  0  0  0  0
   -2.7803   -7.9013   -9.8451 H   0  0  0  0  0  0  0  0  0  0  0  0
   -2.2364   -6.9220  -11.9483 H   0  0  0  0  0  0  0  0  0  0  0  0
   -3.2198   -0.8975  -13.4263 H   0  0  0  0  0  0  0  0  0  0  0  0
   -0.4387   -4.0200  -16.2857 H   0  0  0  0  0  0  0  0  0  0  0  0
   -1.0581   -1.1039  -17.9670 H   0  0  0  0  0  0  0  0  0  0  0  0
    1.4463   -1.0666  -17.0611 H   0  0  0  0  0  0  0  0  0  0  0  0
    1.0398    1.1142  -18.4688 H   0  0  0  0  0  0  0  0  0  0  0  0
   -0.4111    2.7876  -17.0016 H   0  0  0  0  0  0  0  0  0  0  0  0
   -0.8968    1.6377  -14.6899 H   0  0  0  0  0  0  0  0  0  0  0  0
    0.4784   -0.6685  -14.5861 H   0  0  0  0  0  0  0  0  0  0  0  0
    1.5394    0.6743  -15.0694 H   0  0  0  0  0  0  0  0  0  0  0  0
   -2.4816    0.5351  -16.5261 H   0  0  0  0  0  0  0  0  0  0  0  0
  1  2  2  0  0  0  0
  2  3  1  0  0  0  0
  3  4  2  0  0  0  0
  3  5  1  0  0  0  0
  5  6  2  0  0  0  0
  6  7  1  0  0  0  0
  7  8  2  0  0  0  0
  8  9  1  0  0  0  0
  9 10  2  0  0  0  0
 10 11  1  0  0  0  0
 11 12  2  0  0  0  0
 12 13  1  0  0  0  0
 13 14  3  0  0  0  0
 12 15  1  0  0  0  0
 15 16  3  0  0  0  0
  8 17  1  0  0  0  0
 17 18  1  0  0  0  0
 18 19  1  0  0  0  0
 19 20  2  0  0  0  0
 20 21  1  0  0  0  0
 21 22  1  0  0  0  0
 21 23  1  0  0  0  0
  1 24  1  0  0  0  0
 24 25  2  0  0  0  0
 25 26  1  0  0  0  0
 26 27  1  0  0  0  0
 27 28  2  0  0  0  0
 28 29  1  0  0  0  0
 29 30  2  0  0  0  0
 30 31  1  0  0  0  0
 30 32  1  0  0  0  0
 32 33  2  0  0  0  0
 26 34  1  0  0  0  0
 34 35  2  0  0  0  0
 35 36  1  0  0  0  0
 36 37  2  0  0  0  0
 37 38  1  0  0  0  0
 37 39  1  0  0  0  0
 39 40  2  0  0  0  0
 25 41  1  0  0  0  0
 41 42  1  0  0  0  0
 42 43  1  0  0  0  0
 43 44  2  0  0  0  0
 44 45  1  0  0  0  0
 45 46  1  0  0  0  0
 46 47  2  0  0  0  0
 47 48  1  0  0  0  0
 48 49  2  0  0  0  0
 49 50  1  0  0  0  0
 49 51  1  0  0  0  0
 51 52  2  0  0  0  0
 45 53  1  0  0  0  0
 53 54  2  0  0  0  0
 54 55  1  0  0  0  0
 55 56  2  0  0  0  0
 56 57  1  0  0  0  0
 56 58  1  0  0  0  0
 58 59  2  0  0  0  0
 44 60  1  0  0  0  0
 60 61  1  0  0  0  0
 43 62  1  0  0  0  0
 62 63  2  0  0  0  0
 63 64  1  0  0  0  0
 64 65  1  0  0  0  0
 65 66  1  0  0  0  0
 66 67  1  0  0  0  0
 67 68  2  0  0  0  0
 68 69  1  0  0  0  0
 69 70  1  0  0  0  0
 70 71  1  0  0  0  0
 71 72  2  0  0  0  0
 72 73  1  0  0  0  0
 73 74  2  0  0  0  0
 74 75  1  0  0  0  0
 75 76  1  0  0  0  0
 76 77  1  0  0  0  0
 77 78  1  0  0  0  0
 78 79  1  0  0  0  0
 74 80  1  0  0  0  0
 80 81  2  0  0  0  0
 70 82  1  0  0  0  0
 82 83  2  0  0  0  0
 83 84  1  0  0  0  0
 84 85  2  0  0  0  0
 85 86  1  0  0  0  0
 86 87  1  0  0  0  0
 87 88  1  0  0  0  0
 88 89  1  0  0  0  0
 89 90  1  0  0  0  0
 85 91  1  0  0  0  0
 91 92  2  0  0  0  0
 70 93  1  0  0  0  0
 93 94  2  0  0  0  0
 94 95  1  0  0  0  0
 95 96  1  0  0  0  0
 96 97  2  0  0  0  0
 97 98  1  0  0  0  0
 98 99  1  0  0  0  0
 99100  2  0  0  0  0
100101  1  0  0  0  0
101102  2  0  0  0  0
102103  1  0  0  0  0
103104  1  0  0  0  0
104105  1  0  0  0  0
105106  1  0  0  0  0
106107  1  0  0  0  0
102108  1  0  0  0  0
108109  2  0  0  0  0
 98110  1  0  0  0  0
110111  2  0  0  0  0
111112  1  0  0  0  0
112113  2  0  0  0  0
113114  1  0  0  0  0
114115  1  0  0  0  0
115116  1  0  0  0  0
116117  1  0  0  0  0
117118  1  0  0  0  0
113119  1  0  0  0  0
119120  2  0  0  0  0
 98121  1  0  0  0  0
121122  1  0  0  0  0
122123  1  0  0  0  0
 94124  1  0  0  0  0
124125  1  0  0  0  0
125126  1  0  0  0  0
126127  2  0  0  0  0
127128  1  0  0  0  0
128129  1  0  0  0  0
127130  1  0  0  0  0
130131  2  0  0  0  0
131132  1  0  0  0  0
132133  2  0  0  0  0
133134  1  0  0  0  0
134135  2  0  0  0  0
135136  1  0  0  0  0
136137  2  0  0  0  0
137138  1  0  0  0  0
138139  1  0  0  0  0
139140  1  0  0  0  0
137141  1  0  0  0  0
141142  1  0  0  0  0
141143  2  0  0  0  0
133144  1  0  0  0  0
144145  2  0  0  0  0
145146  1  0  0  0  0
146147  1  0  0  0  0
147148  2  0  0  0  0
148149  1  0  0  0  0
149150  2  0  0  0  0
150151  1  0  0  0  0
151152  1  0  0  0  0
152153  1  0  0  0  0
150154  1  0  0  0  0
154155  2  0  0  0  0
154156  1  0  0  0  0
146157  2  0  0  0  0
157158  1  0  0  0  0
145159  1  0  0  0  0
159160  2  0  0  0  0
160161  1  0  0  0  0
160162  1  0  0  0  0
162163  2  0  0  0  0
163164  1  0  0  0  0
164165  2  0  0  0  0
164166  1  0  0  0  0
166167  2  0  0  0  0
167168  1  0  0  0  0
168169  2  0  0  0  0
169170  1  0  0  0  0
170171  2  0  0  0  0
171172  1  0  0  0  0
172173  2  0  0  0  0
173174  1  0  0  0  0
174175  3  0  0  0  0
173176  1  0  0  0  0
176177  3  0  0  0  0
169178  1  0  0  0  0
178179  1  0  0  0  0
179180  1  0  0  0  0
180181  2  0  0  0  0
181182  1  0  0  0  0
182183  1  0  0  0  0
182184  1  0  0  0  0
 11  2  1  0  0  0  0
 23 17  1  0  0  0  0
 61 24  1  0  0  0  0
123 62  1  0  0  0  0
129125  2  0  0  0  0
158130  1  0  0  0  0
172163  1  0  0  0  0
184178  1  0  0  0  0
 10  5  1  0  0  0  0
 22 18  1  0  0  0  0
 33 27  1  0  0  0  0
 40 34  1  0  0  0  0
 60 41  2  0  0  0  0
122 64  2  0  0  0  0
157132  1  0  0  0  0
171166  1  0  0  0  0
183179  1  0  0  0  0
 23  7  1  0  0  0  0
 52 46  1  0  0  0  0
 59 53  1  0  0  0  0
121 66  2  0  0  0  0
143134  1  0  0  0  0
161144  1  0  0  0  0
184168  1  0  0  0  0
 97 67  1  0  0  0  0
109 99  1  0  0  0  0
120110  1  0  0  0  0
155147  1  0  0  0  0
 95 69  2  0  0  0  0
 81 71  1  0  0  0  0
 92 82  1  0  0  0  0
129 93  1  0  0  0  0
  1185  1  0  0  0  0
  6186  1  0  0  0  0
  9187  1  0  0  0  0
 17188  1  0  0  0  0
 18189  1  0  0  0  0
 19190  1  0  0  0  0
 20191  1  0  0  0  0
 21192  1  0  0  0  0
 22193  1  0  0  0  0
 22194  1  0  0  0  0
 23195  1  0  0  0  0
 28196  1  0  0  0  0
 29197  1  0  0  0  0
 31198  1  0  0  0  0
 31199  1  0  0  0  0
 31200  1  0  0  0  0
 32201  1  0  0  0  0
 33202  1  0  0  0  0
 35203  1  0  0  0  0
 36204  1  0  0  0  0
 38205  1  0  0  0  0
 38206  1  0  0  0  0
 38207  1  0  0  0  0
 39208  1  0  0  0  0
 40209  1  0  0  0  0
 47210  1  0  0  0  0
 48211  1  0  0  0  0
 50212  1  0  0  0  0
 50213  1  0  0  0  0
 50214  1  0  0  0  0
 51215  1  0  0  0  0
 52216  1  0  0  0  0
 54217  1  0  0  0  0
 55218  1  0  0  0  0
 57219  1  0  0  0  0
 57220  1  0  0  0  0
 57221  1  0  0  0  0
 58222  1  0  0  0  0
 59223  1  0  0  0  0
 63224  1  0  0  0  0
 68225  1  0  0  0  0
 72226  1  0  0  0  0
 73227  1  0  0  0  0
 75228  1  0  0  0  0
 75229  1  0  0  0  0
 77230  1  0  0  0  0
 77231  1  0  0  0  0
 79232  1  0  0  0  0
 79233  1  0  0  0  0
 79234  1  0  0  0  0
 80235  1  0  0  0  0
 81236  1  0  0  0  0
 83237  1  0  0  0  0
 84238  1  0  0  0  0
 86239  1  0  0  0  0
 86240  1  0  0  0  0
 88241  1  0  0  0  0
 88242  1  0  0  0  0
 90243  1  0  0  0  0
 90244  1  0  0  0  0
 90245  1  0  0  0  0
 91246  1  0  0  0  0
 92247  1  0  0  0  0
 96248  1  0  0  0  0
100249  1  0  0  0  0
101250  1  0  0  0  0
103251  1  0  0  0  0
103252  1  0  0  0  0
105253  1  0  0  0  0
105254  1  0  0  0  0
107255  1  0  0  0  0
107256  1  0  0  0  0
107257  1  0  0  0  0
108258  1  0  0  0  0
109259  1  0  0  0  0
111260  1  0  0  0  0
112261  1  0  0  0  0
114262  1  0  0  0  0
114263  1  0  0  0  0
116264  1  0  0  0  0
116265  1  0  0  0  0
118266  1  0  0  0  0
118267  1  0  0  0  0
118268  1  0  0  0  0
119269  1  0  0  0  0
120270  1  0  0  0  0
126271  1  0  0  0  0
131272  1  0  0  0  0
135273  1  0  0  0  0
136274  1  0  0  0  0
139275  1  0  0  0  0
139276  1  0  0  0  0
140277  1  0  0  0  0
140278  1  0  0  0  0
140279  1  0  0  0  0
143280  1  0  0  0  0
148281  1  0  0  0  0
149282  1  0  0  0  0
152283  1  0  0  0  0
152284  1  0  0  0  0
153285  1  0  0  0  0
153286  1  0  0  0  0
153287  1  0  0  0  0
155288  1  0  0  0  0
159289  1  0  0  0  0
162290  1  0  0  0  0
167291  1  0  0  0  0
170292  1  0  0  0  0
178293  1  0  0  0  0
179294  1  0  0  0  0
180295  1  0  0  0  0
181296  1  0  0  0  0
182297  1  0  0  0  0
183298  1  0  0  0  0
183299  1  0  0  0  0
184300  1  0  0  0  0
M  END
