
  xtb     02192203163D
 energy: -366.173010393595 gnorm: 0.000215556153 xtb: 6.4.1 (unknown)
220245  0     0  0            999 V2000
   -3.1899    2.1238    9.5384 C   0  0  0  0  0  0  0  0  0  0  0  0
   -4.3822    2.6990    9.9086 C   0  0  0  0  0  0  0  0  0  0  0  0
   -5.2014    3.6041    9.0983 C   0  0  0  0  0  0  0  0  0  0  0  0
   -4.8794    4.1937    8.0810 O   0  0  0  0  0  0  0  0  0  0  0  0
   -6.5201    3.6620    9.7569 C   0  0  0  0  0  0  0  0  0  0  0  0
   -7.6498    4.3451    9.3157 C   0  0  0  0  0  0  0  0  0  0  0  0
   -8.7496    4.1884   10.1253 C   0  0  0  0  0  0  0  0  0  0  0  0
   -8.7265    3.4112   11.2901 C   0  0  0  0  0  0  0  0  0  0  0  0
   -7.6155    2.7363   11.7395 C   0  0  0  0  0  0  0  0  0  0  0  0
   -6.4870    2.8799   10.9289 C   0  0  0  0  0  0  0  0  0  0  0  0
   -5.1422    2.3242   11.0773 C   0  0  0  0  0  0  0  0  0  0  0  0
   -4.6982    1.5816   12.1452 C   0  0  0  0  0  0  0  0  0  0  0  0
   -5.5163    1.1183   13.1929 C   0  0  0  0  0  0  0  0  0  0  0  0
   -6.1234    0.6708   14.0599 N   0  0  0  0  0  0  0  0  0  0  0  0
   -3.3613    1.1987   12.3648 C   0  0  0  0  0  0  0  0  0  0  0  0
   -2.2905    0.8837   12.6415 N   0  0  0  0  0  0  0  0  0  0  0  0
  -10.1743    3.6955   11.6042 C   0  0  0  0  0  0  0  0  0  0  0  0
  -10.4857    4.7289   12.7144 C   0  0  0  0  0  0  0  0  0  0  0  0
   -9.3072    5.6690   12.7673 C   0  0  0  0  0  0  0  0  0  0  0  0
   -9.3277    6.4064   11.6651 C   0  0  0  0  0  0  0  0  0  0  0  0
  -10.5207    5.9784   10.8470 C   0  0  0  0  0  0  0  0  0  0  0  0
  -11.5023    5.6104   11.9711 C   0  0  0  0  0  0  0  0  0  0  0  0
  -10.1995    4.5632   10.3065 C   0  0  0  0  0  0  0  0  0  0  0  0
   -2.4538    2.2452    8.3590 C   0  0  0  0  0  0  0  0  0  0  0  0
   -1.3845    1.3816    8.0176 C   0  0  0  0  0  0  0  0  0  0  0  0
   -0.9694    0.2846    8.7302 N   0  0  0  0  0  0  0  0  0  0  0  0
    0.3954   -0.0579    8.6900 C   0  0  0  0  0  0  0  0  0  0  0  0
    1.3665    0.9364    8.7914 C   0  0  0  0  0  0  0  0  0  0  0  0
    2.7042    0.6053    8.7422 C   0  0  0  0  0  0  0  0  0  0  0  0
    3.1113   -0.7177    8.6030 C   0  0  0  0  0  0  0  0  0  0  0  0
    4.5691   -1.0562    8.5507 C   0  0  0  0  0  0  0  0  0  0  0  0
    2.1361   -1.7027    8.5171 C   0  0  0  0  0  0  0  0  0  0  0  0
    0.7925   -1.3839    8.5562 C   0  0  0  0  0  0  0  0  0  0  0  0
   -1.8608   -0.5540    9.4244 C   0  0  0  0  0  0  0  0  0  0  0  0
   -1.4845   -1.1188   10.6398 C   0  0  0  0  0  0  0  0  0  0  0  0
   -2.3726   -1.9148   11.3361 C   0  0  0  0  0  0  0  0  0  0  0  0
   -3.6527   -2.1567   10.8532 C   0  0  0  0  0  0  0  0  0  0  0  0
   -4.6328   -2.9562   11.6542 C   0  0  0  0  0  0  0  0  0  0  0  0
   -4.0071   -1.6144    9.6222 C   0  0  0  0  0  0  0  0  0  0  0  0
   -3.1235   -0.8340    8.9051 C   0  0  0  0  0  0  0  0  0  0  0  0
   -0.7891    1.7798    6.8085 C   0  0  0  0  0  0  0  0  0  0  0  0
    0.4372    1.0922    5.7912 S   0  0  0  0  0  0  0  0  0  0  0  0
    0.1830    2.3678    4.6092 C   0  0  0  0  0  0  0  0  0  0  0  0
   -0.8250    3.2473    4.9729 C   0  0  0  0  0  0  0  0  0  0  0  0
   -1.2865    4.3071    4.2139 N   0  0  0  0  0  0  0  0  0  0  0  0
   -1.7105    5.4709    4.8756 C   0  0  0  0  0  0  0  0  0  0  0  0
   -1.0356    5.9236    6.0052 C   0  0  0  0  0  0  0  0  0  0  0  0
   -1.4725    7.0513    6.6703 C   0  0  0  0  0  0  0  0  0  0  0  0
   -2.5816    7.7600    6.2282 C   0  0  0  0  0  0  0  0  0  0  0  0
   -3.0735    8.9636    6.9721 C   0  0  0  0  0  0  0  0  0  0  0  0
   -3.2422    7.3078    5.0920 C   0  0  0  0  0  0  0  0  0  0  0  0
   -2.8204    6.1777    4.4221 C   0  0  0  0  0  0  0  0  0  0  0  0
   -1.3468    4.2218    2.8183 C   0  0  0  0  0  0  0  0  0  0  0  0
   -1.6919    3.0266    2.1918 C   0  0  0  0  0  0  0  0  0  0  0  0
   -1.6698    2.9303    0.8146 C   0  0  0  0  0  0  0  0  0  0  0  0
   -1.3175    4.0154    0.0222 C   0  0  0  0  0  0  0  0  0  0  0  0
   -1.2277    3.8926   -1.4686 C   0  0  0  0  0  0  0  0  0  0  0  0
   -1.0315    5.2202    0.6536 C   0  0  0  0  0  0  0  0  0  0  0  0
   -1.0493    5.3301    2.0290 C   0  0  0  0  0  0  0  0  0  0  0  0
   -1.3675    2.9043    6.2363 C   0  0  0  0  0  0  0  0  0  0  0  0
   -2.7129    3.4975    7.1394 S   0  0  0  0  0  0  0  0  0  0  0  0
    0.9124    2.3813    3.3740 C   0  0  0  0  0  0  0  0  0  0  0  0
    1.5407    3.4576    2.7813 C   0  0  0  0  0  0  0  0  0  0  0  0
    1.8606    4.6915    3.4950 C   0  0  0  0  0  0  0  0  0  0  0  0
    1.9052    5.9158    2.8337 C   0  0  0  0  0  0  0  0  0  0  0  0
    2.1898    7.0716    3.5361 C   0  0  0  0  0  0  0  0  0  0  0  0
    2.4464    7.0230    4.8944 C   0  0  0  0  0  0  0  0  0  0  0  0
    2.4424    5.8064    5.5657 C   0  0  0  0  0  0  0  0  0  0  0  0
    2.7916    5.7327    7.0252 C   0  0  0  0  0  0  0  0  0  0  0  0
    4.3060    5.6140    7.2056 C   0  0  0  0  0  0  0  0  0  0  0  0
    2.1550    4.6521    4.8564 C   0  0  0  0  0  0  0  0  0  0  0  0
    1.8756    3.1690    1.4378 C   0  0  0  0  0  0  0  0  0  0  0  0
    2.5761    4.1173    0.1497 S   0  0  0  0  0  0  0  0  0  0  0  0
    2.4095    2.7644   -0.9180 C   0  0  0  0  0  0  0  0  0  0  0  0
    2.5900    2.4446   -2.2759 C   0  0  0  0  0  0  0  0  0  0  0  0
    2.9484    3.2413   -3.3850 C   0  0  0  0  0  0  0  0  0  0  0  0
    2.8779    2.6726   -4.7024 C   0  0  0  0  0  0  0  0  0  0  0  0
    3.1714    3.5508   -5.6485 N   0  0  0  0  0  0  0  0  0  0  0  0
    3.5121    4.9688   -4.9445 S   0  0  0  0  0  0  0  0  0  0  0  0
    3.2952    4.5189   -3.4046 N   0  0  0  0  0  0  0  0  0  0  0  0
    2.5778    1.2998   -4.8388 C   0  0  0  0  0  0  0  0  0  0  0  0
    2.5659    0.4543   -5.9604 C   0  0  0  0  0  0  0  0  0  0  0  0
    2.7760    0.5546   -7.6754 S   0  0  0  0  0  0  0  0  0  0  0  0
    2.6006   -1.1802   -7.7701 C   0  0  0  0  0  0  0  0  0  0  0  0
    2.5956   -2.0674   -8.8626 C   0  0  0  0  0  0  0  0  0  0  0  0
    2.7186   -1.5994  -10.2466 C   0  0  0  0  0  0  0  0  0  0  0  0
    1.7313   -1.8829  -11.1856 C   0  0  0  0  0  0  0  0  0  0  0  0
    1.8436   -1.3851  -12.4694 C   0  0  0  0  0  0  0  0  0  0  0  0
    2.9269   -0.5987  -12.8210 C   0  0  0  0  0  0  0  0  0  0  0  0
    3.9126   -0.2946  -11.8912 C   0  0  0  0  0  0  0  0  0  0  0  0
    5.0537    0.6155  -12.2410 C   0  0  0  0  0  0  0  0  0  0  0  0
    4.7263    2.0523  -11.8289 C   0  0  0  0  0  0  0  0  0  0  0  0
    3.7958   -0.7986  -10.6045 C   0  0  0  0  0  0  0  0  0  0  0  0
    2.4169   -3.3752   -8.4508 C   0  0  0  0  0  0  0  0  0  0  0  0
    2.2235   -3.4980   -6.7017 S   0  0  0  0  0  0  0  0  0  0  0  0
    2.3938   -1.7863   -6.5292 C   0  0  0  0  0  0  0  0  0  0  0  0
    2.3603   -0.8466   -5.4918 C   0  0  0  0  0  0  0  0  0  0  0  0
    2.2175   -0.8348   -4.1278 N   0  0  0  0  0  0  0  0  0  0  0  0
    2.3222    0.4791   -3.7062 C   0  0  0  0  0  0  0  0  0  0  0  0
    2.1952    1.0879   -2.4320 C   0  0  0  0  0  0  0  0  0  0  0  0
    1.7460    0.6127   -1.2077 N   0  0  0  0  0  0  0  0  0  0  0  0
    1.8669    1.6362   -0.3033 C   0  0  0  0  0  0  0  0  0  0  0  0
    1.5509    1.8727    1.0414 C   0  0  0  0  0  0  0  0  0  0  0  0
    0.8258    0.9762    2.3245 S   0  0  0  0  0  0  0  0  0  0  0  0
    0.7772   -0.4328   -0.9563 C   0  0  0  0  0  0  0  0  0  0  0  0
   -0.5284   -0.1549   -1.6971 C   0  0  0  0  0  0  0  0  0  0  0  0
    2.4065   -2.0532   -3.3725 C   0  0  0  0  0  0  0  0  0  0  0  0
    1.1674   -2.9460   -3.3765 C   0  0  0  0  0  0  0  0  0  0  0  0
    2.4355   -4.5836   -9.1958 C   0  0  0  0  0  0  0  0  0  0  0  0
    2.9082   -4.6543  -10.8720 S   0  0  0  0  0  0  0  0  0  0  0  0
    2.6927   -6.3736  -10.8785 C   0  0  0  0  0  0  0  0  0  0  0  0
    2.8528   -7.2596  -11.9616 C   0  0  0  0  0  0  0  0  0  0  0  0
    2.4713   -8.5967  -11.7757 C   0  0  0  0  0  0  0  0  0  0  0  0
    1.9456   -9.0784  -10.6352 O   0  0  0  0  0  0  0  0  0  0  0  0
    2.1013   -8.3346   -9.4122 C   0  0  0  0  0  0  0  0  0  0  0  0
    0.8322   -8.6288   -8.5967 C   0  0  0  0  0  0  0  0  0  0  0  0
   -0.4103   -8.0055   -9.2225 C   0  0  0  0  0  0  0  0  0  0  0  0
    3.3818   -8.8374   -8.7005 C   0  0  0  0  0  0  0  0  0  0  0  0
    3.3711  -10.3334   -8.4123 C   0  0  0  0  0  0  0  0  0  0  0  0
    2.2766   -6.8563   -9.6476 C   0  0  0  0  0  0  0  0  0  0  0  0
    2.1448   -5.8424   -8.7005 C   0  0  0  0  0  0  0  0  0  0  0  0
    2.6338   -9.3475  -12.9278 C   0  0  0  0  0  0  0  0  0  0  0  0
    3.1442   -8.6135  -14.0022 C   0  0  0  0  0  0  0  0  0  0  0  0
    3.4240   -6.9433  -13.5524 S   0  0  0  0  0  0  0  0  0  0  0  0
    3.3941   -9.1666  -15.2623 C   0  0  0  0  0  0  0  0  0  0  0  0
    3.8853   -8.5790  -16.3995 C   0  0  0  0  0  0  0  0  0  0  0  0
    4.0783   -9.3429  -17.6417 C   0  0  0  0  0  0  0  0  0  0  0  0
    3.8522  -10.5188  -17.8271 O   0  0  0  0  0  0  0  0  0  0  0  0
    4.6127   -8.3653  -18.6304 C   0  0  0  0  0  0  0  0  0  0  0  0
    4.9685   -8.5532  -19.9499 C   0  0  0  0  0  0  0  0  0  0  0  0
    5.4468   -7.4584  -20.6642 C   0  0  0  0  0  0  0  0  0  0  0  0
    5.9000   -7.6579  -22.3106 Cl  0  0  0  0  0  0  0  0  0  0  0  0
    5.5619   -6.2042  -20.0586 C   0  0  0  0  0  0  0  0  0  0  0  0
    6.1552   -4.8687  -20.9646 Cl  0  0  0  0  0  0  0  0  0  0  0  0
    5.2019   -6.0198  -18.7271 C   0  0  0  0  0  0  0  0  0  0  0  0
    4.7291   -7.1090  -18.0240 C   0  0  0  0  0  0  0  0  0  0  0  0
    4.2807   -7.1946  -16.6081 C   0  0  0  0  0  0  0  0  0  0  0  0
    4.2574   -6.2773  -15.8064 O   0  0  0  0  0  0  0  0  0  0  0  0
   -2.7792    1.4088   10.2393 H   0  0  0  0  0  0  0  0  0  0  0  0
   -7.6245    4.9307    8.4099 H   0  0  0  0  0  0  0  0  0  0  0  0
   -7.6140    2.1401   12.6368 H   0  0  0  0  0  0  0  0  0  0  0  0
  -10.8303    2.8282   11.6495 H   0  0  0  0  0  0  0  0  0  0  0  0
  -10.7965    4.2948   13.6609 H   0  0  0  0  0  0  0  0  0  0  0  0
   -8.5697    5.6607   13.5483 H   0  0  0  0  0  0  0  0  0  0  0  0
   -8.6103    7.1374   11.3410 H   0  0  0  0  0  0  0  0  0  0  0  0
  -10.8640    6.6826   10.0934 H   0  0  0  0  0  0  0  0  0  0  0  0
  -12.3768    5.0633   11.6213 H   0  0  0  0  0  0  0  0  0  0  0  0
  -11.8179    6.4739   12.5547 H   0  0  0  0  0  0  0  0  0  0  0  0
  -10.8734    4.2626    9.5062 H   0  0  0  0  0  0  0  0  0  0  0  0
    1.0625    1.9655    8.9168 H   0  0  0  0  0  0  0  0  0  0  0  0
    3.4486    1.3844    8.8211 H   0  0  0  0  0  0  0  0  0  0  0  0
    5.0387   -0.5724    7.6949 H   0  0  0  0  0  0  0  0  0  0  0  0
    5.0737   -0.7033    9.4491 H   0  0  0  0  0  0  0  0  0  0  0  0
    4.7178   -2.1295    8.4671 H   0  0  0  0  0  0  0  0  0  0  0  0
    2.4296   -2.7368    8.4097 H   0  0  0  0  0  0  0  0  0  0  0  0
    0.0447   -2.1591    8.4785 H   0  0  0  0  0  0  0  0  0  0  0  0
   -0.5058   -0.9133   11.0445 H   0  0  0  0  0  0  0  0  0  0  0  0
   -2.0738   -2.3314   12.2859 H   0  0  0  0  0  0  0  0  0  0  0  0
   -5.1213   -2.3135   12.3883 H   0  0  0  0  0  0  0  0  0  0  0  0
   -4.1309   -3.7553   12.1949 H   0  0  0  0  0  0  0  0  0  0  0  0
   -5.4013   -3.3864   11.0163 H   0  0  0  0  0  0  0  0  0  0  0  0
   -4.9894   -1.8096    9.2161 H   0  0  0  0  0  0  0  0  0  0  0  0
   -3.4123   -0.4214    7.9493 H   0  0  0  0  0  0  0  0  0  0  0  0
   -0.1641    5.3912    6.3545 H   0  0  0  0  0  0  0  0  0  0  0  0
   -0.9393    7.3869    7.5482 H   0  0  0  0  0  0  0  0  0  0  0  0
   -2.2658    9.4360    7.5264 H   0  0  0  0  0  0  0  0  0  0  0  0
   -3.5087    9.6914    6.2908 H   0  0  0  0  0  0  0  0  0  0  0  0
   -3.8439    8.6663    7.6844 H   0  0  0  0  0  0  0  0  0  0  0  0
   -4.1097    7.8426    4.7330 H   0  0  0  0  0  0  0  0  0  0  0  0
   -3.3528    5.8303    3.5490 H   0  0  0  0  0  0  0  0  0  0  0  0
   -1.9749    2.1723    2.7896 H   0  0  0  0  0  0  0  0  0  0  0  0
   -1.9369    1.9904    0.3520 H   0  0  0  0  0  0  0  0  0  0  0  0
   -1.4465    4.8435   -1.9484 H   0  0  0  0  0  0  0  0  0  0  0  0
   -1.9217    3.1429   -1.8436 H   0  0  0  0  0  0  0  0  0  0  0  0
   -0.2176    3.5989   -1.7602 H   0  0  0  0  0  0  0  0  0  0  0  0
   -0.7750    6.0836    0.0569 H   0  0  0  0  0  0  0  0  0  0  0  0
   -0.8143    6.2696    2.5060 H   0  0  0  0  0  0  0  0  0  0  0  0
    1.7002    5.9628    1.7760 H   0  0  0  0  0  0  0  0  0  0  0  0
    2.2094    8.0194    3.0184 H   0  0  0  0  0  0  0  0  0  0  0  0
    2.6595    7.9323    5.4374 H   0  0  0  0  0  0  0  0  0  0  0  0
    2.3079    4.8651    7.4802 H   0  0  0  0  0  0  0  0  0  0  0  0
    2.4363    6.6300    7.5360 H   0  0  0  0  0  0  0  0  0  0  0  0
    4.8072    6.4768    6.7727 H   0  0  0  0  0  0  0  0  0  0  0  0
    4.5613    5.5571    8.2613 H   0  0  0  0  0  0  0  0  0  0  0  0
    4.6758    4.7198    6.7084 H   0  0  0  0  0  0  0  0  0  0  0  0
    2.1733    3.7007    5.3687 H   0  0  0  0  0  0  0  0  0  0  0  0
    0.8752   -2.4773  -10.9016 H   0  0  0  0  0  0  0  0  0  0  0  0
    1.0787   -1.6066  -13.1987 H   0  0  0  0  0  0  0  0  0  0  0  0
    3.0060   -0.2129  -13.8270 H   0  0  0  0  0  0  0  0  0  0  0  0
    5.9585    0.2905  -11.7235 H   0  0  0  0  0  0  0  0  0  0  0  0
    5.2422    0.5798  -13.3155 H   0  0  0  0  0  0  0  0  0  0  0  0
    4.5401    2.1065  -10.7586 H   0  0  0  0  0  0  0  0  0  0  0  0
    5.5523    2.7161  -12.0734 H   0  0  0  0  0  0  0  0  0  0  0  0
    3.8356    2.4001  -12.3475 H   0  0  0  0  0  0  0  0  0  0  0  0
    4.5566   -0.5743   -9.8705 H   0  0  0  0  0  0  0  0  0  0  0  0
    0.5947   -0.4353    0.1211 H   0  0  0  0  0  0  0  0  0  0  0  0
    1.1712   -1.4109   -1.2243 H   0  0  0  0  0  0  0  0  0  0  0  0
   -1.2602   -0.9248   -1.4662 H   0  0  0  0  0  0  0  0  0  0  0  0
   -0.9272    0.8091   -1.3916 H   0  0  0  0  0  0  0  0  0  0  0  0
   -0.3652   -0.1292   -2.7724 H   0  0  0  0  0  0  0  0  0  0  0  0
    3.2313   -2.6065   -3.8374 H   0  0  0  0  0  0  0  0  0  0  0  0
    2.7190   -1.7906   -2.3612 H   0  0  0  0  0  0  0  0  0  0  0  0
    1.3457   -3.8196   -2.7553 H   0  0  0  0  0  0  0  0  0  0  0  0
    0.2931   -2.4209   -3.0049 H   0  0  0  0  0  0  0  0  0  0  0  0
    0.9568   -3.2831   -4.3876 H   0  0  0  0  0  0  0  0  0  0  0  0
    0.7059   -9.7104   -8.5624 H   0  0  0  0  0  0  0  0  0  0  0  0
    0.9697   -8.2615   -7.5796 H   0  0  0  0  0  0  0  0  0  0  0  0
   -0.3421   -6.9201   -9.2298 H   0  0  0  0  0  0  0  0  0  0  0  0
   -1.2952   -8.2924   -8.6599 H   0  0  0  0  0  0  0  0  0  0  0  0
   -0.5246   -8.3521  -10.2467 H   0  0  0  0  0  0  0  0  0  0  0  0
    3.5073   -8.2727   -7.7752 H   0  0  0  0  0  0  0  0  0  0  0  0
    4.2277   -8.6034   -9.3529 H   0  0  0  0  0  0  0  0  0  0  0  0
    4.3590  -10.6537   -8.0905 H   0  0  0  0  0  0  0  0  0  0  0  0
    3.1034  -10.8841   -9.3104 H   0  0  0  0  0  0  0  0  0  0  0  0
    2.6609  -10.5770   -7.6270 H   0  0  0  0  0  0  0  0  0  0  0  0
    1.8423   -5.9984   -7.6803 H   0  0  0  0  0  0  0  0  0  0  0  0
    2.3884  -10.3910  -13.0006 H   0  0  0  0  0  0  0  0  0  0  0  0
    3.1623  -10.2236  -15.3571 H   0  0  0  0  0  0  0  0  0  0  0  0
    4.8793   -9.5211  -20.4175 H   0  0  0  0  0  0  0  0  0  0  0  0
    5.2909   -5.0519  -18.2596 H   0  0  0  0  0  0  0  0  0  0  0  0
  1  2  2  0  0  0  0
  2  3  1  0  0  0  0
  3  4  2  0  0  0  0
  3  5  1  0  0  0  0
  5  6  2  0  0  0  0
  6  7  1  0  0  0  0
  7  8  2  0  0  0  0
  8  9  1  0  0  0  0
  9 10  2  0  0  0  0
 10 11  1  0  0  0  0
 11 12  2  0  0  0  0
 12 13  1  0  0  0  0
 13 14  3  0  0  0  0
 12 15  1  0  0  0  0
 15 16  3  0  0  0  0
  8 17  1  0  0  0  0
 17 18  1  0  0  0  0
 18 19  1  0  0  0  0
 19 20  2  0  0  0  0
 20 21  1  0  0  0  0
 21 22  1  0  0  0  0
 21 23  1  0  0  0  0
  1 24  1  0  0  0  0
 24 25  2  0  0  0  0
 25 26  1  0  0  0  0
 26 27  1  0  0  0  0
 27 28  2  0  0  0  0
 28 29  1  0  0  0  0
 29 30  2  0  0  0  0
 30 31  1  0  0  0  0
 30 32  1  0  0  0  0
 32 33  2  0  0  0  0
 26 34  1  0  0  0  0
 34 35  2  0  0  0  0
 35 36  1  0  0  0  0
 36 37  2  0  0  0  0
 37 38  1  0  0  0  0
 37 39  1  0  0  0  0
 39 40  2  0  0  0  0
 25 41  1  0  0  0  0
 41 42  1  0  0  0  0
 42 43  1  0  0  0  0
 43 44  2  0  0  0  0
 44 45  1  0  0  0  0
 45 46  1  0  0  0  0
 46 47  2  0  0  0  0
 47 48  1  0  0  0  0
 48 49  2  0  0  0  0
 49 50  1  0  0  0  0
 49 51  1  0  0  0  0
 51 52  2  0  0  0  0
 45 53  1  0  0  0  0
 53 54  2  0  0  0  0
 54 55  1  0  0  0  0
 55 56  2  0  0  0  0
 56 57  1  0  0  0  0
 56 58  1  0  0  0  0
 58 59  2  0  0  0  0
 44 60  1  0  0  0  0
 60 61  1  0  0  0  0
 43 62  1  0  0  0  0
 62 63  2  0  0  0  0
 63 64  1  0  0  0  0
 64 65  2  0  0  0  0
 65 66  1  0  0  0  0
 66 67  2  0  0  0  0
 67 68  1  0  0  0  0
 68 69  1  0  0  0  0
 69 70  1  0  0  0  0
 68 71  2  0  0  0  0
 63 72  1  0  0  0  0
 72 73  1  0  0  0  0
 73 74  1  0  0  0  0
 74 75  1  0  0  0  0
 75 76  1  0  0  0  0
 76 77  1  0  0  0  0
 77 78  2  0  0  0  0
 78 79  1  0  0  0  0
 79 80  1  0  0  0  0
 77 81  1  0  0  0  0
 81 82  1  0  0  0  0
 82 83  1  0  0  0  0
 83 84  1  0  0  0  0
 84 85  1  0  0  0  0
 85 86  1  0  0  0  0
 86 87  2  0  0  0  0
 87 88  1  0  0  0  0
 88 89  2  0  0  0  0
 89 90  1  0  0  0  0
 90 91  1  0  0  0  0
 91 92  1  0  0  0  0
 90 93  2  0  0  0  0
 85 94  2  0  0  0  0
 94 95  1  0  0  0  0
 95 96  1  0  0  0  0
 96 97  1  0  0  0  0
 97 98  1  0  0  0  0
 98 99  1  0  0  0  0
 99100  1  0  0  0  0
100101  1  0  0  0  0
101102  1  0  0  0  0
102103  1  0  0  0  0
103104  1  0  0  0  0
101105  1  0  0  0  0
105106  1  0  0  0  0
 98107  1  0  0  0  0
107108  1  0  0  0  0
 94109  1  0  0  0  0
109110  1  0  0  0  0
110111  1  0  0  0  0
111112  1  0  0  0  0
112113  2  0  0  0  0
113114  1  0  0  0  0
114115  1  0  0  0  0
115116  1  0  0  0  0
116117  1  0  0  0  0
115118  1  0  0  0  0
118119  1  0  0  0  0
115120  1  0  0  0  0
120121  1  0  0  0  0
113122  1  0  0  0  0
122123  2  0  0  0  0
123124  1  0  0  0  0
123125  1  0  0  0  0
125126  2  0  0  0  0
126127  1  0  0  0  0
127128  2  0  0  0  0
127129  1  0  0  0  0
129130  2  0  0  0  0
130131  1  0  0  0  0
131132  1  0  0  0  0
131133  2  0  0  0  0
133134  1  0  0  0  0
133135  1  0  0  0  0
135136  2  0  0  0  0
136137  1  0  0  0  0
137138  2  0  0  0  0
 11  2  1  0  0  0  0
 23 17  1  0  0  0  0
 61 24  1  0  0  0  0
104 62  1  0  0  0  0
121109  2  0  0  0  0
137126  1  0  0  0  0
 10  5  1  0  0  0  0
 22 18  1  0  0  0  0
 33 27  1  0  0  0  0
 40 34  1  0  0  0  0
 60 41  2  0  0  0  0
 71 64  1  0  0  0  0
103 72  2  0  0  0  0
120111  2  0  0  0  0
136129  1  0  0  0  0
 23  7  1  0  0  0  0
 52 46  1  0  0  0  0
 59 53  1  0  0  0  0
102 74  2  0  0  0  0
124112  1  0  0  0  0
100 75  2  0  0  0  0
 80 76  2  0  0  0  0
 99 81  2  0  0  0  0
 97 82  2  0  0  0  0
 96 84  2  0  0  0  0
 93 86  1  0  0  0  0
  1139  1  0  0  0  0
  6140  1  0  0  0  0
  9141  1  0  0  0  0
 17142  1  0  0  0  0
 18143  1  0  0  0  0
 19144  1  0  0  0  0
 20145  1  0  0  0  0
 21146  1  0  0  0  0
 22147  1  0  0  0  0
 22148  1  0  0  0  0
 23149  1  0  0  0  0
 28150  1  0  0  0  0
 29151  1  0  0  0  0
 31152  1  0  0  0  0
 31153  1  0  0  0  0
 31154  1  0  0  0  0
 32155  1  0  0  0  0
 33156  1  0  0  0  0
 35157  1  0  0  0  0
 36158  1  0  0  0  0
 38159  1  0  0  0  0
 38160  1  0  0  0  0
 38161  1  0  0  0  0
 39162  1  0  0  0  0
 40163  1  0  0  0  0
 47164  1  0  0  0  0
 48165  1  0  0  0  0
 50166  1  0  0  0  0
 50167  1  0  0  0  0
 50168  1  0  0  0  0
 51169  1  0  0  0  0
 52170  1  0  0  0  0
 54171  1  0  0  0  0
 55172  1  0  0  0  0
 57173  1  0  0  0  0
 57174  1  0  0  0  0
 57175  1  0  0  0  0
 58176  1  0  0  0  0
 59177  1  0  0  0  0
 65178  1  0  0  0  0
 66179  1  0  0  0  0
 67180  1  0  0  0  0
 69181  1  0  0  0  0
 69182  1  0  0  0  0
 70183  1  0  0  0  0
 70184  1  0  0  0  0
 70185  1  0  0  0  0
 71186  1  0  0  0  0
 87187  1  0  0  0  0
 88188  1  0  0  0  0
 89189  1  0  0  0  0
 91190  1  0  0  0  0
 91191  1  0  0  0  0
 92192  1  0  0  0  0
 92193  1  0  0  0  0
 92194  1  0  0  0  0
 93195  1  0  0  0  0
105196  1  0  0  0  0
105197  1  0  0  0  0
106198  1  0  0  0  0
106199  1  0  0  0  0
106200  1  0  0  0  0
107201  1  0  0  0  0
107202  1  0  0  0  0
108203  1  0  0  0  0
108204  1  0  0  0  0
108205  1  0  0  0  0
116206  1  0  0  0  0
116207  1  0  0  0  0
117208  1  0  0  0  0
117209  1  0  0  0  0
117210  1  0  0  0  0
118211  1  0  0  0  0
118212  1  0  0  0  0
119213  1  0  0  0  0
119214  1  0  0  0  0
119215  1  0  0  0  0
121216  1  0  0  0  0
122217  1  0  0  0  0
125218  1  0  0  0  0
130219  1  0  0  0  0
135220  1  0  0  0  0
M  END
