238

C         -0.00300       10.13580        4.16130
C          0.95110       10.14500        5.15550
C          1.84920        9.01470        5.43800
O          1.92040        7.95750        4.83790
C          2.55450        9.36540        6.68860
C          3.49930        8.59810        7.36130
C          3.99030        9.18810        8.50230
C          3.56400       10.44460        8.94740
C          2.62790       11.21110        8.29280
C          2.12350       10.63190        7.12730
C          1.14600       11.14330        6.16800
C          0.63150       12.41740        6.14110
C         -0.19650       12.90870        5.11310
N         -0.84810       13.38620        4.29580
C          0.93110       13.41650        7.08400
N          1.15140       14.27940        7.81080
C          4.45670       10.40610       10.16320
C          3.80480       10.07800       11.52900
C          2.57930        9.25010       11.23240
C          2.98660        8.06110       10.80880
C          4.49530        8.06390       10.81130
C          4.76220        8.97890       12.01700
C          4.93560        9.00630        9.66410
C          0.04190        9.36830        2.99390
C          1.12980        8.82640        2.27840
N          2.45330        9.08880        2.48450
C          3.42100        8.15970        2.04460
C          4.53720        8.60310        1.34360
C          5.48300        7.69490        0.90950
C          5.33960        6.33570        1.16090
C          6.34930        5.34960        0.65940
C          4.22730        5.90710        1.87660
C          3.27540        6.80360        2.31930
C          2.90720       10.25570        3.11570
C          3.97250       10.18940        4.01110
C          4.39880       11.32680        4.67110
C          3.78790       12.55440        4.45380
C          4.20920       13.77580        5.20830
C          2.75480       12.62000        3.52160
C          2.31680       11.49240        2.86010
C          0.66260        8.04280        1.19620
S          1.44230        7.07590       -0.01180
C         -0.11030        6.67500       -0.71950
C         -1.17840        7.22370       -0.02620
N         -2.51690        6.96450       -0.28060
C         -3.44220        8.01370       -0.18620
C         -4.73780        7.77950        0.26980
C         -5.64450        8.81620        0.34420
C         -5.28970       10.11210       -0.01600
C         -6.28490       11.22720        0.08430
C         -3.99160       10.33980       -0.45050
C         -3.07680        9.30910       -0.53900
C         -2.92480        5.67320       -0.64170
C         -3.95150        5.48020       -1.56410
C         -4.28270        4.20990       -1.98700
C         -3.61710        3.09080       -1.49890
C         -3.96720        1.72060       -1.99410
C         -2.64100        3.28460       -0.53130
C         -2.29830        4.55240       -0.10130
C         -0.71680        8.02920        1.04210
S         -1.50930        9.00480        2.21870
C         -0.22260        5.76970       -1.82530
C         -1.03460        5.91520       -2.93200
C         -1.59660        7.20190       -3.33730
C         -0.85970        8.37050       -3.15240
C         -1.39150        9.59140       -3.52000
C         -2.66570        9.66480       -4.05350
C         -3.40820        8.50950       -4.26250
C         -4.81030        8.59540       -4.79250
C         -5.78360        8.92990       -3.65960
C         -2.85580        7.28440       -3.92300
C         -1.19490        4.68320       -3.60460
S         -2.19980        4.17380       -4.93810
C         -1.67100        2.54290       -4.69540
C         -1.99220        1.24380       -5.12650
C         -3.01200        0.75810       -5.97490
C         -3.27310       -0.65620       -6.01720
N         -4.31280       -0.95420       -6.78010
S         -4.90820        0.41820       -7.39940
N         -3.86690        1.45030       -6.71130
C         -2.42230       -1.53310       -5.30920
C         -2.39420       -2.93470       -5.18280
S         -3.32710       -4.31880       -5.64740
C         -2.19170       -5.34040       -4.79750
C         -2.13840       -6.72990       -4.58070
C         -3.14850       -7.65860       -5.10300
C         -4.48120       -7.49730       -4.73960
C         -5.43350       -8.37830       -5.21520
C         -5.06670       -9.41700       -6.05280
C         -3.74330       -9.58160       -6.43860
C         -3.34240      -10.68380       -7.37560
C         -3.25670      -10.16680       -8.81260
C         -2.79330       -8.68680       -5.96810
C         -1.05410       -7.07630       -3.79440
S         -0.07040       -5.67980       -3.35820
C         -1.14350       -4.62960       -4.20990
C         -1.26210       -3.25390       -4.42900
N         -0.58860       -2.11140       -4.07410
C         -1.30950       -1.04030       -4.57670
C         -1.18020        0.35420       -4.37190
N         -0.42220        1.09230       -3.48250
C         -0.72920        2.41280       -3.67290
C         -0.46730        3.63550       -3.04160
S          0.45370        4.15760       -1.67850
C          0.25430        0.67260       -2.27600
C          1.75540        0.95610       -2.32730
C          0.83760       -2.18030       -3.83800
C          1.57610       -2.72660       -5.06010
C         -0.71320       -8.32920       -3.21390
C          0.27580       -8.55440       -2.29400
C          0.32640       -9.88270       -1.81650
C          1.20490      -10.42830       -0.85840
C          2.30630       -9.65210       -0.32790
C          3.14270       -8.81110       -1.00990
C          4.12340       -8.21830       -0.19200
C          4.03960       -8.59780        1.11310
C          4.87540       -8.15410        2.26390
C          4.10590       -7.19400        3.17340
S          2.73670       -9.71220        1.35700
C          0.95680      -11.73920       -0.46370
C         -0.06090      -12.54190       -1.04910
C         -0.87450      -12.02770       -2.09340
C         -1.81110      -12.85990       -2.80890
C         -1.68340      -14.18390       -3.14260
C         -2.76260      -14.67600       -3.89680
C         -3.72220      -13.74000       -4.14690
C         -4.97440      -13.89520       -4.94150
C         -6.11370      -13.02770       -4.41670
S         -3.29790      -12.21380       -3.45050
C         -0.68670      -10.68750       -2.39800
S         -1.63050       -9.78040       -3.55000
C         -0.13600      -13.79510       -0.43140
C          0.80400      -13.99640        0.56780
S          1.83370      -12.59470        0.77190
C          0.85140      -15.19580        1.30040
C          1.67700      -15.58980        2.32030
C          2.76480      -14.79640        2.91380
O          3.15680      -13.69500        2.58560
C          3.31070      -15.62150        4.01310
C          4.33250      -15.31190        4.88580
C          4.66360      -16.25960        5.84720
Cl         5.93140      -15.92720        6.96580
C          3.98860      -17.47260        5.92320
C          2.96370      -17.77420        5.03920
C          2.61720      -16.84220        4.07120
C          1.60590      -16.86120        3.01630
C          0.76730      -17.91370        2.74950
C         -0.19500      -17.96990        1.71990
N         -0.99640      -18.10930        0.90820
C          0.75960      -19.12210        3.47750
N          0.69590      -20.12890        4.02580
H         -0.89780       10.73200        4.29560
H          3.79940        7.63170        6.98640
H          2.30130       12.17330        8.65120
H          5.19640       11.20110       10.23840
H          3.65760       10.93800       12.17700
H          1.57390        9.62190       11.30280
H          2.38940        7.24150       10.45420
H          4.97720        7.08950       10.80620
H          4.44860        8.53500       12.96080
H          5.79810        9.30750       12.09130
H          5.98810        8.88890        9.41210
H          4.65600        9.65750        1.14030
H          6.34420        8.04860        0.36130
H          7.31070        5.82770        0.48930
H          6.47940        4.53420        1.36750
H          6.01090        4.92230       -0.28520
H          4.10860        4.85610        2.09600
H          2.43160        6.47470        2.90510
H          4.45300        9.24020        4.19480
H          5.21140       11.25210        5.37930
H          4.21440       14.64850        4.55880
H          5.19900       13.64610        5.63860
H          3.50940       13.97390        6.02140
H          2.28110       13.56910        3.31780
H          1.51050       11.56690        2.14590
H         -5.02690        6.78200        0.56650
H         -6.64680        8.61890        0.69640
H         -6.44270       11.49500        1.12910
H         -5.93430       12.11040       -0.44370
H         -7.24460       10.92510       -0.33110
H         -3.68870       11.33770       -0.73230
H         -2.07790        9.50270       -0.89870
H         -4.47030        6.33870       -1.96070
H         -5.06090        4.08240       -2.72560
H         -3.17120        1.01040       -1.78010
H         -4.14380        1.73440       -3.06810
H         -4.87780        1.36550       -1.51050
H         -2.13320        2.43010       -0.10530
H         -1.53320        4.67790        0.65120
H          0.13660        8.31650       -2.73860
H         -0.81030       10.49210       -3.38400
H         -3.08410       10.62410       -4.32110
H         -5.09450        7.64530       -5.24830
H         -4.87040        9.37350       -5.55640
H         -6.79860        9.01060       -4.04150
H         -5.76240        8.15680       -2.89450
H         -5.51100        9.87110       -3.18790
H         -3.41670        6.38000       -4.10250
H         -4.76130       -6.69380       -4.07490
H         -6.46720       -8.25720       -4.92660
H         -5.81670      -10.10610       -6.41440
H         -4.07490      -11.49170       -7.32690
H         -2.37190      -11.08470       -7.07520
H         -2.96450      -10.96680       -9.48900
H         -4.22070       -9.77640       -9.13130
H         -2.52430       -9.36620       -8.88450
H         -1.76180       -8.79130       -6.27400
H         -0.17310        1.24180       -1.44210
H          0.04640       -0.38330       -2.10000
H          2.21540        0.53740       -3.21980
H          1.93160        2.02820       -2.33230
H          2.23870        0.53220       -1.45160
H          1.21370       -1.18580       -3.62620
H          1.01440       -2.83200       -2.97620
H          2.64590       -2.72510       -4.86970
H          1.26660       -3.74440       -5.28010
H          1.37350       -2.10500       -5.92990
H          0.92150       -7.77230       -1.93630
H          3.08530       -8.65890       -2.07310
H          4.87160       -7.53940       -0.56230
H          5.77060       -7.66010        1.87980
H          5.18650       -9.02480        2.84590
H          4.73130       -6.87810        4.00470
H          3.79440       -6.31280        2.61680
H          3.21950       -7.68340        3.57010
H         -0.81780      -14.77350       -2.90020
H         -2.82390      -15.69160       -4.24600
H         -5.26590      -14.94830       -4.93190
H         -4.76730      -13.62270       -5.98260
H         -6.34320      -13.28680       -3.38580
H         -7.00770      -13.17350       -5.01820
H         -5.83520      -11.97640       -4.45300
H         -0.87850      -14.53620       -0.66770
H          0.09130      -15.90360        0.99150
H          4.84820      -14.36710        4.81720
H          4.26820      -18.18700        6.68150
H          2.45690      -18.72150        5.12120
