
  xtb     02152207353D
 energy: -416.066408261599 gnorm: 0.000908707563 xtb: 6.4.1 (unknown)
251281  0     0  0            999 V2000
   -2.2577    2.3812   10.8538 C   0  0  0  0  0  0  0  0  0  0  0  0
   -3.1364    3.2127   11.5148 C   0  0  0  0  0  0  0  0  0  0  0  0
   -4.5796    2.9557   11.6373 C   0  0  0  0  0  0  0  0  0  0  0  0
   -5.2053    2.0200   11.1732 O   0  0  0  0  0  0  0  0  0  0  0  0
   -5.0947    3.9942   12.5559 C   0  0  0  0  0  0  0  0  0  0  0  0
   -6.4091    4.1638   12.9798 C   0  0  0  0  0  0  0  0  0  0  0  0
   -6.5934    5.2396   13.8164 C   0  0  0  0  0  0  0  0  0  0  0  0
   -5.5455    6.0788   14.2119 C   0  0  0  0  0  0  0  0  0  0  0  0
   -4.2410    5.9163   13.8079 C   0  0  0  0  0  0  0  0  0  0  0  0
   -4.0355    4.8334   12.9505 C   0  0  0  0  0  0  0  0  0  0  0  0
   -2.8130    4.3726   12.2952 C   0  0  0  0  0  0  0  0  0  0  0  0
   -1.6087    5.0352   12.2772 C   0  0  0  0  0  0  0  0  0  0  0  0
   -1.3544    6.2447   12.9474 C   0  0  0  0  0  0  0  0  0  0  0  0
   -1.0885    7.2418   13.4537 N   0  0  0  0  0  0  0  0  0  0  0  0
   -0.5005    4.6314   11.5073 C   0  0  0  0  0  0  0  0  0  0  0  0
    0.4308    4.3846   10.8808 N   0  0  0  0  0  0  0  0  0  0  0  0
   -6.4492    6.9465   15.0536 C   0  0  0  0  0  0  0  0  0  0  0  0
   -6.3943    6.7295   16.5801 C   0  0  0  0  0  0  0  0  0  0  0  0
   -7.6847    7.3387   17.0792 C   0  0  0  0  0  0  0  0  0  0  0  0
   -8.6779    6.5427   16.7046 C   0  0  0  0  0  0  0  0  0  0  0  0
   -8.0754    5.3822   15.9459 C   0  0  0  0  0  0  0  0  0  0  0  0
   -6.7438    5.2400   16.6942 C   0  0  0  0  0  0  0  0  0  0  0  0
   -7.6193    6.0101   14.6118 C   0  0  0  0  0  0  0  0  0  0  0  0
   -2.5720    1.5350    9.7875 C   0  0  0  0  0  0  0  0  0  0  0  0
   -3.6106    1.5831    8.8356 C   0  0  0  0  0  0  0  0  0  0  0  0
   -4.5348    2.5753    8.6627 N   0  0  0  0  0  0  0  0  0  0  0  0
   -5.7632    2.2434    8.0507 C   0  0  0  0  0  0  0  0  0  0  0  0
   -6.4754    1.1270    8.4775 C   0  0  0  0  0  0  0  0  0  0  0  0
   -7.6590    0.7864    7.8544 C   0  0  0  0  0  0  0  0  0  0  0  0
   -8.1585    1.5435    6.8009 C   0  0  0  0  0  0  0  0  0  0  0  0
   -9.4190    1.1433    6.0978 C   0  0  0  0  0  0  0  0  0  0  0  0
   -7.4501    2.6709    6.4005 C   0  0  0  0  0  0  0  0  0  0  0  0
   -6.2647    3.0241    7.0149 C   0  0  0  0  0  0  0  0  0  0  0  0
   -4.3030    3.9083    9.0187 C   0  0  0  0  0  0  0  0  0  0  0  0
   -5.3424    4.6801    9.5344 C   0  0  0  0  0  0  0  0  0  0  0  0
   -5.1122    5.9845    9.9295 C   0  0  0  0  0  0  0  0  0  0  0  0
   -3.8522    6.5565    9.8191 C   0  0  0  0  0  0  0  0  0  0  0  0
   -3.5827    7.9506   10.2909 C   0  0  0  0  0  0  0  0  0  0  0  0
   -2.8302    5.7940    9.2578 C   0  0  0  0  0  0  0  0  0  0  0  0
   -3.0454    4.4912    8.8620 C   0  0  0  0  0  0  0  0  0  0  0  0
   -3.5053    0.4943    7.9384 C   0  0  0  0  0  0  0  0  0  0  0  0
   -4.4281   -0.0034    6.5632 S   0  0  0  0  0  0  0  0  0  0  0  0
   -3.3038   -1.3085    6.2492 C   0  0  0  0  0  0  0  0  0  0  0  0
   -2.2868   -1.3686    7.1889 C   0  0  0  0  0  0  0  0  0  0  0  0
   -1.3140   -2.3533    7.2102 N   0  0  0  0  0  0  0  0  0  0  0  0
   -1.6550   -3.6643    6.8444 C   0  0  0  0  0  0  0  0  0  0  0  0
   -0.7870   -4.4330    6.0725 C   0  0  0  0  0  0  0  0  0  0  0  0
   -1.1627   -5.6943    5.6557 C   0  0  0  0  0  0  0  0  0  0  0  0
   -2.3977   -6.2299    6.0039 C   0  0  0  0  0  0  0  0  0  0  0  0
   -2.8208   -7.5732    5.4933 C   0  0  0  0  0  0  0  0  0  0  0  0
   -3.2367   -5.4747    6.8132 C   0  0  0  0  0  0  0  0  0  0  0  0
   -2.8789   -4.2069    7.2249 C   0  0  0  0  0  0  0  0  0  0  0  0
   -0.0049   -2.0248    7.5862 C   0  0  0  0  0  0  0  0  0  0  0  0
    0.7671   -2.9219    8.3183 C   0  0  0  0  0  0  0  0  0  0  0  0
    2.0511   -2.5825    8.6969 C   0  0  0  0  0  0  0  0  0  0  0  0
    2.5948   -1.3469    8.3698 C   0  0  0  0  0  0  0  0  0  0  0  0
    3.9775   -0.9641    8.8006 C   0  0  0  0  0  0  0  0  0  0  0  0
    1.8183   -0.4591    7.6338 C   0  0  0  0  0  0  0  0  0  0  0  0
    0.5388   -0.7902    7.2379 C   0  0  0  0  0  0  0  0  0  0  0  0
   -2.4083   -0.3300    8.1425 C   0  0  0  0  0  0  0  0  0  0  0  0
   -1.4499    0.1987    9.4736 S   0  0  0  0  0  0  0  0  0  0  0  0
   -3.3458   -2.0991    5.0476 C   0  0  0  0  0  0  0  0  0  0  0  0
   -4.2832   -2.9668    4.5379 C   0  0  0  0  0  0  0  0  0  0  0  0
   -5.5901   -3.2975    5.1104 C   0  0  0  0  0  0  0  0  0  0  0  0
   -6.4939   -2.3224    5.5180 C   0  0  0  0  0  0  0  0  0  0  0  0
   -7.7253   -2.6935    6.0253 C   0  0  0  0  0  0  0  0  0  0  0  0
   -8.0723   -4.0294    6.1213 C   0  0  0  0  0  0  0  0  0  0  0  0
   -7.1899   -5.0161    5.6999 C   0  0  0  0  0  0  0  0  0  0  0  0
   -7.5737   -6.4675    5.7291 C   0  0  0  0  0  0  0  0  0  0  0  0
   -8.0947   -6.9040    4.3585 C   0  0  0  0  0  0  0  0  0  0  0  0
   -5.9572   -4.6375    5.1930 C   0  0  0  0  0  0  0  0  0  0  0  0
   -3.8092   -3.5903    3.3582 C   0  0  0  0  0  0  0  0  0  0  0  0
   -4.5231   -4.7531    2.2654 S   0  0  0  0  0  0  0  0  0  0  0  0
   -3.1272   -4.6293    1.2466 C   0  0  0  0  0  0  0  0  0  0  0  0
   -2.6418   -5.1300    0.0232 C   0  0  0  0  0  0  0  0  0  0  0  0
   -3.1291   -6.1125   -0.8666 C   0  0  0  0  0  0  0  0  0  0  0  0
   -2.3700   -6.4237   -2.0486 C   0  0  0  0  0  0  0  0  0  0  0  0
   -2.9207   -7.3933   -2.7609 N   0  0  0  0  0  0  0  0  0  0  0  0
   -4.2759   -7.8737   -2.0157 S   0  0  0  0  0  0  0  0  0  0  0  0
   -4.2150   -6.8605   -0.7536 N   0  0  0  0  0  0  0  0  0  0  0  0
   -1.2307   -5.6468   -2.3564 C   0  0  0  0  0  0  0  0  0  0  0  0
   -0.4577   -5.5411   -3.5250 C   0  0  0  0  0  0  0  0  0  0  0  0
   -0.3494   -6.2649   -5.0947 S   0  0  0  0  0  0  0  0  0  0  0  0
    0.8338   -5.0592   -5.5427 C   0  0  0  0  0  0  0  0  0  0  0  0
    1.5326   -4.8140   -6.7407 C   0  0  0  0  0  0  0  0  0  0  0  0
    1.4006   -5.6702   -7.9225 C   0  0  0  0  0  0  0  0  0  0  0  0
    2.5208   -6.2504   -8.5109 C   0  0  0  0  0  0  0  0  0  0  0  0
    2.3686   -7.0790   -9.6059 C   0  0  0  0  0  0  0  0  0  0  0  0
    1.1076   -7.3437  -10.1110 C   0  0  0  0  0  0  0  0  0  0  0  0
   -0.0215   -6.7880   -9.5232 C   0  0  0  0  0  0  0  0  0  0  0  0
   -1.3980   -7.1293  -10.0158 C   0  0  0  0  0  0  0  0  0  0  0  0
   -1.9688   -8.2983   -9.2101 C   0  0  0  0  0  0  0  0  0  0  0  0
    0.1373   -5.9535   -8.4271 C   0  0  0  0  0  0  0  0  0  0  0  0
    2.3409   -3.6977   -6.6320 C   0  0  0  0  0  0  0  0  0  0  0  0
    2.2753   -2.9805   -5.0243 S   0  0  0  0  0  0  0  0  0  0  0  0
    1.1288   -4.1656   -4.5116 C   0  0  0  0  0  0  0  0  0  0  0  0
    0.3997   -4.4504   -3.3508 C   0  0  0  0  0  0  0  0  0  0  0  0
    0.2155   -3.9047   -2.1084 N   0  0  0  0  0  0  0  0  0  0  0  0
   -0.7737   -4.6299   -1.4742 C   0  0  0  0  0  0  0  0  0  0  0  0
   -1.4024   -4.4778   -0.2140 C   0  0  0  0  0  0  0  0  0  0  0  0
   -1.1058   -3.6655    0.8687 N   0  0  0  0  0  0  0  0  0  0  0  0
   -2.1626   -3.7500    1.7390 C   0  0  0  0  0  0  0  0  0  0  0  0
   -2.5466   -3.1689    2.9544 C   0  0  0  0  0  0  0  0  0  0  0  0
   -1.8873   -2.0196    4.0550 S   0  0  0  0  0  0  0  0  0  0  0  0
    0.2005   -3.3191    1.3863 C   0  0  0  0  0  0  0  0  0  0  0  0
    0.6503   -4.3195    2.4508 C   0  0  0  0  0  0  0  0  0  0  0  0
    0.7536   -2.5994   -1.7978 C   0  0  0  0  0  0  0  0  0  0  0  0
    2.2514   -2.6507   -1.4959 C   0  0  0  0  0  0  0  0  0  0  0  0
    3.0902   -3.0006   -7.6199 C   0  0  0  0  0  0  0  0  0  0  0  0
    3.8486   -1.8835   -7.4017 C   0  0  0  0  0  0  0  0  0  0  0  0
    4.4105   -1.3334   -8.5736 C   0  0  0  0  0  0  0  0  0  0  0  0
    5.2394   -0.2035   -8.6789 C   0  0  0  0  0  0  0  0  0  0  0  0
    5.7184    0.4880   -7.4948 C   0  0  0  0  0  0  0  0  0  0  0  0
    5.5447    2.2064   -7.3042 S   0  0  0  0  0  0  0  0  0  0  0  0
    6.3227    2.1918   -5.7600 C   0  0  0  0  0  0  0  0  0  0  0  0
    6.4752    3.4361   -4.9560 C   0  0  0  0  0  0  0  0  0  0  0  0
    5.2930    3.6209   -4.0017 C   0  0  0  0  0  0  0  0  0  0  0  0
    6.6859    0.9219   -5.4222 C   0  0  0  0  0  0  0  0  0  0  0  0
    7.4856    0.5141   -3.9590 Cl  0  0  0  0  0  0  0  0  0  0  0  0
    6.3493   -0.0457   -6.4042 C   0  0  0  0  0  0  0  0  0  0  0  0
    6.7794   -1.7013   -6.2517 Cl  0  0  0  0  0  0  0  0  0  0  0  0
    5.5812    0.2108   -9.9592 C   0  0  0  0  0  0  0  0  0  0  0  0
    5.1938   -0.5065  -11.1233 C   0  0  0  0  0  0  0  0  0  0  0  0
    4.4249   -1.6944  -11.0176 C   0  0  0  0  0  0  0  0  0  0  0  0
    4.0850   -2.5040  -12.1655 C   0  0  0  0  0  0  0  0  0  0  0  0
    2.9472   -3.2335  -12.3871 C   0  0  0  0  0  0  0  0  0  0  0  0
    2.9713   -3.9545  -13.5947 C   0  0  0  0  0  0  0  0  0  0  0  0
    4.1287   -3.8026  -14.2974 C   0  0  0  0  0  0  0  0  0  0  0  0
    4.4946   -4.3762  -15.6220 C   0  0  0  0  0  0  0  0  0  0  0  0
    4.4562   -3.3087  -16.7182 C   0  0  0  0  0  0  0  0  0  0  0  0
    5.2145   -2.7369  -13.4746 S   0  0  0  0  0  0  0  0  0  0  0  0
    4.0255   -2.0494   -9.7360 C   0  0  0  0  0  0  0  0  0  0  0  0
    3.0292   -3.4230   -9.3188 S   0  0  0  0  0  0  0  0  0  0  0  0
    5.6400    0.1460  -12.2812 C   0  0  0  0  0  0  0  0  0  0  0  0
    6.3610    1.3027  -12.0437 C   0  0  0  0  0  0  0  0  0  0  0  0
    6.5217    1.6247  -10.3299 S   0  0  0  0  0  0  0  0  0  0  0  0
    6.8576    2.0883  -13.1036 C   0  0  0  0  0  0  0  0  0  0  0  0
    7.5550    3.2628  -13.0891 C   0  0  0  0  0  0  0  0  0  0  0  0
    7.9750    4.0130  -11.8924 C   0  0  0  0  0  0  0  0  0  0  0  0
    7.8144    3.7049  -10.7267 O   0  0  0  0  0  0  0  0  0  0  0  0
    8.6428    5.2298  -12.3840 C   0  0  0  0  0  0  0  0  0  0  0  0
    9.1908    6.2508  -11.6111 C   0  0  0  0  0  0  0  0  0  0  0  0
    9.7420    7.2730  -12.3450 C   0  0  0  0  0  0  0  0  0  0  0  0
    9.7499    7.2772  -13.7465 C   0  0  0  0  0  0  0  0  0  0  0  0
    9.2181    6.2735  -14.5203 C   0  0  0  0  0  0  0  0  0  0  0  0
    8.6492    5.2231  -13.7935 C   0  0  0  0  0  0  0  0  0  0  0  0
    7.9941    4.0025  -14.2592 C   0  0  0  0  0  0  0  0  0  0  0  0
    7.8421    3.6375  -15.5724 C   0  0  0  0  0  0  0  0  0  0  0  0
    7.2240    2.4597  -16.0429 C   0  0  0  0  0  0  0  0  0  0  0  0
    6.7439    1.5355  -16.5289 N   0  0  0  0  0  0  0  0  0  0  0  0
    8.2971    4.3965  -16.6713 C   0  0  0  0  0  0  0  0  0  0  0  0
    8.6374    4.9542  -17.6157 N   0  0  0  0  0  0  0  0  0  0  0  0
   10.4504    8.6106  -13.8182 C   0  0  0  0  0  0  0  0  0  0  0  0
    9.5964    9.8563  -14.1611 C   0  0  0  0  0  0  0  0  0  0  0  0
    8.1903    9.5520  -13.7068 C   0  0  0  0  0  0  0  0  0  0  0  0
    8.1850    9.5486  -12.3805 C   0  0  0  0  0  0  0  0  0  0  0  0
    9.5876    9.8503  -11.9138 C   0  0  0  0  0  0  0  0  0  0  0  0
   10.0473   10.7981  -13.0332 C   0  0  0  0  0  0  0  0  0  0  0  0
   10.4431    8.6055  -12.2569 C   0  0  0  0  0  0  0  0  0  0  0  0
   -1.2276    2.3464   11.1884 H   0  0  0  0  0  0  0  0  0  0  0  0
   -7.1900    3.4967   12.6489 H   0  0  0  0  0  0  0  0  0  0  0  0
   -3.4415    6.5648   14.1256 H   0  0  0  0  0  0  0  0  0  0  0  0
   -6.4907    7.9980   14.7748 H   0  0  0  0  0  0  0  0  0  0  0  0
   -5.4776    7.0674   17.0555 H   0  0  0  0  0  0  0  0  0  0  0  0
   -7.7453    8.2832   17.5874 H   0  0  0  0  0  0  0  0  0  0  0  0
   -9.7339    6.6897   16.8372 H   0  0  0  0  0  0  0  0  0  0  0  0
   -8.6905    4.4919   15.8444 H   0  0  0  0  0  0  0  0  0  0  0  0
   -6.0300    4.5787   16.2067 H   0  0  0  0  0  0  0  0  0  0  0  0
   -6.8836    4.9277   17.7279 H   0  0  0  0  0  0  0  0  0  0  0  0
   -8.4416    6.4387   14.0412 H   0  0  0  0  0  0  0  0  0  0  0  0
   -6.1015    0.5538    9.3113 H   0  0  0  0  0  0  0  0  0  0  0  0
   -8.2050   -0.0803    8.1975 H   0  0  0  0  0  0  0  0  0  0  0  0
   -9.9445    2.0146    5.7140 H   0  0  0  0  0  0  0  0  0  0  0  0
  -10.0812    0.5973    6.7660 H   0  0  0  0  0  0  0  0  0  0  0  0
   -9.1810    0.4958    5.2527 H   0  0  0  0  0  0  0  0  0  0  0  0
   -7.8280    3.2771    5.5900 H   0  0  0  0  0  0  0  0  0  0  0  0
   -5.7183    3.8982    6.6913 H   0  0  0  0  0  0  0  0  0  0  0  0
   -6.3245    4.2439    9.6386 H   0  0  0  0  0  0  0  0  0  0  0  0
   -5.9253    6.5592   10.3489 H   0  0  0  0  0  0  0  0  0  0  0  0
   -4.4962    8.4284   10.6352 H   0  0  0  0  0  0  0  0  0  0  0  0
   -2.8674    7.9401   11.1135 H   0  0  0  0  0  0  0  0  0  0  0  0
   -3.1525    8.5490    9.4892 H   0  0  0  0  0  0  0  0  0  0  0  0
   -1.8477    6.2273    9.1385 H   0  0  0  0  0  0  0  0  0  0  0  0
   -2.2362    3.9191    8.4334 H   0  0  0  0  0  0  0  0  0  0  0  0
    0.1738   -4.0252    5.7935 H   0  0  0  0  0  0  0  0  0  0  0  0
   -0.4877   -6.2730    5.0407 H   0  0  0  0  0  0  0  0  0  0  0  0
   -1.9788   -8.2617    5.4631 H   0  0  0  0  0  0  0  0  0  0  0  0
   -3.6021   -7.9985    6.1192 H   0  0  0  0  0  0  0  0  0  0  0  0
   -3.2112   -7.4793    4.4782 H   0  0  0  0  0  0  0  0  0  0  0  0
   -4.1875   -5.8789    7.1284 H   0  0  0  0  0  0  0  0  0  0  0  0
   -3.5527   -3.6295    7.8407 H   0  0  0  0  0  0  0  0  0  0  0  0
    0.3527   -3.8810    8.5922 H   0  0  0  0  0  0  0  0  0  0  0  0
    2.6362   -3.2891    9.2679 H   0  0  0  0  0  0  0  0  0  0  0  0
    4.5619   -0.6162    7.9501 H   0  0  0  0  0  0  0  0  0  0  0  0
    3.9323   -0.1523    9.5260 H   0  0  0  0  0  0  0  0  0  0  0  0
    4.4912   -1.8062    9.2573 H   0  0  0  0  0  0  0  0  0  0  0  0
    2.2252    0.5044    7.3634 H   0  0  0  0  0  0  0  0  0  0  0  0
   -0.0442   -0.0977    6.6480 H   0  0  0  0  0  0  0  0  0  0  0  0
   -6.2483   -1.2773    5.4125 H   0  0  0  0  0  0  0  0  0  0  0  0
   -8.4223   -1.9309    6.3388 H   0  0  0  0  0  0  0  0  0  0  0  0
   -9.0383   -4.3092    6.5169 H   0  0  0  0  0  0  0  0  0  0  0  0
   -6.7044   -7.0751    5.9901 H   0  0  0  0  0  0  0  0  0  0  0  0
   -8.3466   -6.6343    6.4819 H   0  0  0  0  0  0  0  0  0  0  0  0
   -8.3704   -7.9559    4.3731 H   0  0  0  0  0  0  0  0  0  0  0  0
   -8.9698   -6.3192    4.0839 H   0  0  0  0  0  0  0  0  0  0  0  0
   -7.3315   -6.7533    3.5983 H   0  0  0  0  0  0  0  0  0  0  0  0
   -5.2628   -5.3962    4.8653 H   0  0  0  0  0  0  0  0  0  0  0  0
    3.5014   -6.0615   -8.0997 H   0  0  0  0  0  0  0  0  0  0  0  0
    3.2383   -7.5254  -10.0647 H   0  0  0  0  0  0  0  0  0  0  0  0
    0.9973   -7.9941  -10.9669 H   0  0  0  0  0  0  0  0  0  0  0  0
   -2.0555   -6.2643   -9.9085 H   0  0  0  0  0  0  0  0  0  0  0  0
   -1.3591   -7.4018  -11.0723 H   0  0  0  0  0  0  0  0  0  0  0  0
   -2.0127   -8.0435   -8.1536 H   0  0  0  0  0  0  0  0  0  0  0  0
   -1.3388   -9.1778   -9.3229 H   0  0  0  0  0  0  0  0  0  0  0  0
   -2.9718   -8.5427   -9.5520 H   0  0  0  0  0  0  0  0  0  0  0  0
   -0.7312   -5.5076   -7.9639 H   0  0  0  0  0  0  0  0  0  0  0  0
    0.1430   -2.3162    1.8215 H   0  0  0  0  0  0  0  0  0  0  0  0
    0.9237   -3.3243    0.5788 H   0  0  0  0  0  0  0  0  0  0  0  0
    0.6968   -5.3212    2.0279 H   0  0  0  0  0  0  0  0  0  0  0  0
    1.6370   -4.0463    2.8153 H   0  0  0  0  0  0  0  0  0  0  0  0
   -0.0403   -4.3268    3.2892 H   0  0  0  0  0  0  0  0  0  0  0  0
    0.6003   -1.9597   -2.6747 H   0  0  0  0  0  0  0  0  0  0  0  0
    0.1866   -2.1693   -0.9718 H   0  0  0  0  0  0  0  0  0  0  0  0
    2.4832   -3.3852   -0.7276 H   0  0  0  0  0  0  0  0  0  0  0  0
    2.8041   -2.9196   -2.3917 H   0  0  0  0  0  0  0  0  0  0  0  0
    2.5921   -1.6745   -1.1625 H   0  0  0  0  0  0  0  0  0  0  0  0
    3.9792   -1.4543   -6.4245 H   0  0  0  0  0  0  0  0  0  0  0  0
    6.5399    4.2919   -5.6291 H   0  0  0  0  0  0  0  0  0  0  0  0
    7.4002    3.3721   -4.3792 H   0  0  0  0  0  0  0  0  0  0  0  0
    4.3628    3.6812   -4.5612 H   0  0  0  0  0  0  0  0  0  0  0  0
    5.4155    4.5353   -3.4274 H   0  0  0  0  0  0  0  0  0  0  0  0
    5.2311    2.7825   -3.3130 H   0  0  0  0  0  0  0  0  0  0  0  0
    2.0989   -3.2246  -11.7272 H   0  0  0  0  0  0  0  0  0  0  0  0
    2.1561   -4.5711  -13.9294 H   0  0  0  0  0  0  0  0  0  0  0  0
    5.4996   -4.8028  -15.5744 H   0  0  0  0  0  0  0  0  0  0  0  0
    3.7926   -5.1775  -15.8627 H   0  0  0  0  0  0  0  0  0  0  0  0
    5.1750   -2.5210  -16.5054 H   0  0  0  0  0  0  0  0  0  0  0  0
    4.7000   -3.7500  -17.6811 H   0  0  0  0  0  0  0  0  0  0  0  0
    3.4651   -2.8650  -16.7798 H   0  0  0  0  0  0  0  0  0  0  0  0
    5.4317   -0.1889  -13.2813 H   0  0  0  0  0  0  0  0  0  0  0  0
    6.6210    1.6717  -14.0753 H   0  0  0  0  0  0  0  0  0  0  0  0
    9.1628    6.2040  -10.5336 H   0  0  0  0  0  0  0  0  0  0  0  0
    9.2355    6.2946  -15.5969 H   0  0  0  0  0  0  0  0  0  0  0  0
   11.4137    8.6164  -14.3241 H   0  0  0  0  0  0  0  0  0  0  0  0
    9.7044   10.2097  -15.1830 H   0  0  0  0  0  0  0  0  0  0  0  0
    7.3819    9.3212  -14.3755 H   0  0  0  0  0  0  0  0  0  0  0  0
    7.3712    9.3140  -11.7195 H   0  0  0  0  0  0  0  0  0  0  0  0
    9.6884   10.1994  -10.8894 H   0  0  0  0  0  0  0  0  0  0  0  0
    9.5072   11.7436  -13.0327 H   0  0  0  0  0  0  0  0  0  0  0  0
   11.1199   10.9870  -13.0287 H   0  0  0  0  0  0  0  0  0  0  0  0
   11.4024    8.6069  -11.7429 H   0  0  0  0  0  0  0  0  0  0  0  0
  1  2  2  0  0  0  0
  2  3  1  0  0  0  0
  3  4  2  0  0  0  0
  3  5  1  0  0  0  0
  5  6  2  0  0  0  0
  6  7  1  0  0  0  0
  7  8  2  0  0  0  0
  8  9  1  0  0  0  0
  9 10  2  0  0  0  0
 10 11  1  0  0  0  0
 11 12  2  0  0  0  0
 12 13  1  0  0  0  0
 13 14  3  0  0  0  0
 12 15  1  0  0  0  0
 15 16  3  0  0  0  0
  8 17  1  0  0  0  0
 17 18  1  0  0  0  0
 18 19  1  0  0  0  0
 19 20  2  0  0  0  0
 20 21  1  0  0  0  0
 21 22  1  0  0  0  0
 21 23  1  0  0  0  0
  1 24  1  0  0  0  0
 24 25  2  0  0  0  0
 25 26  1  0  0  0  0
 26 27  1  0  0  0  0
 27 28  2  0  0  0  0
 28 29  1  0  0  0  0
 29 30  2  0  0  0  0
 30 31  1  0  0  0  0
 30 32  1  0  0  0  0
 32 33  2  0  0  0  0
 26 34  1  0  0  0  0
 34 35  2  0  0  0  0
 35 36  1  0  0  0  0
 36 37  2  0  0  0  0
 37 38  1  0  0  0  0
 37 39  1  0  0  0  0
 39 40  2  0  0  0  0
 25 41  1  0  0  0  0
 41 42  1  0  0  0  0
 42 43  1  0  0  0  0
 43 44  2  0  0  0  0
 44 45  1  0  0  0  0
 45 46  1  0  0  0  0
 46 47  2  0  0  0  0
 47 48  1  0  0  0  0
 48 49  2  0  0  0  0
 49 50  1  0  0  0  0
 49 51  1  0  0  0  0
 51 52  2  0  0  0  0
 45 53  1  0  0  0  0
 53 54  2  0  0  0  0
 54 55  1  0  0  0  0
 55 56  2  0  0  0  0
 56 57  1  0  0  0  0
 56 58  1  0  0  0  0
 58 59  2  0  0  0  0
 44 60  1  0  0  0  0
 60 61  1  0  0  0  0
 43 62  1  0  0  0  0
 62 63  2  0  0  0  0
 63 64  1  0  0  0  0
 64 65  2  0  0  0  0
 65 66  1  0  0  0  0
 66 67  2  0  0  0  0
 67 68  1  0  0  0  0
 68 69  1  0  0  0  0
 69 70  1  0  0  0  0
 68 71  2  0  0  0  0
 63 72  1  0  0  0  0
 72 73  1  0  0  0  0
 73 74  1  0  0  0  0
 74 75  1  0  0  0  0
 75 76  1  0  0  0  0
 76 77  1  0  0  0  0
 77 78  2  0  0  0  0
 78 79  1  0  0  0  0
 79 80  1  0  0  0  0
 77 81  1  0  0  0  0
 81 82  1  0  0  0  0
 82 83  1  0  0  0  0
 83 84  1  0  0  0  0
 84 85  1  0  0  0  0
 85 86  1  0  0  0  0
 86 87  2  0  0  0  0
 87 88  1  0  0  0  0
 88 89  2  0  0  0  0
 89 90  1  0  0  0  0
 90 91  1  0  0  0  0
 91 92  1  0  0  0  0
 90 93  2  0  0  0  0
 85 94  2  0  0  0  0
 94 95  1  0  0  0  0
 95 96  1  0  0  0  0
 96 97  1  0  0  0  0
 97 98  1  0  0  0  0
 98 99  1  0  0  0  0
 99100  1  0  0  0  0
100101  1  0  0  0  0
101102  1  0  0  0  0
102103  1  0  0  0  0
103104  1  0  0  0  0
101105  1  0  0  0  0
105106  1  0  0  0  0
 98107  1  0  0  0  0
107108  1  0  0  0  0
 94109  1  0  0  0  0
109110  2  0  0  0  0
110111  1  0  0  0  0
111112  2  0  0  0  0
112113  1  0  0  0  0
113114  1  0  0  0  0
114115  1  0  0  0  0
115116  1  0  0  0  0
116117  1  0  0  0  0
115118  2  0  0  0  0
118119  1  0  0  0  0
118120  1  0  0  0  0
120121  1  0  0  0  0
112122  1  0  0  0  0
122123  2  0  0  0  0
123124  1  0  0  0  0
124125  1  0  0  0  0
125126  2  0  0  0  0
126127  1  0  0  0  0
127128  2  0  0  0  0
128129  1  0  0  0  0
129130  1  0  0  0  0
128131  1  0  0  0  0
124132  2  0  0  0  0
132133  1  0  0  0  0
123134  1  0  0  0  0
134135  2  0  0  0  0
135136  1  0  0  0  0
135137  1  0  0  0  0
137138  2  0  0  0  0
138139  1  0  0  0  0
139140  2  0  0  0  0
139141  1  0  0  0  0
141142  2  0  0  0  0
142143  1  0  0  0  0
143144  2  0  0  0  0
144145  1  0  0  0  0
145146  2  0  0  0  0
146147  1  0  0  0  0
147148  2  0  0  0  0
148149  1  0  0  0  0
149150  3  0  0  0  0
148151  1  0  0  0  0
151152  3  0  0  0  0
144153  1  0  0  0  0
153154  1  0  0  0  0
154155  1  0  0  0  0
155156  2  0  0  0  0
156157  1  0  0  0  0
157158  1  0  0  0  0
157159  1  0  0  0  0
 11  2  1  0  0  0  0
 23 17  1  0  0  0  0
 61 24  1  0  0  0  0
104 62  1  0  0  0  0
133109  1  0  0  0  0
147138  1  0  0  0  0
159153  1  0  0  0  0
 10  5  1  0  0  0  0
 22 18  1  0  0  0  0
 33 27  1  0  0  0  0
 40 34  1  0  0  0  0
 60 41  2  0  0  0  0
 71 64  1  0  0  0  0
103 72  2  0  0  0  0
132111  1  0  0  0  0
146141  1  0  0  0  0
158154  1  0  0  0  0
 23  7  1  0  0  0  0
 52 46  1  0  0  0  0
 59 53  1  0  0  0  0
102 74  2  0  0  0  0
120113  2  0  0  0  0
136122  1  0  0  0  0
159143  1  0  0  0  0
100 75  2  0  0  0  0
131125  1  0  0  0  0
 80 76  2  0  0  0  0
 99 81  2  0  0  0  0
 97 82  2  0  0  0  0
 96 84  2  0  0  0  0
 93 86  1  0  0  0  0
  1160  1  0  0  0  0
  6161  1  0  0  0  0
  9162  1  0  0  0  0
 17163  1  0  0  0  0
 18164  1  0  0  0  0
 19165  1  0  0  0  0
 20166  1  0  0  0  0
 21167  1  0  0  0  0
 22168  1  0  0  0  0
 22169  1  0  0  0  0
 23170  1  0  0  0  0
 28171  1  0  0  0  0
 29172  1  0  0  0  0
 31173  1  0  0  0  0
 31174  1  0  0  0  0
 31175  1  0  0  0  0
 32176  1  0  0  0  0
 33177  1  0  0  0  0
 35178  1  0  0  0  0
 36179  1  0  0  0  0
 38180  1  0  0  0  0
 38181  1  0  0  0  0
 38182  1  0  0  0  0
 39183  1  0  0  0  0
 40184  1  0  0  0  0
 47185  1  0  0  0  0
 48186  1  0  0  0  0
 50187  1  0  0  0  0
 50188  1  0  0  0  0
 50189  1  0  0  0  0
 51190  1  0  0  0  0
 52191  1  0  0  0  0
 54192  1  0  0  0  0
 55193  1  0  0  0  0
 57194  1  0  0  0  0
 57195  1  0  0  0  0
 57196  1  0  0  0  0
 58197  1  0  0  0  0
 59198  1  0  0  0  0
 65199  1  0  0  0  0
 66200  1  0  0  0  0
 67201  1  0  0  0  0
 69202  1  0  0  0  0
 69203  1  0  0  0  0
 70204  1  0  0  0  0
 70205  1  0  0  0  0
 70206  1  0  0  0  0
 71207  1  0  0  0  0
 87208  1  0  0  0  0
 88209  1  0  0  0  0
 89210  1  0  0  0  0
 91211  1  0  0  0  0
 91212  1  0  0  0  0
 92213  1  0  0  0  0
 92214  1  0  0  0  0
 92215  1  0  0  0  0
 93216  1  0  0  0  0
105217  1  0  0  0  0
105218  1  0  0  0  0
106219  1  0  0  0  0
106220  1  0  0  0  0
106221  1  0  0  0  0
107222  1  0  0  0  0
107223  1  0  0  0  0
108224  1  0  0  0  0
108225  1  0  0  0  0
108226  1  0  0  0  0
110227  1  0  0  0  0
116228  1  0  0  0  0
116229  1  0  0  0  0
117230  1  0  0  0  0
117231  1  0  0  0  0
117232  1  0  0  0  0
126233  1  0  0  0  0
127234  1  0  0  0  0
129235  1  0  0  0  0
129236  1  0  0  0  0
130237  1  0  0  0  0
130238  1  0  0  0  0
130239  1  0  0  0  0
134240  1  0  0  0  0
137241  1  0  0  0  0
142242  1  0  0  0  0
145243  1  0  0  0  0
153244  1  0  0  0  0
154245  1  0  0  0  0
155246  1  0  0  0  0
156247  1  0  0  0  0
157248  1  0  0  0  0
158249  1  0  0  0  0
158250  1  0  0  0  0
159251  1  0  0  0  0
M  END
