
  xtb     02232201443D
 energy: -386.817722645295 gnorm: 0.000240765965 xtb: 6.4.1 (unknown)
225251  0     0  0            999 V2000
   -9.4060    2.8438    0.3592 C   0  0  0  0  0  0  0  0  0  0  0  0
   -9.8199    3.7247    1.3381 C   0  0  0  0  0  0  0  0  0  0  0  0
   -8.8956    4.4693    2.2053 C   0  0  0  0  0  0  0  0  0  0  0  0
   -7.6775    4.4643    2.1719 O   0  0  0  0  0  0  0  0  0  0  0  0
   -9.7416    5.1306    3.2202 C   0  0  0  0  0  0  0  0  0  0  0  0
   -9.3157    5.9447    4.2640 C   0  0  0  0  0  0  0  0  0  0  0  0
  -10.3378    6.4454    5.0356 C   0  0  0  0  0  0  0  0  0  0  0  0
  -11.6829    6.1424    4.7972 C   0  0  0  0  0  0  0  0  0  0  0  0
  -12.1150    5.3261    3.7777 C   0  0  0  0  0  0  0  0  0  0  0  0
  -11.0926    4.8216    2.9729 C   0  0  0  0  0  0  0  0  0  0  0  0
  -11.1594    3.9647    1.7897 C   0  0  0  0  0  0  0  0  0  0  0  0
  -12.3054    3.5946    1.1263 C   0  0  0  0  0  0  0  0  0  0  0  0
  -12.3132    2.8822   -0.0883 C   0  0  0  0  0  0  0  0  0  0  0  0
  -12.3930    2.3303   -1.0931 N   0  0  0  0  0  0  0  0  0  0  0  0
  -13.6055    3.9501    1.5260 C   0  0  0  0  0  0  0  0  0  0  0  0
  -14.6898    4.2241    1.7919 N   0  0  0  0  0  0  0  0  0  0  0  0
  -12.1623    7.0000    5.9420 C   0  0  0  0  0  0  0  0  0  0  0  0
  -12.7691    8.3823    5.5966 C   0  0  0  0  0  0  0  0  0  0  0  0
  -12.1521    8.8069    4.2874 C   0  0  0  0  0  0  0  0  0  0  0  0
  -10.8780    9.0965    4.5153 C   0  0  0  0  0  0  0  0  0  0  0  0
  -10.6104    8.8702    5.9824 C   0  0  0  0  0  0  0  0  0  0  0  0
  -11.9739    9.2663    6.5706 C   0  0  0  0  0  0  0  0  0  0  0  0
  -10.6616    7.3386    6.2077 C   0  0  0  0  0  0  0  0  0  0  0  0
   -8.1780    2.8968   -0.2998 C   0  0  0  0  0  0  0  0  0  0  0  0
   -7.2936    3.9749   -0.5255 C   0  0  0  0  0  0  0  0  0  0  0  0
   -7.5551    5.2996   -0.3620 N   0  0  0  0  0  0  0  0  0  0  0  0
   -6.4734    6.2143   -0.3199 C   0  0  0  0  0  0  0  0  0  0  0  0
   -5.4667    6.0735    0.6295 C   0  0  0  0  0  0  0  0  0  0  0  0
   -4.4096    6.9609    0.6400 C   0  0  0  0  0  0  0  0  0  0  0  0
   -4.3316    7.9962   -0.2860 C   0  0  0  0  0  0  0  0  0  0  0  0
   -3.1704    8.9405   -0.2599 C   0  0  0  0  0  0  0  0  0  0  0  0
   -5.3545    8.1362   -1.2145 C   0  0  0  0  0  0  0  0  0  0  0  0
   -6.4222    7.2590   -1.2338 C   0  0  0  0  0  0  0  0  0  0  0  0
   -8.8468    5.8391   -0.2718 C   0  0  0  0  0  0  0  0  0  0  0  0
   -9.1016    6.8494    0.6531 C   0  0  0  0  0  0  0  0  0  0  0  0
  -10.3771    7.3634    0.7882 C   0  0  0  0  0  0  0  0  0  0  0  0
  -11.4233    6.9003    0.0005 C   0  0  0  0  0  0  0  0  0  0  0  0
  -12.8155    7.4153    0.1875 C   0  0  0  0  0  0  0  0  0  0  0  0
  -11.1479    5.9279   -0.9572 C   0  0  0  0  0  0  0  0  0  0  0  0
   -9.8812    5.3994   -1.0952 C   0  0  0  0  0  0  0  0  0  0  0  0
   -6.0841    3.5048   -1.0864 C   0  0  0  0  0  0  0  0  0  0  0  0
   -4.6033    4.2783   -1.5449 S   0  0  0  0  0  0  0  0  0  0  0  0
   -3.9513    2.7442   -2.0962 C   0  0  0  0  0  0  0  0  0  0  0  0
   -4.8705    1.7061   -1.9924 C   0  0  0  0  0  0  0  0  0  0  0  0
   -4.6612    0.4203   -2.4620 N   0  0  0  0  0  0  0  0  0  0  0  0
   -5.2041   -0.6564   -1.7452 C   0  0  0  0  0  0  0  0  0  0  0  0
   -5.1753   -0.6489   -0.3532 C   0  0  0  0  0  0  0  0  0  0  0  0
   -5.7323   -1.6927    0.3583 C   0  0  0  0  0  0  0  0  0  0  0  0
   -6.3190   -2.7709   -0.2918 C   0  0  0  0  0  0  0  0  0  0  0  0
   -6.9463   -3.8887    0.4830 C   0  0  0  0  0  0  0  0  0  0  0  0
   -6.3326   -2.7751   -1.6821 C   0  0  0  0  0  0  0  0  0  0  0  0
   -5.7887   -1.7335   -2.4056 C   0  0  0  0  0  0  0  0  0  0  0  0
   -4.0261    0.2209   -3.6947 C   0  0  0  0  0  0  0  0  0  0  0  0
   -4.1679    1.1473   -4.7259 C   0  0  0  0  0  0  0  0  0  0  0  0
   -3.4926    0.9751   -5.9158 C   0  0  0  0  0  0  0  0  0  0  0  0
   -2.6693   -0.1269   -6.1222 C   0  0  0  0  0  0  0  0  0  0  0  0
   -1.9264   -0.2850   -7.4133 C   0  0  0  0  0  0  0  0  0  0  0  0
   -2.5532   -1.0598   -5.1003 C   0  0  0  0  0  0  0  0  0  0  0  0
   -3.2156   -0.8931   -3.8996 C   0  0  0  0  0  0  0  0  0  0  0  0
   -6.0702    2.1506   -1.3914 C   0  0  0  0  0  0  0  0  0  0  0  0
   -7.5579    1.3814   -0.9813 S   0  0  0  0  0  0  0  0  0  0  0  0
   -2.5703    2.6502   -2.4309 C   0  0  0  0  0  0  0  0  0  0  0  0
   -1.7226    3.6503   -2.8748 C   0  0  0  0  0  0  0  0  0  0  0  0
   -2.1686    4.9760   -3.3039 C   0  0  0  0  0  0  0  0  0  0  0  0
   -1.4894    6.1137   -2.8786 C   0  0  0  0  0  0  0  0  0  0  0  0
   -1.9330    7.3646   -3.2630 C   0  0  0  0  0  0  0  0  0  0  0  0
   -3.0551    7.4939   -4.0609 C   0  0  0  0  0  0  0  0  0  0  0  0
   -3.7381    6.3691   -4.5063 C   0  0  0  0  0  0  0  0  0  0  0  0
   -4.9271    6.5008   -5.4142 C   0  0  0  0  0  0  0  0  0  0  0  0
   -4.4885    6.4839   -6.8796 C   0  0  0  0  0  0  0  0  0  0  0  0
   -3.2767    5.1172   -4.1342 C   0  0  0  0  0  0  0  0  0  0  0  0
   -0.3779    3.2294   -2.8527 C   0  0  0  0  0  0  0  0  0  0  0  0
    1.1237    4.0228   -3.2707 S   0  0  0  0  0  0  0  0  0  0  0  0
    1.9856    2.6008   -2.7835 C   0  0  0  0  0  0  0  0  0  0  0  0
    3.3062    2.1678   -2.5930 C   0  0  0  0  0  0  0  0  0  0  0  0
    4.5299    2.8537   -2.7510 C   0  0  0  0  0  0  0  0  0  0  0  0
    5.7384    2.2225   -2.3083 C   0  0  0  0  0  0  0  0  0  0  0  0
    6.8003    2.9983   -2.4602 N   0  0  0  0  0  0  0  0  0  0  0  0
    6.3205    4.4008   -3.1115 S   0  0  0  0  0  0  0  0  0  0  0  0
    4.7383    4.0741   -3.2198 N   0  0  0  0  0  0  0  0  0  0  0  0
    5.6757    0.9042   -1.8078 C   0  0  0  0  0  0  0  0  0  0  0  0
    6.6850    0.0567   -1.3291 C   0  0  0  0  0  0  0  0  0  0  0  0
    8.3843    0.0887   -1.0015 S   0  0  0  0  0  0  0  0  0  0  0  0
    8.2801   -1.5609   -0.4298 C   0  0  0  0  0  0  0  0  0  0  0  0
    9.2210   -2.4255    0.1560 C   0  0  0  0  0  0  0  0  0  0  0  0
   10.5869   -2.0194    0.4828 C   0  0  0  0  0  0  0  0  0  0  0  0
   11.3481   -1.3054   -0.4381 C   0  0  0  0  0  0  0  0  0  0  0  0
   12.6437   -0.9416   -0.1239 C   0  0  0  0  0  0  0  0  0  0  0  0
   13.1861   -1.2780    1.1032 C   0  0  0  0  0  0  0  0  0  0  0  0
   12.4330   -1.9713    2.0440 C   0  0  0  0  0  0  0  0  0  0  0  0
   13.0021   -2.2959    3.3952 C   0  0  0  0  0  0  0  0  0  0  0  0
   12.7628   -1.1403    4.3688 C   0  0  0  0  0  0  0  0  0  0  0  0
   11.1322   -2.3255    1.7275 C   0  0  0  0  0  0  0  0  0  0  0  0
    8.6385   -3.6377    0.5029 C   0  0  0  0  0  0  0  0  0  0  0  0
    6.9199   -3.6849    0.1543 S   0  0  0  0  0  0  0  0  0  0  0  0
    6.9881   -2.0934   -0.5090 C   0  0  0  0  0  0  0  0  0  0  0  0
    6.0780   -1.1644   -1.0233 C   0  0  0  0  0  0  0  0  0  0  0  0
    4.7342   -1.1015   -1.2802 N   0  0  0  0  0  0  0  0  0  0  0  0
    4.4519    0.1740   -1.7461 C   0  0  0  0  0  0  0  0  0  0  0  0
    3.2416    0.8461   -2.0620 C   0  0  0  0  0  0  0  0  0  0  0  0
    1.9043    0.4997   -1.9380 N   0  0  0  0  0  0  0  0  0  0  0  0
    1.1544    1.5650   -2.3527 C   0  0  0  0  0  0  0  0  0  0  0  0
   -0.1988    1.9229   -2.3973 C   0  0  0  0  0  0  0  0  0  0  0  0
   -1.7049    1.1808   -1.9968 S   0  0  0  0  0  0  0  0  0  0  0  0
    1.2697   -0.5519   -1.1773 C   0  0  0  0  0  0  0  0  0  0  0  0
    1.5748   -0.4258    0.3137 C   0  0  0  0  0  0  0  0  0  0  0  0
    3.9882   -2.3342   -1.4066 C   0  0  0  0  0  0  0  0  0  0  0  0
    3.6265   -2.6206   -2.8620 C   0  0  0  0  0  0  0  0  0  0  0  0
    9.2242   -4.7974    1.1048 C   0  0  0  0  0  0  0  0  0  0  0  0
    8.4800   -5.5395    2.0584 C   0  0  0  0  0  0  0  0  0  0  0  0
    9.0254   -6.6829    2.7422 C   0  0  0  0  0  0  0  0  0  0  0  0
    8.1910   -7.1402    3.6746 N   0  0  0  0  0  0  0  0  0  0  0  0
    6.8456   -6.2689    3.6504 S   0  0  0  0  0  0  0  0  0  0  0  0
    7.2574   -5.2352    2.4927 N   0  0  0  0  0  0  0  0  0  0  0  0
   10.3292   -7.1578    2.4643 C   0  0  0  0  0  0  0  0  0  0  0  0
   11.0617   -6.4128    1.5161 C   0  0  0  0  0  0  0  0  0  0  0  0
   12.3663   -6.7015    1.0439 C   0  0  0  0  0  0  0  0  0  0  0  0
   12.7722   -5.8623    0.0513 C   0  0  0  0  0  0  0  0  0  0  0  0
   14.0565   -5.8350   -0.6597 C   0  0  0  0  0  0  0  0  0  0  0  0
   14.3329   -5.0280   -1.5128 O   0  0  0  0  0  0  0  0  0  0  0  0
   14.8741   -6.7994   -0.2266 O   0  0  0  0  0  0  0  0  0  0  0  0
   16.1604   -6.8766   -0.8450 C   0  0  0  0  0  0  0  0  0  0  0  0
   16.1001   -7.6378   -2.1612 C   0  0  0  0  0  0  0  0  0  0  0  0
   11.5847   -4.6740   -0.3744 S   0  0  0  0  0  0  0  0  0  0  0  0
   10.5039   -5.2903    0.8439 C   0  0  0  0  0  0  0  0  0  0  0  0
   10.8934   -8.2685    3.1473 C   0  0  0  0  0  0  0  0  0  0  0  0
   10.1991   -9.3541    3.6050 C   0  0  0  0  0  0  0  0  0  0  0  0
    8.8671   -9.7745    3.1058 C   0  0  0  0  0  0  0  0  0  0  0  0
    8.2344   -9.3099    2.1819 O   0  0  0  0  0  0  0  0  0  0  0  0
    8.5251  -10.9919    3.8708 C   0  0  0  0  0  0  0  0  0  0  0  0
    7.3796  -11.7312    3.8254 C   0  0  0  0  0  0  0  0  0  0  0  0
    7.2646  -12.8721    4.6512 C   0  0  0  0  0  0  0  0  0  0  0  0
    6.0998  -13.6633    4.6536 C   0  0  0  0  0  0  0  0  0  0  0  0
    6.0165  -14.7628    5.4611 C   0  0  0  0  0  0  0  0  0  0  0  0
    4.9058  -15.5150    5.4616 F   0  0  0  0  0  0  0  0  0  0  0  0
    7.0911  -15.1182    6.2996 C   0  0  0  0  0  0  0  0  0  0  0  0
    6.9808  -16.2016    7.0818 F   0  0  0  0  0  0  0  0  0  0  0  0
    8.2346  -14.3700    6.3194 C   0  0  0  0  0  0  0  0  0  0  0  0
    8.3520  -13.2299    5.4992 C   0  0  0  0  0  0  0  0  0  0  0  0
    9.5307  -12.4490    5.5156 C   0  0  0  0  0  0  0  0  0  0  0  0
    9.6155  -11.3410    4.7143 C   0  0  0  0  0  0  0  0  0  0  0  0
   10.6775  -10.3536    4.5345 C   0  0  0  0  0  0  0  0  0  0  0  0
   11.8861  -10.3638    5.1863 C   0  0  0  0  0  0  0  0  0  0  0  0
   12.2821  -11.3583    6.1035 C   0  0  0  0  0  0  0  0  0  0  0  0
   12.6671  -12.1373    6.8545 N   0  0  0  0  0  0  0  0  0  0  0  0
   12.9032   -9.3998    5.0352 C   0  0  0  0  0  0  0  0  0  0  0  0
   13.7792   -8.6590    4.9693 N   0  0  0  0  0  0  0  0  0  0  0  0
  -10.0463    2.0079    0.1043 H   0  0  0  0  0  0  0  0  0  0  0  0
   -8.2675    6.1505    4.4166 H   0  0  0  0  0  0  0  0  0  0  0  0
  -13.1535    5.0893    3.6146 H   0  0  0  0  0  0  0  0  0  0  0  0
  -12.7163    6.4885    6.7267 H   0  0  0  0  0  0  0  0  0  0  0  0
  -13.8535    8.4259    5.6512 H   0  0  0  0  0  0  0  0  0  0  0  0
  -12.6773    8.7957    3.3501 H   0  0  0  0  0  0  0  0  0  0  0  0
  -10.1199    9.3804    3.8083 H   0  0  0  0  0  0  0  0  0  0  0  0
   -9.7286    9.3580    6.3901 H   0  0  0  0  0  0  0  0  0  0  0  0
  -12.0956    8.9796    7.6142 H   0  0  0  0  0  0  0  0  0  0  0  0
  -12.1923   10.3269    6.4528 H   0  0  0  0  0  0  0  0  0  0  0  0
  -10.2354    7.0460    7.1656 H   0  0  0  0  0  0  0  0  0  0  0  0
   -5.5416    5.2782    1.3548 H   0  0  0  0  0  0  0  0  0  0  0  0
   -3.6293    6.8509    1.3789 H   0  0  0  0  0  0  0  0  0  0  0  0
   -3.1511    9.4912    0.6802 H   0  0  0  0  0  0  0  0  0  0  0  0
   -2.2361    8.3880   -0.3419 H   0  0  0  0  0  0  0  0  0  0  0  0
   -3.2291    9.6530   -1.0782 H   0  0  0  0  0  0  0  0  0  0  0  0
   -5.3150    8.9385   -1.9363 H   0  0  0  0  0  0  0  0  0  0  0  0
   -7.2138    7.3710   -1.9604 H   0  0  0  0  0  0  0  0  0  0  0  0
   -8.2970    7.2120    1.2751 H   0  0  0  0  0  0  0  0  0  0  0  0
  -10.5660    8.1246    1.5309 H   0  0  0  0  0  0  0  0  0  0  0  0
  -12.8052    8.4228    0.5964 H   0  0  0  0  0  0  0  0  0  0  0  0
  -13.3581    7.4193   -0.7550 H   0  0  0  0  0  0  0  0  0  0  0  0
  -13.3602    6.7727    0.8810 H   0  0  0  0  0  0  0  0  0  0  0  0
  -11.9406    5.5713   -1.5986 H   0  0  0  0  0  0  0  0  0  0  0  0
   -9.6931    4.6403   -1.8395 H   0  0  0  0  0  0  0  0  0  0  0  0
   -4.7112    0.1775    0.1656 H   0  0  0  0  0  0  0  0  0  0  0  0
   -5.7064   -1.6703    1.4382 H   0  0  0  0  0  0  0  0  0  0  0  0
   -8.0092   -3.6901    0.6248 H   0  0  0  0  0  0  0  0  0  0  0  0
   -6.8502   -4.8325   -0.0490 H   0  0  0  0  0  0  0  0  0  0  0  0
   -6.4886   -3.9869    1.4646 H   0  0  0  0  0  0  0  0  0  0  0  0
   -6.7877   -3.6025   -2.2070 H   0  0  0  0  0  0  0  0  0  0  0  0
   -5.8210   -1.7438   -3.4851 H   0  0  0  0  0  0  0  0  0  0  0  0
   -4.8187    1.9988   -4.5896 H   0  0  0  0  0  0  0  0  0  0  0  0
   -3.6102    1.7050   -6.7040 H   0  0  0  0  0  0  0  0  0  0  0  0
   -2.5932   -0.1348   -8.2606 H   0  0  0  0  0  0  0  0  0  0  0  0
   -1.1303    0.4568   -7.4820 H   0  0  0  0  0  0  0  0  0  0  0  0
   -1.4813   -1.2739   -7.4887 H   0  0  0  0  0  0  0  0  0  0  0  0
   -1.9245   -1.9277   -5.2393 H   0  0  0  0  0  0  0  0  0  0  0  0
   -3.1014   -1.6181   -3.1076 H   0  0  0  0  0  0  0  0  0  0  0  0
   -0.6265    6.0145   -2.2378 H   0  0  0  0  0  0  0  0  0  0  0  0
   -1.4004    8.2452   -2.9356 H   0  0  0  0  0  0  0  0  0  0  0  0
   -3.4025    8.4759   -4.3481 H   0  0  0  0  0  0  0  0  0  0  0  0
   -5.4493    7.4363   -5.2042 H   0  0  0  0  0  0  0  0  0  0  0  0
   -5.6207    5.6765   -5.2353 H   0  0  0  0  0  0  0  0  0  0  0  0
   -3.9726    5.5542   -7.1089 H   0  0  0  0  0  0  0  0  0  0  0  0
   -5.3501    6.5754   -7.5370 H   0  0  0  0  0  0  0  0  0  0  0  0
   -3.8087    7.3088   -7.0803 H   0  0  0  0  0  0  0  0  0  0  0  0
   -3.7810    4.2319   -4.4946 H   0  0  0  0  0  0  0  0  0  0  0  0
   10.9340   -1.0653   -1.4050 H   0  0  0  0  0  0  0  0  0  0  0  0
   13.2370   -0.4005   -0.8452 H   0  0  0  0  0  0  0  0  0  0  0  0
   14.2042   -1.0021    1.3365 H   0  0  0  0  0  0  0  0  0  0  0  0
   14.0752   -2.4778    3.3090 H   0  0  0  0  0  0  0  0  0  0  0  0
   12.5336   -3.2014    3.7871 H   0  0  0  0  0  0  0  0  0  0  0  0
   13.2353   -0.2323    4.0014 H   0  0  0  0  0  0  0  0  0  0  0  0
   11.6970   -0.9511    4.4763 H   0  0  0  0  0  0  0  0  0  0  0  0
   13.1749   -1.3760    5.3472 H   0  0  0  0  0  0  0  0  0  0  0  0
   10.5299   -2.8514    2.4557 H   0  0  0  0  0  0  0  0  0  0  0  0
    0.1938   -0.4411   -1.3338 H   0  0  0  0  0  0  0  0  0  0  0  0
    1.5498   -1.5296   -1.5676 H   0  0  0  0  0  0  0  0  0  0  0  0
    2.6462   -0.4413    0.4995 H   0  0  0  0  0  0  0  0  0  0  0  0
    1.1789    0.5135    0.6924 H   0  0  0  0  0  0  0  0  0  0  0  0
    1.1089   -1.2420    0.8593 H   0  0  0  0  0  0  0  0  0  0  0  0
    4.6409   -3.1280   -1.0352 H   0  0  0  0  0  0  0  0  0  0  0  0
    3.1062   -2.3224   -0.7665 H   0  0  0  0  0  0  0  0  0  0  0  0
    3.0539   -3.5419   -2.9276 H   0  0  0  0  0  0  0  0  0  0  0  0
    4.5322   -2.7330   -3.4535 H   0  0  0  0  0  0  0  0  0  0  0  0
    3.0418   -1.8096   -3.2903 H   0  0  0  0  0  0  0  0  0  0  0  0
   12.9874   -7.4944    1.4178 H   0  0  0  0  0  0  0  0  0  0  0  0
   16.5341   -5.8610   -1.0117 H   0  0  0  0  0  0  0  0  0  0  0  0
   16.7897   -7.3928   -0.1175 H   0  0  0  0  0  0  0  0  0  0  0  0
   17.1012   -7.7340   -2.5711 H   0  0  0  0  0  0  0  0  0  0  0  0
   15.4782   -7.1002   -2.8729 H   0  0  0  0  0  0  0  0  0  0  0  0
   15.6828   -8.6295   -2.0038 H   0  0  0  0  0  0  0  0  0  0  0  0
   11.9612   -8.2269    3.3158 H   0  0  0  0  0  0  0  0  0  0  0  0
    6.5689  -11.4463    3.1721 H   0  0  0  0  0  0  0  0  0  0  0  0
    5.2683  -13.4050    4.0166 H   0  0  0  0  0  0  0  0  0  0  0  0
    9.0482  -14.6558    6.9676 H   0  0  0  0  0  0  0  0  0  0  0  0
   10.3371  -12.7503    6.1643 H   0  0  0  0  0  0  0  0  0  0  0  0
  1  2  2  0  0  0  0
  2  3  1  0  0  0  0
  3  4  2  0  0  0  0
  3  5  1  0  0  0  0
  5  6  2  0  0  0  0
  6  7  1  0  0  0  0
  7  8  2  0  0  0  0
  8  9  1  0  0  0  0
  9 10  2  0  0  0  0
 10 11  1  0  0  0  0
 11 12  2  0  0  0  0
 12 13  1  0  0  0  0
 13 14  3  0  0  0  0
 12 15  1  0  0  0  0
 15 16  3  0  0  0  0
  8 17  1  0  0  0  0
 17 18  1  0  0  0  0
 18 19  1  0  0  0  0
 19 20  2  0  0  0  0
 20 21  1  0  0  0  0
 21 22  1  0  0  0  0
 21 23  1  0  0  0  0
  1 24  1  0  0  0  0
 24 25  2  0  0  0  0
 25 26  1  0  0  0  0
 26 27  1  0  0  0  0
 27 28  2  0  0  0  0
 28 29  1  0  0  0  0
 29 30  2  0  0  0  0
 30 31  1  0  0  0  0
 30 32  1  0  0  0  0
 32 33  2  0  0  0  0
 26 34  1  0  0  0  0
 34 35  2  0  0  0  0
 35 36  1  0  0  0  0
 36 37  2  0  0  0  0
 37 38  1  0  0  0  0
 37 39  1  0  0  0  0
 39 40  2  0  0  0  0
 25 41  1  0  0  0  0
 41 42  1  0  0  0  0
 42 43  1  0  0  0  0
 43 44  2  0  0  0  0
 44 45  1  0  0  0  0
 45 46  1  0  0  0  0
 46 47  2  0  0  0  0
 47 48  1  0  0  0  0
 48 49  2  0  0  0  0
 49 50  1  0  0  0  0
 49 51  1  0  0  0  0
 51 52  2  0  0  0  0
 45 53  1  0  0  0  0
 53 54  2  0  0  0  0
 54 55  1  0  0  0  0
 55 56  2  0  0  0  0
 56 57  1  0  0  0  0
 56 58  1  0  0  0  0
 58 59  2  0  0  0  0
 44 60  1  0  0  0  0
 60 61  1  0  0  0  0
 43 62  1  0  0  0  0
 62 63  2  0  0  0  0
 63 64  1  0  0  0  0
 64 65  2  0  0  0  0
 65 66  1  0  0  0  0
 66 67  2  0  0  0  0
 67 68  1  0  0  0  0
 68 69  1  0  0  0  0
 69 70  1  0  0  0  0
 68 71  2  0  0  0  0
 63 72  1  0  0  0  0
 72 73  1  0  0  0  0
 73 74  1  0  0  0  0
 74 75  1  0  0  0  0
 75 76  1  0  0  0  0
 76 77  1  0  0  0  0
 77 78  2  0  0  0  0
 78 79  1  0  0  0  0
 79 80  1  0  0  0  0
 77 81  1  0  0  0  0
 81 82  1  0  0  0  0
 82 83  1  0  0  0  0
 83 84  1  0  0  0  0
 84 85  1  0  0  0  0
 85 86  1  0  0  0  0
 86 87  2  0  0  0  0
 87 88  1  0  0  0  0
 88 89  2  0  0  0  0
 89 90  1  0  0  0  0
 90 91  1  0  0  0  0
 91 92  1  0  0  0  0
 90 93  2  0  0  0  0
 85 94  2  0  0  0  0
 94 95  1  0  0  0  0
 95 96  1  0  0  0  0
 96 97  1  0  0  0  0
 97 98  1  0  0  0  0
 98 99  1  0  0  0  0
 99100  1  0  0  0  0
100101  1  0  0  0  0
101102  1  0  0  0  0
102103  1  0  0  0  0
103104  1  0  0  0  0
101105  1  0  0  0  0
105106  1  0  0  0  0
 98107  1  0  0  0  0
107108  1  0  0  0  0
 94109  1  0  0  0  0
109110  1  0  0  0  0
110111  1  0  0  0  0
111112  2  0  0  0  0
112113  1  0  0  0  0
113114  1  0  0  0  0
111115  1  0  0  0  0
115116  2  0  0  0  0
116117  1  0  0  0  0
117118  2  0  0  0  0
118119  1  0  0  0  0
119120  2  0  0  0  0
119121  1  0  0  0  0
121122  1  0  0  0  0
122123  1  0  0  0  0
118124  1  0  0  0  0
124125  1  0  0  0  0
115126  1  0  0  0  0
126127  2  0  0  0  0
127128  1  0  0  0  0
128129  2  0  0  0  0
128130  1  0  0  0  0
130131  2  0  0  0  0
131132  1  0  0  0  0
132133  2  0  0  0  0
133134  1  0  0  0  0
134135  1  0  0  0  0
134136  2  0  0  0  0
136137  1  0  0  0  0
136138  1  0  0  0  0
138139  2  0  0  0  0
139140  1  0  0  0  0
140141  2  0  0  0  0
141142  1  0  0  0  0
142143  2  0  0  0  0
143144  1  0  0  0  0
144145  3  0  0  0  0
143146  1  0  0  0  0
146147  3  0  0  0  0
 11  2  1  0  0  0  0
 23 17  1  0  0  0  0
 61 24  1  0  0  0  0
104 62  1  0  0  0  0
125109  2  0  0  0  0
142127  1  0  0  0  0
 10  5  1  0  0  0  0
 22 18  1  0  0  0  0
 33 27  1  0  0  0  0
 40 34  1  0  0  0  0
 60 41  2  0  0  0  0
 71 64  1  0  0  0  0
103 72  2  0  0  0  0
114110  2  0  0  0  0
125116  1  0  0  0  0
141130  1  0  0  0  0
 23  7  1  0  0  0  0
 52 46  1  0  0  0  0
 59 53  1  0  0  0  0
102 74  2  0  0  0  0
139132  1  0  0  0  0
100 75  2  0  0  0  0
 80 76  2  0  0  0  0
 99 81  2  0  0  0  0
 97 82  2  0  0  0  0
 96 84  2  0  0  0  0
 93 86  1  0  0  0  0
  1148  1  0  0  0  0
  6149  1  0  0  0  0
  9150  1  0  0  0  0
 17151  1  0  0  0  0
 18152  1  0  0  0  0
 19153  1  0  0  0  0
 20154  1  0  0  0  0
 21155  1  0  0  0  0
 22156  1  0  0  0  0
 22157  1  0  0  0  0
 23158  1  0  0  0  0
 28159  1  0  0  0  0
 29160  1  0  0  0  0
 31161  1  0  0  0  0
 31162  1  0  0  0  0
 31163  1  0  0  0  0
 32164  1  0  0  0  0
 33165  1  0  0  0  0
 35166  1  0  0  0  0
 36167  1  0  0  0  0
 38168  1  0  0  0  0
 38169  1  0  0  0  0
 38170  1  0  0  0  0
 39171  1  0  0  0  0
 40172  1  0  0  0  0
 47173  1  0  0  0  0
 48174  1  0  0  0  0
 50175  1  0  0  0  0
 50176  1  0  0  0  0
 50177  1  0  0  0  0
 51178  1  0  0  0  0
 52179  1  0  0  0  0
 54180  1  0  0  0  0
 55181  1  0  0  0  0
 57182  1  0  0  0  0
 57183  1  0  0  0  0
 57184  1  0  0  0  0
 58185  1  0  0  0  0
 59186  1  0  0  0  0
 65187  1  0  0  0  0
 66188  1  0  0  0  0
 67189  1  0  0  0  0
 69190  1  0  0  0  0
 69191  1  0  0  0  0
 70192  1  0  0  0  0
 70193  1  0  0  0  0
 70194  1  0  0  0  0
 71195  1  0  0  0  0
 87196  1  0  0  0  0
 88197  1  0  0  0  0
 89198  1  0  0  0  0
 91199  1  0  0  0  0
 91200  1  0  0  0  0
 92201  1  0  0  0  0
 92202  1  0  0  0  0
 92203  1  0  0  0  0
 93204  1  0  0  0  0
105205  1  0  0  0  0
105206  1  0  0  0  0
106207  1  0  0  0  0
106208  1  0  0  0  0
106209  1  0  0  0  0
107210  1  0  0  0  0
107211  1  0  0  0  0
108212  1  0  0  0  0
108213  1  0  0  0  0
108214  1  0  0  0  0
117215  1  0  0  0  0
122216  1  0  0  0  0
122217  1  0  0  0  0
123218  1  0  0  0  0
123219  1  0  0  0  0
123220  1  0  0  0  0
126221  1  0  0  0  0
131222  1  0  0  0  0
133223  1  0  0  0  0
138224  1  0  0  0  0
140225  1  0  0  0  0
M  END
