
  xtb     02242208213D
 energy: -369.077424228113 gnorm: 0.000226573993 xtb: 6.4.1 (unknown)
223247  0     0  0            999 V2000
   -3.6977   -6.1099   -6.2103 C   0  0  0  0  0  0  0  0  0  0  0  0
   -4.8657   -6.6420   -5.7051 C   0  0  0  0  0  0  0  0  0  0  0  0
   -6.0433   -5.8905   -5.2737 C   0  0  0  0  0  0  0  0  0  0  0  0
   -6.1969   -4.6793   -5.2568 O   0  0  0  0  0  0  0  0  0  0  0  0
   -7.0523   -6.8915   -4.8799 C   0  0  0  0  0  0  0  0  0  0  0  0
   -8.3294   -6.6456   -4.3823 C   0  0  0  0  0  0  0  0  0  0  0  0
   -9.0407   -7.7829   -4.0823 C   0  0  0  0  0  0  0  0  0  0  0  0
   -8.5219   -9.0693   -4.2723 C   0  0  0  0  0  0  0  0  0  0  0  0
   -7.2653   -9.3251   -4.7693 C   0  0  0  0  0  0  0  0  0  0  0  0
   -6.5220   -8.1817   -5.0738 C   0  0  0  0  0  0  0  0  0  0  0  0
   -5.1516   -8.0487   -5.5729 C   0  0  0  0  0  0  0  0  0  0  0  0
   -4.2934   -9.0972   -5.8114 C   0  0  0  0  0  0  0  0  0  0  0  0
   -2.9288   -8.9846   -6.1371 C   0  0  0  0  0  0  0  0  0  0  0  0
   -1.8001   -8.9947   -6.3591 N   0  0  0  0  0  0  0  0  0  0  0  0
   -4.6499  -10.4568   -5.7217 C   0  0  0  0  0  0  0  0  0  0  0  0
   -4.8678  -11.5846   -5.6858 N   0  0  0  0  0  0  0  0  0  0  0  0
   -9.7690   -9.7373   -3.7476 C   0  0  0  0  0  0  0  0  0  0  0  0
   -9.6977  -10.2942   -2.3099 C   0  0  0  0  0  0  0  0  0  0  0  0
  -11.1470  -10.4395   -1.9058 C   0  0  0  0  0  0  0  0  0  0  0  0
  -11.6394   -9.2207   -1.7250 C   0  0  0  0  0  0  0  0  0  0  0  0
  -10.5310   -8.2313   -2.0038 C   0  0  0  0  0  0  0  0  0  0  0  0
   -9.3250   -9.0400   -1.5088 C   0  0  0  0  0  0  0  0  0  0  0  0
  -10.3478   -8.3019   -3.5348 C   0  0  0  0  0  0  0  0  0  0  0  0
   -3.2635   -4.7894   -6.2624 C   0  0  0  0  0  0  0  0  0  0  0  0
   -1.9604   -4.4231   -6.6956 C   0  0  0  0  0  0  0  0  0  0  0  0
   -1.0737   -5.2420   -7.3420 N   0  0  0  0  0  0  0  0  0  0  0  0
   -1.4791   -6.1727   -8.3134 C   0  0  0  0  0  0  0  0  0  0  0  0
   -2.5614   -5.9001   -9.1469 C   0  0  0  0  0  0  0  0  0  0  0  0
   -2.9614   -6.8283  -10.0872 C   0  0  0  0  0  0  0  0  0  0  0  0
   -2.2902   -8.0363  -10.2348 C   0  0  0  0  0  0  0  0  0  0  0  0
   -2.7324   -9.0561  -11.2385 C   0  0  0  0  0  0  0  0  0  0  0  0
   -1.1935   -8.2857   -9.4178 C   0  0  0  0  0  0  0  0  0  0  0  0
   -0.7891   -7.3736   -8.4644 C   0  0  0  0  0  0  0  0  0  0  0  0
    0.2980   -5.1108   -7.0456 C   0  0  0  0  0  0  0  0  0  0  0  0
    1.2506   -5.0946   -8.0578 C   0  0  0  0  0  0  0  0  0  0  0  0
    2.5924   -4.9994   -7.7421 C   0  0  0  0  0  0  0  0  0  0  0  0
    3.0147   -4.9149   -6.4217 C   0  0  0  0  0  0  0  0  0  0  0  0
    4.4684   -4.8470   -6.0670 C   0  0  0  0  0  0  0  0  0  0  0  0
    2.0522   -4.9153   -5.4175 C   0  0  0  0  0  0  0  0  0  0  0  0
    0.7103   -5.0151   -5.7187 C   0  0  0  0  0  0  0  0  0  0  0  0
   -1.6641   -3.1035   -6.3227 C   0  0  0  0  0  0  0  0  0  0  0  0
   -0.2584   -2.0938   -6.4753 S   0  0  0  0  0  0  0  0  0  0  0  0
   -1.0890   -0.7985   -5.6188 C   0  0  0  0  0  0  0  0  0  0  0  0
   -2.4127   -1.1136   -5.3288 C   0  0  0  0  0  0  0  0  0  0  0  0
   -3.3194   -0.2524   -4.7377 N   0  0  0  0  0  0  0  0  0  0  0  0
   -4.3285   -0.8154   -3.9337 C   0  0  0  0  0  0  0  0  0  0  0  0
   -5.6608   -0.4559   -4.1034 C   0  0  0  0  0  0  0  0  0  0  0  0
   -6.6425   -1.0743   -3.3552 C   0  0  0  0  0  0  0  0  0  0  0  0
   -6.3261   -2.0602   -2.4294 C   0  0  0  0  0  0  0  0  0  0  0  0
   -7.3977   -2.7816   -1.6720 C   0  0  0  0  0  0  0  0  0  0  0  0
   -4.9892   -2.3904   -2.2450 C   0  0  0  0  0  0  0  0  0  0  0  0
   -3.9976   -1.7756   -2.9819 C   0  0  0  0  0  0  0  0  0  0  0  0
   -3.3624    1.1037   -5.0767 C   0  0  0  0  0  0  0  0  0  0  0  0
   -3.7734    2.0431   -4.1334 C   0  0  0  0  0  0  0  0  0  0  0  0
   -3.7793    3.3882   -4.4469 C   0  0  0  0  0  0  0  0  0  0  0  0
   -3.3735    3.8369   -5.6967 C   0  0  0  0  0  0  0  0  0  0  0  0
   -3.3592    5.2956   -6.0384 C   0  0  0  0  0  0  0  0  0  0  0  0
   -2.9791    2.8920   -6.6384 C   0  0  0  0  0  0  0  0  0  0  0  0
   -2.9778    1.5455   -6.3411 C   0  0  0  0  0  0  0  0  0  0  0  0
   -2.7207   -2.4392   -5.7109 C   0  0  0  0  0  0  0  0  0  0  0  0
   -4.1346   -3.4204   -5.5650 S   0  0  0  0  0  0  0  0  0  0  0  0
   -0.3385    0.3016   -5.1212 C   0  0  0  0  0  0  0  0  0  0  0  0
    0.8825    0.7784   -5.5670 C   0  0  0  0  0  0  0  0  0  0  0  0
    1.4425    0.4848   -6.8850 C   0  0  0  0  0  0  0  0  0  0  0  0
    0.6278    0.5352   -8.0140 C   0  0  0  0  0  0  0  0  0  0  0  0
    1.1628    0.2948   -9.2639 C   0  0  0  0  0  0  0  0  0  0  0  0
    2.5088    0.0058   -9.4006 C   0  0  0  0  0  0  0  0  0  0  0  0
    3.3382   -0.0406   -8.2870 C   0  0  0  0  0  0  0  0  0  0  0  0
    4.7884   -0.3994   -8.4347 C   0  0  0  0  0  0  0  0  0  0  0  0
    4.9451   -1.9190   -8.5091 C   0  0  0  0  0  0  0  0  0  0  0  0
    2.7955    0.2003   -7.0346 C   0  0  0  0  0  0  0  0  0  0  0  0
    1.4778    1.6320   -4.6163 C   0  0  0  0  0  0  0  0  0  0  0  0
    3.0235    2.4487   -4.5432 S   0  0  0  0  0  0  0  0  0  0  0  0
    2.6213    3.0268   -2.9590 C   0  0  0  0  0  0  0  0  0  0  0  0
    3.2025    3.7381   -1.8964 C   0  0  0  0  0  0  0  0  0  0  0  0
    4.4717    4.3439   -1.7824 C   0  0  0  0  0  0  0  0  0  0  0  0
    4.8402    4.9513   -0.5375 C   0  0  0  0  0  0  0  0  0  0  0  0
    6.0521    5.4834   -0.5712 N   0  0  0  0  0  0  0  0  0  0  0  0
    6.6760    5.2392   -2.0459 S   0  0  0  0  0  0  0  0  0  0  0  0
    5.4250    4.4428   -2.6960 N   0  0  0  0  0  0  0  0  0  0  0  0
    3.9414    4.8767    0.5475 C   0  0  0  0  0  0  0  0  0  0  0  0
    4.1093    5.2309    1.8954 C   0  0  0  0  0  0  0  0  0  0  0  0
    5.3357    5.8507    2.9494 S   0  0  0  0  0  0  0  0  0  0  0  0
    4.2759    5.5722    4.3127 C   0  0  0  0  0  0  0  0  0  0  0  0
    4.4305    5.7440    5.7051 C   0  0  0  0  0  0  0  0  0  0  0  0
    5.6259    6.2674    6.3622 C   0  0  0  0  0  0  0  0  0  0  0  0
    6.8933    5.9180    5.9038 C   0  0  0  0  0  0  0  0  0  0  0  0
    8.0156    6.4122    6.5402 C   0  0  0  0  0  0  0  0  0  0  0  0
    7.8896    7.2544    7.6312 C   0  0  0  0  0  0  0  0  0  0  0  0
    6.6333    7.6197    8.0985 C   0  0  0  0  0  0  0  0  0  0  0  0
    6.4825    8.5711    9.2509 C   0  0  0  0  0  0  0  0  0  0  0  0
    6.3380   10.0075    8.7448 C   0  0  0  0  0  0  0  0  0  0  0  0
    5.5121    7.1265    7.4515 C   0  0  0  0  0  0  0  0  0  0  0  0
    3.2790    5.3862    6.3792 C   0  0  0  0  0  0  0  0  0  0  0  0
    1.9956    4.8421    5.3081 S   0  0  0  0  0  0  0  0  0  0  0  0
    3.0273    5.0699    3.9413 C   0  0  0  0  0  0  0  0  0  0  0  0
    2.9409    4.8580    2.5590 C   0  0  0  0  0  0  0  0  0  0  0  0
    2.0512    4.3111    1.6755 N   0  0  0  0  0  0  0  0  0  0  0  0
    2.6509    4.2829    0.4267 C   0  0  0  0  0  0  0  0  0  0  0  0
    2.2540    3.7547   -0.8324 C   0  0  0  0  0  0  0  0  0  0  0  0
    1.1112    3.0949   -1.2664 N   0  0  0  0  0  0  0  0  0  0  0  0
    1.3488    2.6451   -2.5370 C   0  0  0  0  0  0  0  0  0  0  0  0
    0.6974    1.8412   -3.4795 C   0  0  0  0  0  0  0  0  0  0  0  0
   -0.7892    0.9690   -3.5542 S   0  0  0  0  0  0  0  0  0  0  0  0
   -0.2604    3.1702   -0.8134 C   0  0  0  0  0  0  0  0  0  0  0  0
   -0.7730    4.6086   -0.8251 C   0  0  0  0  0  0  0  0  0  0  0  0
    0.8923    3.6224    2.1928 C   0  0  0  0  0  0  0  0  0  0  0  0
    1.1156    2.1121    2.2402 C   0  0  0  0  0  0  0  0  0  0  0  0
    3.0564    5.2433    7.7860 C   0  0  0  0  0  0  0  0  0  0  0  0
    1.9078    5.5748    8.4807 C   0  0  0  0  0  0  0  0  0  0  0  0
    0.8563    6.2620    7.9292 O   0  0  0  0  0  0  0  0  0  0  0  0
    1.1632    7.5436    7.3928 C   0  0  0  0  0  0  0  0  0  0  0  0
    1.5817    8.5429    8.4651 C   0  0  0  0  0  0  0  0  0  0  0  0
    1.9408    5.1518    9.8350 C   0  0  0  0  0  0  0  0  0  0  0  0
    1.0029    5.2897   10.7763 O   0  0  0  0  0  0  0  0  0  0  0  0
   -0.3236    5.6552   10.4096 C   0  0  0  0  0  0  0  0  0  0  0  0
   -1.2263    5.3024   11.5798 C   0  0  0  0  0  0  0  0  0  0  0  0
    3.1143    4.4624   10.1521 C   0  0  0  0  0  0  0  0  0  0  0  0
    4.2071    4.4253    8.7928 S   0  0  0  0  0  0  0  0  0  0  0  0
    3.4113    3.8997   11.4086 C   0  0  0  0  0  0  0  0  0  0  0  0
    4.2815    2.8858   11.6876 C   0  0  0  0  0  0  0  0  0  0  0  0
    4.8175    2.7052   13.0587 C   0  0  0  0  0  0  0  0  0  0  0  0
    4.4389    3.2549   14.0695 O   0  0  0  0  0  0  0  0  0  0  0  0
    5.9424    1.7570   12.9127 C   0  0  0  0  0  0  0  0  0  0  0  0
    6.8284    1.3213   13.8545 C   0  0  0  0  0  0  0  0  0  0  0  0
    7.8435    0.4121   13.4792 C   0  0  0  0  0  0  0  0  0  0  0  0
    8.7765   -0.0779   14.4156 C   0  0  0  0  0  0  0  0  0  0  0  0
    9.7559   -0.9559   14.0422 C   0  0  0  0  0  0  0  0  0  0  0  0
    9.8233   -1.3664   12.7042 C   0  0  0  0  0  0  0  0  0  0  0  0
   10.7950   -2.2310   12.3548 F   0  0  0  0  0  0  0  0  0  0  0  0
    8.9447   -0.9224   11.7559 C   0  0  0  0  0  0  0  0  0  0  0  0
    7.9270   -0.0209   12.1239 C   0  0  0  0  0  0  0  0  0  0  0  0
    6.9908    0.4420   11.1699 C   0  0  0  0  0  0  0  0  0  0  0  0
    6.0083    1.3094   11.5616 C   0  0  0  0  0  0  0  0  0  0  0  0
    4.8861    1.8924   10.8311 C   0  0  0  0  0  0  0  0  0  0  0  0
    4.3356    1.3657    9.6891 C   0  0  0  0  0  0  0  0  0  0  0  0
    3.0603    1.7184    9.2038 C   0  0  0  0  0  0  0  0  0  0  0  0
    1.9989    1.9208    8.8135 N   0  0  0  0  0  0  0  0  0  0  0  0
    4.9251    0.3313    8.9378 C   0  0  0  0  0  0  0  0  0  0  0  0
    5.3682   -0.4979    8.2781 N   0  0  0  0  0  0  0  0  0  0  0  0
   -2.9776   -6.8255   -6.5865 H   0  0  0  0  0  0  0  0  0  0  0  0
   -8.6902   -5.6364   -4.2570 H   0  0  0  0  0  0  0  0  0  0  0  0
   -6.8841  -10.3222   -4.9123 H   0  0  0  0  0  0  0  0  0  0  0  0
  -10.2774  -10.4070   -4.4387 H   0  0  0  0  0  0  0  0  0  0  0  0
   -9.0660  -11.1704   -2.1921 H   0  0  0  0  0  0  0  0  0  0  0  0
  -11.6630  -11.3800   -1.8498 H   0  0  0  0  0  0  0  0  0  0  0  0
  -12.6490   -8.9399   -1.4880 H   0  0  0  0  0  0  0  0  0  0  0  0
  -10.6594   -7.2282   -1.6055 H   0  0  0  0  0  0  0  0  0  0  0  0
   -8.3619   -8.6113   -1.7793 H   0  0  0  0  0  0  0  0  0  0  0  0
   -9.3582   -9.2130   -0.4342 H   0  0  0  0  0  0  0  0  0  0  0  0
  -11.2426   -8.0150   -4.0844 H   0  0  0  0  0  0  0  0  0  0  0  0
   -3.0902   -4.9633   -9.0495 H   0  0  0  0  0  0  0  0  0  0  0  0
   -3.8075   -6.6053  -10.7213 H   0  0  0  0  0  0  0  0  0  0  0  0
   -3.0928   -9.9498  -10.7295 H   0  0  0  0  0  0  0  0  0  0  0  0
   -1.9003   -9.3515  -11.8757 H   0  0  0  0  0  0  0  0  0  0  0  0
   -3.5326   -8.6685  -11.8640 H   0  0  0  0  0  0  0  0  0  0  0  0
   -0.6586   -9.2184   -9.5152 H   0  0  0  0  0  0  0  0  0  0  0  0
    0.0496   -7.5937   -7.8236 H   0  0  0  0  0  0  0  0  0  0  0  0
    0.9342   -5.1609   -9.0881 H   0  0  0  0  0  0  0  0  0  0  0  0
    3.3232   -4.9916   -8.5376 H   0  0  0  0  0  0  0  0  0  0  0  0
    5.0886   -4.8202   -6.9591 H   0  0  0  0  0  0  0  0  0  0  0  0
    4.6752   -3.9616   -5.4672 H   0  0  0  0  0  0  0  0  0  0  0  0
    4.7502   -5.7180   -5.4759 H   0  0  0  0  0  0  0  0  0  0  0  0
    2.3622   -4.8516   -4.3846 H   0  0  0  0  0  0  0  0  0  0  0  0
   -0.0275   -5.0366   -4.9298 H   0  0  0  0  0  0  0  0  0  0  0  0
   -5.9216    0.2931   -4.8368 H   0  0  0  0  0  0  0  0  0  0  0  0
   -7.6758   -0.7999   -3.5101 H   0  0  0  0  0  0  0  0  0  0  0  0
   -8.3215   -2.2084   -1.6581 H   0  0  0  0  0  0  0  0  0  0  0  0
   -7.0868   -2.9795   -0.6481 H   0  0  0  0  0  0  0  0  0  0  0  0
   -7.5968   -3.7397   -2.1531 H   0  0  0  0  0  0  0  0  0  0  0  0
   -4.7220   -3.1454   -1.5196 H   0  0  0  0  0  0  0  0  0  0  0  0
   -2.9605   -2.0414   -2.8351 H   0  0  0  0  0  0  0  0  0  0  0  0
   -4.0771    1.7086   -3.1525 H   0  0  0  0  0  0  0  0  0  0  0  0
   -4.0961    4.1024   -3.7001 H   0  0  0  0  0  0  0  0  0  0  0  0
   -2.3484    5.6173   -6.2881 H   0  0  0  0  0  0  0  0  0  0  0  0
   -3.7184    5.8948   -5.2055 H   0  0  0  0  0  0  0  0  0  0  0  0
   -3.9914    5.4899   -6.9041 H   0  0  0  0  0  0  0  0  0  0  0  0
   -2.6745    3.2190   -7.6224 H   0  0  0  0  0  0  0  0  0  0  0  0
   -2.6883    0.8241   -7.0911 H   0  0  0  0  0  0  0  0  0  0  0  0
   -0.4171    0.7848   -7.9052 H   0  0  0  0  0  0  0  0  0  0  0  0
    0.5288    0.3398  -10.1375 H   0  0  0  0  0  0  0  0  0  0  0  0
    2.9232   -0.1772  -10.3817 H   0  0  0  0  0  0  0  0  0  0  0  0
    5.1925    0.0519   -9.3434 H   0  0  0  0  0  0  0  0  0  0  0  0
    5.3530   -0.0170   -7.5827 H   0  0  0  0  0  0  0  0  0  0  0  0
    4.5179   -2.3801   -7.6224 H   0  0  0  0  0  0  0  0  0  0  0  0
    4.4235   -2.3107   -9.3796 H   0  0  0  0  0  0  0  0  0  0  0  0
    5.9957   -2.1922   -8.5792 H   0  0  0  0  0  0  0  0  0  0  0  0
    3.4286    0.1593   -6.1603 H   0  0  0  0  0  0  0  0  0  0  0  0
    6.9953    5.2482    5.0643 H   0  0  0  0  0  0  0  0  0  0  0  0
    8.9968    6.1353    6.1844 H   0  0  0  0  0  0  0  0  0  0  0  0
    8.7728    7.6329    8.1252 H   0  0  0  0  0  0  0  0  0  0  0  0
    5.6004    8.3041    9.8375 H   0  0  0  0  0  0  0  0  0  0  0  0
    7.3558    8.5040    9.9021 H   0  0  0  0  0  0  0  0  0  0  0  0
    7.2168   10.2956    8.1724 H   0  0  0  0  0  0  0  0  0  0  0  0
    6.2252   10.6960    9.5791 H   0  0  0  0  0  0  0  0  0  0  0  0
    5.4668   10.0966    8.0995 H   0  0  0  0  0  0  0  0  0  0  0  0
    4.5306    7.4253    7.7917 H   0  0  0  0  0  0  0  0  0  0  0  0
   -0.3759    2.7069    0.1654 H   0  0  0  0  0  0  0  0  0  0  0  0
   -0.8496    2.5767   -1.5170 H   0  0  0  0  0  0  0  0  0  0  0  0
   -0.1531    5.2527   -0.2048 H   0  0  0  0  0  0  0  0  0  0  0  0
   -1.7955    4.6416   -0.4586 H   0  0  0  0  0  0  0  0  0  0  0  0
   -0.7560    4.9985   -1.8404 H   0  0  0  0  0  0  0  0  0  0  0  0
    0.0059    3.8876    1.6189 H   0  0  0  0  0  0  0  0  0  0  0  0
    0.7380    3.9924    3.2096 H   0  0  0  0  0  0  0  0  0  0  0  0
    1.9297    1.8815    2.9232 H   0  0  0  0  0  0  0  0  0  0  0  0
    0.2180    1.6123    2.5941 H   0  0  0  0  0  0  0  0  0  0  0  0
    1.3763    1.7227    1.2586 H   0  0  0  0  0  0  0  0  0  0  0  0
    0.2364    7.8599    6.9099 H   0  0  0  0  0  0  0  0  0  0  0  0
    1.9487    7.4644    6.6310 H   0  0  0  0  0  0  0  0  0  0  0  0
    1.8021    9.5014    8.0035 H   0  0  0  0  0  0  0  0  0  0  0  0
    0.7861    8.6794    9.1938 H   0  0  0  0  0  0  0  0  0  0  0  0
    2.4711    8.1926    8.9867 H   0  0  0  0  0  0  0  0  0  0  0  0
   -0.6221    5.1129    9.5075 H   0  0  0  0  0  0  0  0  0  0  0  0
   -0.3669    6.7309   10.2026 H   0  0  0  0  0  0  0  0  0  0  0  0
   -1.1847    4.2340   11.7725 H   0  0  0  0  0  0  0  0  0  0  0  0
   -2.2499    5.5843   11.3510 H   0  0  0  0  0  0  0  0  0  0  0  0
   -0.9019    5.8285   12.4737 H   0  0  0  0  0  0  0  0  0  0  0  0
    2.9161    4.3579   12.2587 H   0  0  0  0  0  0  0  0  0  0  0  0
    6.7544    1.6616   14.8766 H   0  0  0  0  0  0  0  0  0  0  0  0
    8.7043    0.2528   15.4408 H   0  0  0  0  0  0  0  0  0  0  0  0
   10.4760   -1.3410   14.7466 H   0  0  0  0  0  0  0  0  0  0  0  0
    9.0232   -1.2632   10.7354 H   0  0  0  0  0  0  0  0  0  0  0  0
    7.0773    0.1031   10.1496 H   0  0  0  0  0  0  0  0  0  0  0  0
  1  2  2  0  0  0  0
  2  3  1  0  0  0  0
  3  4  2  0  0  0  0
  3  5  1  0  0  0  0
  5  6  2  0  0  0  0
  6  7  1  0  0  0  0
  7  8  2  0  0  0  0
  8  9  1  0  0  0  0
  9 10  2  0  0  0  0
 10 11  1  0  0  0  0
 11 12  2  0  0  0  0
 12 13  1  0  0  0  0
 13 14  3  0  0  0  0
 12 15  1  0  0  0  0
 15 16  3  0  0  0  0
  8 17  1  0  0  0  0
 17 18  1  0  0  0  0
 18 19  1  0  0  0  0
 19 20  2  0  0  0  0
 20 21  1  0  0  0  0
 21 22  1  0  0  0  0
 21 23  1  0  0  0  0
  1 24  1  0  0  0  0
 24 25  2  0  0  0  0
 25 26  1  0  0  0  0
 26 27  1  0  0  0  0
 27 28  2  0  0  0  0
 28 29  1  0  0  0  0
 29 30  2  0  0  0  0
 30 31  1  0  0  0  0
 30 32  1  0  0  0  0
 32 33  2  0  0  0  0
 26 34  1  0  0  0  0
 34 35  2  0  0  0  0
 35 36  1  0  0  0  0
 36 37  2  0  0  0  0
 37 38  1  0  0  0  0
 37 39  1  0  0  0  0
 39 40  2  0  0  0  0
 25 41  1  0  0  0  0
 41 42  1  0  0  0  0
 42 43  1  0  0  0  0
 43 44  2  0  0  0  0
 44 45  1  0  0  0  0
 45 46  1  0  0  0  0
 46 47  2  0  0  0  0
 47 48  1  0  0  0  0
 48 49  2  0  0  0  0
 49 50  1  0  0  0  0
 49 51  1  0  0  0  0
 51 52  2  0  0  0  0
 45 53  1  0  0  0  0
 53 54  2  0  0  0  0
 54 55  1  0  0  0  0
 55 56  2  0  0  0  0
 56 57  1  0  0  0  0
 56 58  1  0  0  0  0
 58 59  2  0  0  0  0
 44 60  1  0  0  0  0
 60 61  1  0  0  0  0
 43 62  1  0  0  0  0
 62 63  2  0  0  0  0
 63 64  1  0  0  0  0
 64 65  2  0  0  0  0
 65 66  1  0  0  0  0
 66 67  2  0  0  0  0
 67 68  1  0  0  0  0
 68 69  1  0  0  0  0
 69 70  1  0  0  0  0
 68 71  2  0  0  0  0
 63 72  1  0  0  0  0
 72 73  1  0  0  0  0
 73 74  1  0  0  0  0
 74 75  1  0  0  0  0
 75 76  1  0  0  0  0
 76 77  1  0  0  0  0
 77 78  2  0  0  0  0
 78 79  1  0  0  0  0
 79 80  1  0  0  0  0
 77 81  1  0  0  0  0
 81 82  1  0  0  0  0
 82 83  1  0  0  0  0
 83 84  1  0  0  0  0
 84 85  1  0  0  0  0
 85 86  1  0  0  0  0
 86 87  2  0  0  0  0
 87 88  1  0  0  0  0
 88 89  2  0  0  0  0
 89 90  1  0  0  0  0
 90 91  1  0  0  0  0
 91 92  1  0  0  0  0
 90 93  2  0  0  0  0
 85 94  2  0  0  0  0
 94 95  1  0  0  0  0
 95 96  1  0  0  0  0
 96 97  1  0  0  0  0
 97 98  1  0  0  0  0
 98 99  1  0  0  0  0
 99100  1  0  0  0  0
100101  1  0  0  0  0
101102  1  0  0  0  0
102103  1  0  0  0  0
103104  1  0  0  0  0
101105  1  0  0  0  0
105106  1  0  0  0  0
 98107  1  0  0  0  0
107108  1  0  0  0  0
 94109  1  0  0  0  0
109110  2  0  0  0  0
110111  1  0  0  0  0
111112  1  0  0  0  0
112113  1  0  0  0  0
110114  1  0  0  0  0
114115  1  0  0  0  0
115116  1  0  0  0  0
116117  1  0  0  0  0
114118  2  0  0  0  0
118119  1  0  0  0  0
118120  1  0  0  0  0
120121  2  0  0  0  0
121122  1  0  0  0  0
122123  2  0  0  0  0
122124  1  0  0  0  0
124125  2  0  0  0  0
125126  1  0  0  0  0
126127  2  0  0  0  0
127128  1  0  0  0  0
128129  2  0  0  0  0
129130  1  0  0  0  0
129131  1  0  0  0  0
131132  2  0  0  0  0
132133  1  0  0  0  0
133134  2  0  0  0  0
134135  1  0  0  0  0
135136  2  0  0  0  0
136137  1  0  0  0  0
137138  3  0  0  0  0
136139  1  0  0  0  0
139140  3  0  0  0  0
 11  2  1  0  0  0  0
 23 17  1  0  0  0  0
 61 24  1  0  0  0  0
104 62  1  0  0  0  0
119109  1  0  0  0  0
135121  1  0  0  0  0
 10  5  1  0  0  0  0
 22 18  1  0  0  0  0
 33 27  1  0  0  0  0
 40 34  1  0  0  0  0
 60 41  2  0  0  0  0
 71 64  1  0  0  0  0
103 72  2  0  0  0  0
134124  1  0  0  0  0
 23  7  1  0  0  0  0
 52 46  1  0  0  0  0
 59 53  1  0  0  0  0
102 74  2  0  0  0  0
132126  1  0  0  0  0
100 75  2  0  0  0  0
 80 76  2  0  0  0  0
 99 81  2  0  0  0  0
 97 82  2  0  0  0  0
 96 84  2  0  0  0  0
 93 86  1  0  0  0  0
  1141  1  0  0  0  0
  6142  1  0  0  0  0
  9143  1  0  0  0  0
 17144  1  0  0  0  0
 18145  1  0  0  0  0
 19146  1  0  0  0  0
 20147  1  0  0  0  0
 21148  1  0  0  0  0
 22149  1  0  0  0  0
 22150  1  0  0  0  0
 23151  1  0  0  0  0
 28152  1  0  0  0  0
 29153  1  0  0  0  0
 31154  1  0  0  0  0
 31155  1  0  0  0  0
 31156  1  0  0  0  0
 32157  1  0  0  0  0
 33158  1  0  0  0  0
 35159  1  0  0  0  0
 36160  1  0  0  0  0
 38161  1  0  0  0  0
 38162  1  0  0  0  0
 38163  1  0  0  0  0
 39164  1  0  0  0  0
 40165  1  0  0  0  0
 47166  1  0  0  0  0
 48167  1  0  0  0  0
 50168  1  0  0  0  0
 50169  1  0  0  0  0
 50170  1  0  0  0  0
 51171  1  0  0  0  0
 52172  1  0  0  0  0
 54173  1  0  0  0  0
 55174  1  0  0  0  0
 57175  1  0  0  0  0
 57176  1  0  0  0  0
 57177  1  0  0  0  0
 58178  1  0  0  0  0
 59179  1  0  0  0  0
 65180  1  0  0  0  0
 66181  1  0  0  0  0
 67182  1  0  0  0  0
 69183  1  0  0  0  0
 69184  1  0  0  0  0
 70185  1  0  0  0  0
 70186  1  0  0  0  0
 70187  1  0  0  0  0
 71188  1  0  0  0  0
 87189  1  0  0  0  0
 88190  1  0  0  0  0
 89191  1  0  0  0  0
 91192  1  0  0  0  0
 91193  1  0  0  0  0
 92194  1  0  0  0  0
 92195  1  0  0  0  0
 92196  1  0  0  0  0
 93197  1  0  0  0  0
105198  1  0  0  0  0
105199  1  0  0  0  0
106200  1  0  0  0  0
106201  1  0  0  0  0
106202  1  0  0  0  0
107203  1  0  0  0  0
107204  1  0  0  0  0
108205  1  0  0  0  0
108206  1  0  0  0  0
108207  1  0  0  0  0
112208  1  0  0  0  0
112209  1  0  0  0  0
113210  1  0  0  0  0
113211  1  0  0  0  0
113212  1  0  0  0  0
116213  1  0  0  0  0
116214  1  0  0  0  0
117215  1  0  0  0  0
117216  1  0  0  0  0
117217  1  0  0  0  0
120218  1  0  0  0  0
125219  1  0  0  0  0
127220  1  0  0  0  0
128221  1  0  0  0  0
131222  1  0  0  0  0
133223  1  0  0  0  0
M  END
