214

C          0.47300       -9.26380        1.23820
C          0.41180       -9.97910        2.41240
C         -0.70870      -10.00130        3.35390
O         -1.73980       -9.35160        3.30150
C         -0.36190      -10.99660        4.38500
C         -1.12410      -11.35910        5.49280
C         -0.53320      -12.31020        6.29020
C          0.72040      -12.86420        6.00290
C          1.48030      -12.51830        4.91020
C          0.90030      -11.54800        4.08840
C          1.41190      -10.91100        2.87410
C          2.64710      -11.14480        2.31730
C          3.56000      -12.11480        2.77590
N          4.35060      -12.89130        3.07960
C          3.20820      -10.43630        1.23810
N          3.76270       -9.88950        0.39140
C          0.70400      -13.74180        7.22990
C          1.56610      -13.27420        8.42160
C          0.99230      -14.02670        9.60030
C         -0.19580      -13.50300        9.87350
C         -0.44480      -12.38750        8.88410
C          0.98990      -11.87870        8.69390
C         -0.69470      -13.12380        7.55080
C         -0.38410       -8.29200        0.72530
C         -0.12920       -7.61940       -0.49850
N          0.80510       -7.98150       -1.43010
C          1.10480       -9.32440       -1.72530
C          0.11590      -10.30360       -1.67460
C          0.43010      -11.61770       -1.95830
C          1.72190      -11.98660       -2.31500
C          2.07260      -13.41380       -2.60200
C          2.69400      -10.99600       -2.39200
C          2.39870       -9.68020       -2.09830
C          1.40590       -6.96880       -2.20480
C          1.88270       -5.81500       -1.58940
C          2.45680       -4.81370       -2.34700
C          2.57810       -4.93920       -3.72530
C          3.17570       -3.83970       -4.54760
C          2.11190       -6.10240       -4.32800
C          1.53000       -7.10830       -3.58340
C         -0.96370       -6.49610       -0.62850
S         -1.11040       -5.21410       -1.78850
C         -2.39900       -4.48290       -0.84480
C         -2.71840       -5.22240        0.27160
N         -3.66540       -4.83600        1.23360
C         -5.00240       -5.20310        1.05130
C         -6.01520       -4.48290        1.67930
C         -7.33380       -4.86210        1.53050
C         -7.68470       -5.94710        0.73770
C         -9.11390       -6.36640        0.56960
C         -6.67170       -6.63950        0.08790
C         -5.34840       -6.28030        0.24000
C         -3.14500       -4.54130        2.50210
C         -1.96290       -3.81010        2.59700
C         -1.41630       -3.51990        3.83210
C         -2.02750       -3.94350        5.00350
C         -1.43530       -3.64300        6.34730
C         -3.20380       -4.67860        4.90070
C         -3.75650       -4.98170        3.67400
C         -1.88540       -6.35950        0.40110
S         -1.76180       -7.60170        1.59090
C         -2.78890       -3.12880       -1.14380
C         -4.00690       -2.54230       -1.39930
C         -5.24240       -3.25850       -1.70500
C         -5.20740       -4.50700       -2.32370
C         -6.38230       -5.11850       -2.71190
C         -7.60000       -4.49300       -2.50780
C         -7.65740       -3.24770       -1.89770
C         -8.96160       -2.52650       -1.70490
C         -9.40490       -2.53080       -0.24270
C         -6.47520       -2.65250       -1.48540
C         -3.87640       -1.12960       -1.47940
S         -5.01020        0.16330       -1.80570
C         -3.71910        1.31110       -1.69190
C         -3.49560        2.69170       -1.81390
C         -4.38070        3.72980       -2.17270
C         -3.86400        5.05770       -2.31910
N         -4.79100        5.92490       -2.69530
S         -6.19650        5.13500       -2.84850
N         -5.67520        3.65660       -2.44190
C         -2.50440        5.29440       -2.02560
C         -1.77950        6.49520       -2.00140
S         -2.01340        8.18080       -2.32150
C         -0.35910        8.47410       -1.83880
C          0.40810        9.64980       -1.74710
C         -0.12740       10.97930       -2.05170
C         -0.75660       11.21350       -3.26950
C         -1.27300       12.46600       -3.54400
C         -1.17100       13.48320       -2.61180
C         -0.55900       13.26130       -1.38400
C         -0.49060       14.34760       -0.35040
C         -1.72070       14.30040        0.55800
C         -0.04900       12.00150       -1.11140
C          1.69170        9.38120       -1.30380
S          1.93840        7.66940       -0.96860
C          0.31830        7.31520       -1.45030
C         -0.49640        6.18180       -1.55090
N         -0.40160        4.84000       -1.30290
C         -1.61980        4.25660       -1.60630
C         -2.10810        2.91860       -1.57250
N         -1.51440        1.68720       -1.35060
C         -2.48590        0.72810       -1.41290
C         -2.57500       -0.66680       -1.30370
S         -1.47390       -1.96520       -1.03330
C         -0.14310        1.26530       -1.19460
C          0.18840        0.94200        0.26320
C          0.80640        4.33980       -0.69120
C          1.92410        4.14350       -1.71640
C          2.81720       10.23900       -1.17560
C          4.02170        9.91260       -0.59630
C          4.99210       10.92450       -0.65860
S          6.47570       10.64810        0.21130
C          7.02510       12.26480        0.84510
C          5.94090       13.02770        1.57960
C          4.55250       12.05200       -1.35600
S          2.85770       11.85620       -1.80690
C          5.14600       13.25770       -1.75860
C          6.47160       13.50170       -2.02400
C          7.48400       12.46140       -2.27040
O          7.33510       11.25570       -2.19000
C          8.69100       13.18350       -2.73050
C          9.90540       12.66920       -3.11010
C         10.90080       13.55370       -3.55160
O         12.07360       12.98210       -3.90470
C         13.12750       13.79860       -4.36050
C         10.63460       14.92270       -3.60080
C          9.40390       15.43290       -3.21410
C          8.41900       14.56570       -2.77190
C          7.06360       14.79470       -2.29350
C          6.49240       16.01530       -2.03020
C          5.23670       16.19040       -1.41560
N          4.24230       16.39900       -0.87850
C          7.12150       17.24860       -2.28880
N          7.58350       18.28130       -2.48790
H          1.33480       -9.45980        0.61330
H         -2.08650      -10.90690        5.67460
H          2.44180      -12.95720        4.70280
H          0.77180      -14.81300        7.05000
H          2.63860      -13.35220        8.26560
H          1.46900      -14.87100       10.06290
H         -0.90990      -13.82260       10.60980
H         -1.20430      -11.65730        9.15090
H          1.39400      -11.43690        9.60340
H          1.10720      -11.18100        7.86690
H         -1.55980      -13.78360        7.58450
H         -0.89480      -10.03290       -1.40610
H         -0.34600      -12.36780       -1.90810
H          2.74070      -13.79640       -1.83050
H          2.58870      -13.49670       -3.55690
H          1.18290      -14.03800       -2.62830
H          3.70350      -11.26120       -2.66760
H          3.16880       -8.92660       -2.14240
H          1.80610       -5.71310       -0.51660
H          2.82160       -3.92260       -1.85740
H          2.38730       -3.18120       -4.91390
H          3.86640       -3.24320       -3.95650
H          3.70320       -4.24220       -5.40920
H          2.19900       -6.21870       -5.39840
H          1.16440       -8.00380       -4.06360
H         -5.75790       -3.63280        2.29380
H         -8.10270       -4.30390        2.04500
H         -9.21240       -7.44470        0.68290
H         -9.75360       -5.87980        1.30210
H         -9.46730       -6.10440       -0.42810
H         -6.92290       -7.48550       -0.53570
H         -4.57620       -6.84810       -0.25750
H         -1.47090       -3.46770        1.69770
H         -0.49830       -2.95110        3.88270
H         -0.62160       -2.92670        6.26320
H         -2.19110       -3.23800        7.01830
H         -1.04470       -4.55540        6.79850
H         -3.68770       -5.03250        5.79980
H         -4.65580       -5.57550        3.61730
H         -4.25820       -4.97920       -2.52790
H         -6.34770       -6.08280       -3.19720
H         -8.51080       -4.96890       -2.84260
H         -9.73420       -2.99490       -2.31800
H         -8.84590       -1.49210       -2.03780
H         -8.64030       -2.08240        0.38670
H        -10.32710       -1.96570       -0.12650
H         -9.57420       -3.54880        0.09550
H         -6.51800       -1.69230       -0.99470
H         -0.82540       10.42050       -3.99890
H         -1.75630       12.64940       -4.49220
H         -1.57130       14.46110       -2.83680
H         -0.44160       15.32110       -0.84140
H          0.41050       14.22610        0.25380
H         -1.66990       15.08700        1.30710
H         -1.78100       13.33990        1.06530
H         -2.62840       14.43460       -0.02650
H          0.40960       11.80610       -0.15200
H          0.52300        2.01740       -1.60620
H         -0.01680        0.35310       -1.78840
H         -0.37500        0.07150        0.58830
H         -0.06560        1.76890        0.92360
H          1.24800        0.72260        0.36170
H          0.59040        3.42670       -0.14490
H          1.13370        5.09000        0.03710
H          2.23570        5.10490       -2.11580
H          2.78200        3.67480       -1.24230
H          1.59750        3.52520       -2.55030
H          4.20740        8.96840       -0.11480
H          7.83460       11.99070        1.52270
H          7.44220       12.84990        0.02310
H          5.50490       12.41160        2.36250
H          6.37030       13.91790        2.03480
H          5.15090       13.34320        0.90170
H          4.44010       14.05420       -1.96450
H         10.10400       11.61010       -3.07340
H         12.85230       14.33630       -5.27290
H         13.95060       13.11990       -4.57720
H         13.44060       14.51440       -3.59430
H         11.38790       15.61270       -3.94590
H          9.23240       16.49570       -3.27190
