
  xtb     02092207493D
 energy: -392.520021481490 gnorm: 0.000586927332 xtb: 6.4.1 (unknown)
240266  0     0  0            999 V2000
    3.2727   -7.0373    8.4508 C   0  0  0  0  0  0  0  0  0  0  0  0
    4.6335   -7.2142    8.3382 C   0  0  0  0  0  0  0  0  0  0  0  0
    5.5086   -6.6200    7.3258 C   0  0  0  0  0  0  0  0  0  0  0  0
    5.1887   -5.9714    6.3432 O   0  0  0  0  0  0  0  0  0  0  0  0
    6.8893   -6.9380    7.7355 C   0  0  0  0  0  0  0  0  0  0  0  0
    8.0643   -6.5633    7.0887 C   0  0  0  0  0  0  0  0  0  0  0  0
    9.2095   -6.9975    7.7126 C   0  0  0  0  0  0  0  0  0  0  0  0
    9.1863   -7.7464    8.8956 C   0  0  0  0  0  0  0  0  0  0  0  0
    8.0333   -8.1248    9.5425 C   0  0  0  0  0  0  0  0  0  0  0  0
    6.8566   -7.6967    8.9218 C   0  0  0  0  0  0  0  0  0  0  0  0
    5.4579   -7.9157    9.2931 C   0  0  0  0  0  0  0  0  0  0  0  0
    5.0313   -8.6850   10.3496 C   0  0  0  0  0  0  0  0  0  0  0  0
    3.6932   -9.0145   10.6366 C   0  0  0  0  0  0  0  0  0  0  0  0
    2.6362   -9.3626   10.9271 N   0  0  0  0  0  0  0  0  0  0  0  0
    5.8846   -9.2940   11.2905 C   0  0  0  0  0  0  0  0  0  0  0  0
    6.5136   -9.8062   12.1045 N   0  0  0  0  0  0  0  0  0  0  0  0
   10.6905   -7.8415    8.9604 C   0  0  0  0  0  0  0  0  0  0  0  0
   11.3155   -9.1849    8.5291 C   0  0  0  0  0  0  0  0  0  0  0  0
   12.7569   -8.8356    8.2371 C   0  0  0  0  0  0  0  0  0  0  0  0
   12.7809   -8.1262    7.1160 C   0  0  0  0  0  0  0  0  0  0  0  0
   11.3559   -7.9847    6.6311 C   0  0  0  0  0  0  0  0  0  0  0  0
   10.7837   -9.3296    7.0973 C   0  0  0  0  0  0  0  0  0  0  0  0
   10.7170   -7.0069    7.6398 C   0  0  0  0  0  0  0  0  0  0  0  0
    2.3732   -6.3751    7.6172 C   0  0  0  0  0  0  0  0  0  0  0  0
    0.9965   -6.2220    7.9231 C   0  0  0  0  0  0  0  0  0  0  0  0
    0.4072   -6.5274    9.1221 N   0  0  0  0  0  0  0  0  0  0  0  0
   -0.9249   -6.9808    9.1338 C   0  0  0  0  0  0  0  0  0  0  0  0
   -1.3558   -7.9141    8.1956 C   0  0  0  0  0  0  0  0  0  0  0  0
   -2.6533   -8.3868    8.2317 C   0  0  0  0  0  0  0  0  0  0  0  0
   -3.5458   -7.9532    9.2030 C   0  0  0  0  0  0  0  0  0  0  0  0
   -4.9382   -8.5000    9.2850 C   0  0  0  0  0  0  0  0  0  0  0  0
   -3.1107   -7.0077   10.1264 C   0  0  0  0  0  0  0  0  0  0  0  0
   -1.8209   -6.5207   10.0955 C   0  0  0  0  0  0  0  0  0  0  0  0
    1.0565   -6.3025   10.3510 C   0  0  0  0  0  0  0  0  0  0  0  0
    1.8879   -5.1979   10.5200 C   0  0  0  0  0  0  0  0  0  0  0  0
    2.5329   -4.9957   11.7236 C   0  0  0  0  0  0  0  0  0  0  0  0
    2.3538   -5.8692   12.7899 C   0  0  0  0  0  0  0  0  0  0  0  0
    3.0704   -5.6676   14.0893 C   0  0  0  0  0  0  0  0  0  0  0  0
    1.4962   -6.9501   12.6209 C   0  0  0  0  0  0  0  0  0  0  0  0
    0.8560   -7.1741   11.4187 C   0  0  0  0  0  0  0  0  0  0  0  0
    0.3003   -5.6752    6.8319 C   0  0  0  0  0  0  0  0  0  0  0  0
   -1.3579   -5.2588    6.5476 S   0  0  0  0  0  0  0  0  0  0  0  0
   -0.9421   -4.6181    4.9667 C   0  0  0  0  0  0  0  0  0  0  0  0
    0.4047   -4.7756    4.6647 C   0  0  0  0  0  0  0  0  0  0  0  0
    1.0096   -4.4524    3.4624 N   0  0  0  0  0  0  0  0  0  0  0  0
    0.3507   -4.5844    2.2352 C   0  0  0  0  0  0  0  0  0  0  0  0
    0.5841   -3.6561    1.2207 C   0  0  0  0  0  0  0  0  0  0  0  0
   -0.1263   -3.7197    0.0393 C   0  0  0  0  0  0  0  0  0  0  0  0
   -1.0763   -4.7106   -0.1753 C   0  0  0  0  0  0  0  0  0  0  0  0
   -1.8965   -4.7464   -1.4280 C   0  0  0  0  0  0  0  0  0  0  0  0
   -1.2630   -5.6640    0.8184 C   0  0  0  0  0  0  0  0  0  0  0  0
   -0.5672   -5.6084    2.0095 C   0  0  0  0  0  0  0  0  0  0  0  0
    2.3544   -4.0381    3.4923 C   0  0  0  0  0  0  0  0  0  0  0  0
    2.7854   -3.1303    4.4555 C   0  0  0  0  0  0  0  0  0  0  0  0
    4.1167   -2.7736    4.5233 C   0  0  0  0  0  0  0  0  0  0  0  0
    5.0448   -3.2999    3.6335 C   0  0  0  0  0  0  0  0  0  0  0  0
    6.4953   -2.9502    3.7566 C   0  0  0  0  0  0  0  0  0  0  0  0
    4.5986   -4.1783    2.6544 C   0  0  0  0  0  0  0  0  0  0  0  0
    3.2708   -4.5488    2.5796 C   0  0  0  0  0  0  0  0  0  0  0  0
    1.1065   -5.3688    5.7438 C   0  0  0  0  0  0  0  0  0  0  0  0
    2.7701   -5.7384    6.0188 S   0  0  0  0  0  0  0  0  0  0  0  0
   -1.9126   -4.0189    4.0975 C   0  0  0  0  0  0  0  0  0  0  0  0
   -3.0784   -4.5472    3.5876 C   0  0  0  0  0  0  0  0  0  0  0  0
   -3.7586   -5.7554    4.0601 C   0  0  0  0  0  0  0  0  0  0  0  0
   -4.1506   -5.8715    5.3895 C   0  0  0  0  0  0  0  0  0  0  0  0
   -4.8362   -6.9953    5.8091 C   0  0  0  0  0  0  0  0  0  0  0  0
   -5.1421   -8.0026    4.9113 C   0  0  0  0  0  0  0  0  0  0  0  0
   -4.7741   -7.8944    3.5760 C   0  0  0  0  0  0  0  0  0  0  0  0
   -5.1667   -8.9423    2.5750 C   0  0  0  0  0  0  0  0  0  0  0  0
   -6.4499   -8.5263    1.8528 C   0  0  0  0  0  0  0  0  0  0  0  0
   -4.0860   -6.7642    3.1622 C   0  0  0  0  0  0  0  0  0  0  0  0
   -3.5517   -3.7821    2.5002 C   0  0  0  0  0  0  0  0  0  0  0  0
   -4.8615   -4.0294    1.3727 S   0  0  0  0  0  0  0  0  0  0  0  0
   -4.3750   -2.5950    0.5329 C   0  0  0  0  0  0  0  0  0  0  0  0
   -4.7687   -1.8169   -0.5687 C   0  0  0  0  0  0  0  0  0  0  0  0
   -5.8779   -1.9415   -1.4318 C   0  0  0  0  0  0  0  0  0  0  0  0
   -6.1157   -0.9162   -2.4052 C   0  0  0  0  0  0  0  0  0  0  0  0
   -7.2164   -1.1307   -3.1092 N   0  0  0  0  0  0  0  0  0  0  0  0
   -7.8922   -2.5092   -2.5940 S   0  0  0  0  0  0  0  0  0  0  0  0
   -6.8071   -2.8849   -1.4527 N   0  0  0  0  0  0  0  0  0  0  0  0
   -5.1718    0.1237   -2.5398 C   0  0  0  0  0  0  0  0  0  0  0  0
   -5.0912    1.1712   -3.4698 C   0  0  0  0  0  0  0  0  0  0  0  0
   -5.9997    1.8111   -4.7955 S   0  0  0  0  0  0  0  0  0  0  0  0
   -4.7256    2.9734   -5.0656 C   0  0  0  0  0  0  0  0  0  0  0  0
   -4.5844    4.0090   -6.0070 C   0  0  0  0  0  0  0  0  0  0  0  0
   -5.6092    4.3100   -7.0123 C   0  0  0  0  0  0  0  0  0  0  0  0
   -6.0440    3.3103   -7.8753 C   0  0  0  0  0  0  0  0  0  0  0  0
   -7.0088    3.5951   -8.8232 C   0  0  0  0  0  0  0  0  0  0  0  0
   -7.5429    4.8680   -8.9146 C   0  0  0  0  0  0  0  0  0  0  0  0
   -7.1360    5.8720   -8.0446 C   0  0  0  0  0  0  0  0  0  0  0  0
   -7.6725    7.2674   -8.1769 C   0  0  0  0  0  0  0  0  0  0  0  0
   -6.7812    8.0779   -9.1201 C   0  0  0  0  0  0  0  0  0  0  0  0
   -6.1738    5.5787   -7.0907 C   0  0  0  0  0  0  0  0  0  0  0  0
   -3.3914    4.6869   -5.8405 C   0  0  0  0  0  0  0  0  0  0  0  0
   -2.4513    4.0506   -4.4907 S   0  0  0  0  0  0  0  0  0  0  0  0
   -3.6645    2.8607   -4.1641 C   0  0  0  0  0  0  0  0  0  0  0  0
   -3.8796    1.8283   -3.2419 C   0  0  0  0  0  0  0  0  0  0  0  0
   -3.2198    1.2347   -2.1980 N   0  0  0  0  0  0  0  0  0  0  0  0
   -4.0038    0.1960   -1.7277 C   0  0  0  0  0  0  0  0  0  0  0  0
   -3.8581   -0.7258   -0.6558 C   0  0  0  0  0  0  0  0  0  0  0  0
   -2.9435   -0.8394    0.3846 N   0  0  0  0  0  0  0  0  0  0  0  0
   -3.2699   -1.9623    1.1001 C   0  0  0  0  0  0  0  0  0  0  0  0
   -2.7947   -2.6455    2.2268 C   0  0  0  0  0  0  0  0  0  0  0  0
   -1.4805   -2.4902    3.3331 S   0  0  0  0  0  0  0  0  0  0  0  0
   -2.1840    0.1814    1.0726 C   0  0  0  0  0  0  0  0  0  0  0  0
   -3.1065    1.0917    1.8819 C   0  0  0  0  0  0  0  0  0  0  0  0
   -1.8351    1.5635   -1.9593 C   0  0  0  0  0  0  0  0  0  0  0  0
   -1.6896    2.8415   -1.1346 C   0  0  0  0  0  0  0  0  0  0  0  0
   -2.8216    5.7208   -6.6365 C   0  0  0  0  0  0  0  0  0  0  0  0
   -1.7077    6.4624   -6.3485 C   0  0  0  0  0  0  0  0  0  0  0  0
   -1.3497    7.3823   -7.3634 C   0  0  0  0  0  0  0  0  0  0  0  0
   -0.2914    8.3103   -7.3789 C   0  0  0  0  0  0  0  0  0  0  0  0
    0.6927    8.3814   -6.2908 C   0  0  0  0  0  0  0  0  0  0  0  0
    1.0487    9.6052   -5.7278 C   0  0  0  0  0  0  0  0  0  0  0  0
    2.0024    9.6632   -4.7281 C   0  0  0  0  0  0  0  0  0  0  0  0
    2.5897    8.5047   -4.2525 C   0  0  0  0  0  0  0  0  0  0  0  0
    2.2213    7.2813   -4.7940 C   0  0  0  0  0  0  0  0  0  0  0  0
    2.9425    5.7923   -4.1383 S   0  0  0  0  0  0  0  0  0  0  0  0
    1.4131    4.8626   -3.7507 C   0  0  0  0  0  0  0  0  0  0  0  0
    0.5473    5.6087   -2.7552 C   0  0  0  0  0  0  0  0  0  0  0  0
    1.2994    7.2198   -5.8252 C   0  0  0  0  0  0  0  0  0  0  0  0
   -0.2105    9.1426   -8.4847 C   0  0  0  0  0  0  0  0  0  0  0  0
   -1.1329    9.1002   -9.5620 C   0  0  0  0  0  0  0  0  0  0  0  0
   -2.1981    8.1826   -9.5387 C   0  0  0  0  0  0  0  0  0  0  0  0
   -3.2243    8.1717  -10.5889 C   0  0  0  0  0  0  0  0  0  0  0  0
   -3.5686    7.0017  -11.2585 C   0  0  0  0  0  0  0  0  0  0  0  0
   -4.5507    7.0197  -12.2329 C   0  0  0  0  0  0  0  0  0  0  0  0
   -5.2064    8.1972  -12.5460 C   0  0  0  0  0  0  0  0  0  0  0  0
   -4.8699    9.3627  -11.8748 C   0  0  0  0  0  0  0  0  0  0  0  0
   -5.6967   10.8982  -12.2544 S   0  0  0  0  0  0  0  0  0  0  0  0
   -4.9176   11.2281  -13.8802 C   0  0  0  0  0  0  0  0  0  0  0  0
   -3.4200   11.4128  -13.7550 C   0  0  0  0  0  0  0  0  0  0  0  0
   -3.8880    9.3544  -10.9015 C   0  0  0  0  0  0  0  0  0  0  0  0
   -2.2576    7.3291   -8.4528 C   0  0  0  0  0  0  0  0  0  0  0  0
   -3.4914    6.1226   -8.2060 S   0  0  0  0  0  0  0  0  0  0  0  0
   -0.7968   10.0096  -10.5890 C   0  0  0  0  0  0  0  0  0  0  0  0
    0.3312   10.7387  -10.3281 C   0  0  0  0  0  0  0  0  0  0  0  0
    1.0362   10.3297   -8.7725 S   0  0  0  0  0  0  0  0  0  0  0  0
    0.9377   11.7244  -11.1483 C   0  0  0  0  0  0  0  0  0  0  0  0
    2.0541   12.4907  -10.8564 C   0  0  0  0  0  0  0  0  0  0  0  0
    2.3960   13.3699  -11.8713 C   0  0  0  0  0  0  0  0  0  0  0  0
    1.5533   13.2933  -12.9730 C   0  0  0  0  0  0  0  0  0  0  0  0
    1.6744   14.0723  -14.1534 C   0  0  0  0  0  0  0  0  0  0  0  0
    0.9086   13.9870  -15.2980 C   0  0  0  0  0  0  0  0  0  0  0  0
   -0.1340   13.0676  -15.4993 C   0  0  0  0  0  0  0  0  0  0  0  0
   -0.9826   12.3278  -15.7277 N   0  0  0  0  0  0  0  0  0  0  0  0
    1.1484   14.8462  -16.3915 C   0  0  0  0  0  0  0  0  0  0  0  0
    1.3258   15.5368  -17.2895 N   0  0  0  0  0  0  0  0  0  0  0  0
    2.7085   15.0465  -14.1499 C   0  0  0  0  0  0  0  0  0  0  0  0
    3.5414   15.8324  -14.1440 N   0  0  0  0  0  0  0  0  0  0  0  0
    0.3046   12.0996  -12.7195 S   0  0  0  0  0  0  0  0  0  0  0  0
    2.8158   -7.4716    9.3306 H   0  0  0  0  0  0  0  0  0  0  0  0
    8.0351   -5.9843    6.1787 H   0  0  0  0  0  0  0  0  0  0  0  0
    8.0350   -8.6989   10.4538 H   0  0  0  0  0  0  0  0  0  0  0  0
   11.1556   -7.4224    9.8508 H   0  0  0  0  0  0  0  0  0  0  0  0
   11.1401  -10.0092    9.2148 H   0  0  0  0  0  0  0  0  0  0  0  0
   13.5775   -9.0840    8.8844 H   0  0  0  0  0  0  0  0  0  0  0  0
   13.6256   -7.6637    6.6399 H   0  0  0  0  0  0  0  0  0  0  0  0
   11.2192   -7.7168    5.5867 H   0  0  0  0  0  0  0  0  0  0  0  0
   11.2337  -10.1720    6.5744 H   0  0  0  0  0  0  0  0  0  0  0  0
    9.6995   -9.3970    7.0316 H   0  0  0  0  0  0  0  0  0  0  0  0
   11.1996   -6.0310    7.6509 H   0  0  0  0  0  0  0  0  0  0  0  0
   -0.6647   -8.2806    7.4508 H   0  0  0  0  0  0  0  0  0  0  0  0
   -2.9698   -9.1145    7.4990 H   0  0  0  0  0  0  0  0  0  0  0  0
   -5.0513   -9.0963   10.1904 H   0  0  0  0  0  0  0  0  0  0  0  0
   -5.6684   -7.6931    9.3311 H   0  0  0  0  0  0  0  0  0  0  0  0
   -5.1612   -9.1319    8.4293 H   0  0  0  0  0  0  0  0  0  0  0  0
   -3.7953   -6.6487   10.8813 H   0  0  0  0  0  0  0  0  0  0  0  0
   -1.4974   -5.7853   10.8171 H   0  0  0  0  0  0  0  0  0  0  0  0
    2.0318   -4.5058    9.7031 H   0  0  0  0  0  0  0  0  0  0  0  0
    3.1811   -4.1386   11.8373 H   0  0  0  0  0  0  0  0  0  0  0  0
    3.8130   -6.4528   14.2316 H   0  0  0  0  0  0  0  0  0  0  0  0
    3.5773   -4.7061   14.1117 H   0  0  0  0  0  0  0  0  0  0  0  0
    2.3728   -5.7173   14.9235 H   0  0  0  0  0  0  0  0  0  0  0  0
    1.3426   -7.6400   13.4367 H   0  0  0  0  0  0  0  0  0  0  0  0
    0.2119   -8.0303   11.2966 H   0  0  0  0  0  0  0  0  0  0  0  0
    1.3067   -2.8696    1.3822 H   0  0  0  0  0  0  0  0  0  0  0  0
    0.0510   -2.9764   -0.7251 H   0  0  0  0  0  0  0  0  0  0  0  0
   -1.4535   -4.1254   -2.2029 H   0  0  0  0  0  0  0  0  0  0  0  0
   -2.9025   -4.3744   -1.2278 H   0  0  0  0  0  0  0  0  0  0  0  0
   -1.9880   -5.7644   -1.8015 H   0  0  0  0  0  0  0  0  0  0  0  0
   -1.9692   -6.4649    0.6544 H   0  0  0  0  0  0  0  0  0  0  0  0
   -0.7342   -6.3561    2.7712 H   0  0  0  0  0  0  0  0  0  0  0  0
    2.0708   -2.7148    5.1517 H   0  0  0  0  0  0  0  0  0  0  0  0
    4.4429   -2.0792    5.2840 H   0  0  0  0  0  0  0  0  0  0  0  0
    6.6238   -1.8957    3.9932 H   0  0  0  0  0  0  0  0  0  0  0  0
    6.9377   -3.5315    4.5656 H   0  0  0  0  0  0  0  0  0  0  0  0
    7.0329   -3.1758    2.8389 H   0  0  0  0  0  0  0  0  0  0  0  0
    5.3037   -4.5951    1.9498 H   0  0  0  0  0  0  0  0  0  0  0  0
    2.9378   -5.2473    1.8257 H   0  0  0  0  0  0  0  0  0  0  0  0
   -3.9466   -5.0697    6.0830 H   0  0  0  0  0  0  0  0  0  0  0  0
   -5.1397   -7.0763    6.8407 H   0  0  0  0  0  0  0  0  0  0  0  0
   -5.6831   -8.8768    5.2452 H   0  0  0  0  0  0  0  0  0  0  0  0
   -4.3681   -9.0722    1.8414 H   0  0  0  0  0  0  0  0  0  0  0  0
   -5.3272   -9.8979    3.0780 H   0  0  0  0  0  0  0  0  0  0  0  0
   -6.7331   -9.2757    1.1174 H   0  0  0  0  0  0  0  0  0  0  0  0
   -6.3076   -7.5749    1.3452 H   0  0  0  0  0  0  0  0  0  0  0  0
   -7.2641   -8.4134    2.5652 H   0  0  0  0  0  0  0  0  0  0  0  0
   -3.7957   -6.6644    2.1270 H   0  0  0  0  0  0  0  0  0  0  0  0
   -5.6158    2.3213   -7.8091 H   0  0  0  0  0  0  0  0  0  0  0  0
   -7.3428    2.8197   -9.4965 H   0  0  0  0  0  0  0  0  0  0  0  0
   -8.2895    5.0859   -9.6644 H   0  0  0  0  0  0  0  0  0  0  0  0
   -8.6885    7.2405   -8.5746 H   0  0  0  0  0  0  0  0  0  0  0  0
   -7.6991    7.7518   -7.1990 H   0  0  0  0  0  0  0  0  0  0  0  0
   -6.7394    7.6074  -10.0997 H   0  0  0  0  0  0  0  0  0  0  0  0
   -5.7667    8.1318   -8.7314 H   0  0  0  0  0  0  0  0  0  0  0  0
   -7.1619    9.0893   -9.2387 H   0  0  0  0  0  0  0  0  0  0  0  0
   -5.8579    6.3444   -6.3955 H   0  0  0  0  0  0  0  0  0  0  0  0
   -1.5874    0.7668    0.3815 H   0  0  0  0  0  0  0  0  0  0  0  0
   -1.4991   -0.3412    1.7459 H   0  0  0  0  0  0  0  0  0  0  0  0
   -3.6520    0.5104    2.6215 H   0  0  0  0  0  0  0  0  0  0  0  0
   -2.5241    1.8500    2.3982 H   0  0  0  0  0  0  0  0  0  0  0  0
   -3.8294    1.5798    1.2307 H   0  0  0  0  0  0  0  0  0  0  0  0
   -1.3391    0.7093   -1.4967 H   0  0  0  0  0  0  0  0  0  0  0  0
   -1.3639    1.7254   -2.9358 H   0  0  0  0  0  0  0  0  0  0  0  0
   -2.0972    3.6814   -1.6916 H   0  0  0  0  0  0  0  0  0  0  0  0
   -2.2268    2.7735   -0.1933 H   0  0  0  0  0  0  0  0  0  0  0  0
   -0.6400    3.0349   -0.9305 H   0  0  0  0  0  0  0  0  0  0  0  0
   -1.1809    6.3666   -5.4157 H   0  0  0  0  0  0  0  0  0  0  0  0
    0.5645   10.5096   -6.0634 H   0  0  0  0  0  0  0  0  0  0  0  0
    2.2778   10.6170   -4.3039 H   0  0  0  0  0  0  0  0  0  0  0  0
    3.3232    8.5366   -3.4620 H   0  0  0  0  0  0  0  0  0  0  0  0
    1.7662    3.9178   -3.3399 H   0  0  0  0  0  0  0  0  0  0  0  0
    0.8776    4.6654   -4.6788 H   0  0  0  0  0  0  0  0  0  0  0  0
    0.2740    6.5887   -3.1433 H   0  0  0  0  0  0  0  0  0  0  0  0
    1.0805    5.7497   -1.8180 H   0  0  0  0  0  0  0  0  0  0  0  0
   -0.3642    5.0475   -2.5655 H   0  0  0  0  0  0  0  0  0  0  0  0
    1.0631    6.2731   -6.2873 H   0  0  0  0  0  0  0  0  0  0  0  0
   -3.0532    6.0817  -11.0273 H   0  0  0  0  0  0  0  0  0  0  0  0
   -4.8096    6.1076  -12.7496 H   0  0  0  0  0  0  0  0  0  0  0  0
   -5.9795    8.2146  -13.2992 H   0  0  0  0  0  0  0  0  0  0  0  0
   -5.4028   12.1367  -14.2333 H   0  0  0  0  0  0  0  0  0  0  0  0
   -5.1677   10.4023  -14.5458 H   0  0  0  0  0  0  0  0  0  0  0  0
   -2.9920   11.6963  -14.7133 H   0  0  0  0  0  0  0  0  0  0  0  0
   -2.9475   10.4865  -13.4314 H   0  0  0  0  0  0  0  0  0  0  0  0
   -3.1928   12.1922  -13.0302 H   0  0  0  0  0  0  0  0  0  0  0  0
   -3.6545   10.2665  -10.3730 H   0  0  0  0  0  0  0  0  0  0  0  0
   -1.3568   10.1135  -11.5016 H   0  0  0  0  0  0  0  0  0  0  0  0
    2.5874   12.3985   -9.9272 H   0  0  0  0  0  0  0  0  0  0  0  0
    3.2310   14.0471  -11.8289 H   0  0  0  0  0  0  0  0  0  0  0  0
  1  2  2  0  0  0  0
  2  3  1  0  0  0  0
  3  4  2  0  0  0  0
  3  5  1  0  0  0  0
  5  6  2  0  0  0  0
  6  7  1  0  0  0  0
  7  8  2  0  0  0  0
  8  9  1  0  0  0  0
  9 10  2  0  0  0  0
 10 11  1  0  0  0  0
 11 12  2  0  0  0  0
 12 13  1  0  0  0  0
 13 14  3  0  0  0  0
 12 15  1  0  0  0  0
 15 16  3  0  0  0  0
  8 17  1  0  0  0  0
 17 18  1  0  0  0  0
 18 19  1  0  0  0  0
 19 20  2  0  0  0  0
 20 21  1  0  0  0  0
 21 22  1  0  0  0  0
 21 23  1  0  0  0  0
  1 24  1  0  0  0  0
 24 25  2  0  0  0  0
 25 26  1  0  0  0  0
 26 27  1  0  0  0  0
 27 28  2  0  0  0  0
 28 29  1  0  0  0  0
 29 30  2  0  0  0  0
 30 31  1  0  0  0  0
 30 32  1  0  0  0  0
 32 33  2  0  0  0  0
 26 34  1  0  0  0  0
 34 35  2  0  0  0  0
 35 36  1  0  0  0  0
 36 37  2  0  0  0  0
 37 38  1  0  0  0  0
 37 39  1  0  0  0  0
 39 40  2  0  0  0  0
 25 41  1  0  0  0  0
 41 42  1  0  0  0  0
 42 43  1  0  0  0  0
 43 44  2  0  0  0  0
 44 45  1  0  0  0  0
 45 46  1  0  0  0  0
 46 47  2  0  0  0  0
 47 48  1  0  0  0  0
 48 49  2  0  0  0  0
 49 50  1  0  0  0  0
 49 51  1  0  0  0  0
 51 52  2  0  0  0  0
 45 53  1  0  0  0  0
 53 54  2  0  0  0  0
 54 55  1  0  0  0  0
 55 56  2  0  0  0  0
 56 57  1  0  0  0  0
 56 58  1  0  0  0  0
 58 59  2  0  0  0  0
 44 60  1  0  0  0  0
 60 61  1  0  0  0  0
 43 62  1  0  0  0  0
 62 63  2  0  0  0  0
 63 64  1  0  0  0  0
 64 65  2  0  0  0  0
 65 66  1  0  0  0  0
 66 67  2  0  0  0  0
 67 68  1  0  0  0  0
 68 69  1  0  0  0  0
 69 70  1  0  0  0  0
 68 71  2  0  0  0  0
 63 72  1  0  0  0  0
 72 73  1  0  0  0  0
 73 74  1  0  0  0  0
 74 75  1  0  0  0  0
 75 76  1  0  0  0  0
 76 77  1  0  0  0  0
 77 78  2  0  0  0  0
 78 79  1  0  0  0  0
 79 80  1  0  0  0  0
 77 81  1  0  0  0  0
 81 82  1  0  0  0  0
 82 83  1  0  0  0  0
 83 84  1  0  0  0  0
 84 85  1  0  0  0  0
 85 86  1  0  0  0  0
 86 87  2  0  0  0  0
 87 88  1  0  0  0  0
 88 89  2  0  0  0  0
 89 90  1  0  0  0  0
 90 91  1  0  0  0  0
 91 92  1  0  0  0  0
 90 93  2  0  0  0  0
 85 94  2  0  0  0  0
 94 95  1  0  0  0  0
 95 96  1  0  0  0  0
 96 97  1  0  0  0  0
 97 98  1  0  0  0  0
 98 99  1  0  0  0  0
 99100  1  0  0  0  0
100101  1  0  0  0  0
101102  1  0  0  0  0
102103  1  0  0  0  0
103104  1  0  0  0  0
101105  1  0  0  0  0
105106  1  0  0  0  0
 98107  1  0  0  0  0
107108  1  0  0  0  0
 94109  1  0  0  0  0
109110  2  0  0  0  0
110111  1  0  0  0  0
111112  2  0  0  0  0
112113  1  0  0  0  0
113114  2  0  0  0  0
114115  1  0  0  0  0
115116  2  0  0  0  0
116117  1  0  0  0  0
117118  1  0  0  0  0
118119  1  0  0  0  0
119120  1  0  0  0  0
117121  2  0  0  0  0
112122  1  0  0  0  0
122123  2  0  0  0  0
123124  1  0  0  0  0
124125  1  0  0  0  0
125126  2  0  0  0  0
126127  1  0  0  0  0
127128  2  0  0  0  0
128129  1  0  0  0  0
129130  1  0  0  0  0
130131  1  0  0  0  0
131132  1  0  0  0  0
129133  2  0  0  0  0
124134  2  0  0  0  0
134135  1  0  0  0  0
123136  1  0  0  0  0
136137  2  0  0  0  0
137138  1  0  0  0  0
137139  1  0  0  0  0
139140  2  0  0  0  0
140141  1  0  0  0  0
141142  2  0  0  0  0
142143  1  0  0  0  0
143144  2  0  0  0  0
144145  1  0  0  0  0
145146  3  0  0  0  0
144147  1  0  0  0  0
147148  3  0  0  0  0
143149  1  0  0  0  0
149150  3  0  0  0  0
142151  1  0  0  0  0
 11  2  1  0  0  0  0
 23 17  1  0  0  0  0
 61 24  1  0  0  0  0
104 62  1  0  0  0  0
135109  1  0  0  0  0
151139  1  0  0  0  0
 10  5  1  0  0  0  0
 22 18  1  0  0  0  0
 33 27  1  0  0  0  0
 40 34  1  0  0  0  0
 60 41  2  0  0  0  0
 71 64  1  0  0  0  0
103 72  2  0  0  0  0
134111  1  0  0  0  0
 23  7  1  0  0  0  0
 52 46  1  0  0  0  0
 59 53  1  0  0  0  0
102 74  2  0  0  0  0
121113  1  0  0  0  0
138122  1  0  0  0  0
100 75  2  0  0  0  0
133125  1  0  0  0  0
 80 76  2  0  0  0  0
 99 81  2  0  0  0  0
 97 82  2  0  0  0  0
 96 84  2  0  0  0  0
 93 86  1  0  0  0  0
  1152  1  0  0  0  0
  6153  1  0  0  0  0
  9154  1  0  0  0  0
 17155  1  0  0  0  0
 18156  1  0  0  0  0
 19157  1  0  0  0  0
 20158  1  0  0  0  0
 21159  1  0  0  0  0
 22160  1  0  0  0  0
 22161  1  0  0  0  0
 23162  1  0  0  0  0
 28163  1  0  0  0  0
 29164  1  0  0  0  0
 31165  1  0  0  0  0
 31166  1  0  0  0  0
 31167  1  0  0  0  0
 32168  1  0  0  0  0
 33169  1  0  0  0  0
 35170  1  0  0  0  0
 36171  1  0  0  0  0
 38172  1  0  0  0  0
 38173  1  0  0  0  0
 38174  1  0  0  0  0
 39175  1  0  0  0  0
 40176  1  0  0  0  0
 47177  1  0  0  0  0
 48178  1  0  0  0  0
 50179  1  0  0  0  0
 50180  1  0  0  0  0
 50181  1  0  0  0  0
 51182  1  0  0  0  0
 52183  1  0  0  0  0
 54184  1  0  0  0  0
 55185  1  0  0  0  0
 57186  1  0  0  0  0
 57187  1  0  0  0  0
 57188  1  0  0  0  0
 58189  1  0  0  0  0
 59190  1  0  0  0  0
 65191  1  0  0  0  0
 66192  1  0  0  0  0
 67193  1  0  0  0  0
 69194  1  0  0  0  0
 69195  1  0  0  0  0
 70196  1  0  0  0  0
 70197  1  0  0  0  0
 70198  1  0  0  0  0
 71199  1  0  0  0  0
 87200  1  0  0  0  0
 88201  1  0  0  0  0
 89202  1  0  0  0  0
 91203  1  0  0  0  0
 91204  1  0  0  0  0
 92205  1  0  0  0  0
 92206  1  0  0  0  0
 92207  1  0  0  0  0
 93208  1  0  0  0  0
105209  1  0  0  0  0
105210  1  0  0  0  0
106211  1  0  0  0  0
106212  1  0  0  0  0
106213  1  0  0  0  0
107214  1  0  0  0  0
107215  1  0  0  0  0
108216  1  0  0  0  0
108217  1  0  0  0  0
108218  1  0  0  0  0
110219  1  0  0  0  0
114220  1  0  0  0  0
115221  1  0  0  0  0
116222  1  0  0  0  0
119223  1  0  0  0  0
119224  1  0  0  0  0
120225  1  0  0  0  0
120226  1  0  0  0  0
120227  1  0  0  0  0
121228  1  0  0  0  0
126229  1  0  0  0  0
127230  1  0  0  0  0
128231  1  0  0  0  0
131232  1  0  0  0  0
131233  1  0  0  0  0
132234  1  0  0  0  0
132235  1  0  0  0  0
132236  1  0  0  0  0
133237  1  0  0  0  0
136238  1  0  0  0  0
140239  1  0  0  0  0
141240  1  0  0  0  0
M  END
