259

C        -10.51390       -5.76650       -1.26380
C        -10.99460       -5.58110       -2.53940
C        -10.53060       -4.58540       -3.50800
O         -9.80720       -3.62460       -3.30710
C        -11.11100       -4.97430       -4.80670
C        -10.90130       -4.35690       -6.03710
C        -11.55990       -4.95840       -7.08280
C        -12.37080       -6.08780       -6.91590
C        -12.58770       -6.70490       -5.70590
C        -11.92300       -6.11180       -4.62900
C        -11.90930       -6.47320       -3.21110
C        -12.65060       -7.47960       -2.63910
C        -12.76000       -7.72340       -1.25700
N        -12.93900       -7.96740       -0.14740
C        -13.43960       -8.39840       -3.35720
N        -14.07800       -9.20190       -3.87440
C        -12.71860       -6.15380       -8.38280
C        -14.11400       -5.63300       -8.78680
C        -13.98750       -5.37400      -10.27080
C        -13.21770       -4.30510      -10.42980
C        -12.81100       -3.82350       -9.05580
C        -14.07160       -4.19160       -8.26290
C        -11.81250       -4.89460       -8.56900
C         -9.53210       -5.07200       -0.55720
C         -8.99780       -5.51760        0.67760
N         -9.28350       -6.70740        1.29850
C         -9.49730       -7.90220        0.58760
C         -8.77830       -8.17570       -0.57410
C         -9.02790       -9.33210       -1.28480
C         -9.97380      -10.25360       -0.84920
C        -10.27780      -11.48620       -1.64300
C        -10.65190       -9.99280        0.33550
C        -10.42730       -8.83120        1.04700
C         -9.26300       -6.74470        2.70550
C         -8.67690       -7.80950        3.38160
C         -8.66690       -7.82970        4.76240
C         -9.23010       -6.79640        5.50090
C         -9.19510       -6.80620        6.99780
C         -9.81680       -5.73800        4.81590
C         -9.84100       -5.70940        3.43690
C         -8.09680       -4.57540        1.20150
S         -7.03090       -4.55980        2.57230
C         -6.38890       -3.00410        2.06650
C         -6.94470       -2.55160        0.87920
N         -6.59260       -1.39880        0.20030
C         -7.59920       -0.70300       -0.49110
C         -8.86770       -0.56710        0.06400
C         -9.86190        0.09370       -0.62910
C         -9.62100        0.63940       -1.88280
C        -10.71020        1.32700       -2.64750
C         -8.34810        0.50740       -2.42530
C         -7.34740       -0.15630       -1.74620
C         -5.26790       -0.95120        0.14530
C         -4.99130        0.41510        0.14760
C         -3.68700        0.86180        0.14960
C         -2.61910       -0.02940        0.14580
C         -1.21060        0.48090        0.16530
C         -2.90130       -1.38760        0.10020
C         -4.20450       -1.84860        0.08960
C         -7.92900       -3.45210        0.40380
S         -8.85010       -3.51880       -1.05300
C         -5.32510       -2.35700        2.77890
C         -5.25130       -1.01690        3.10540
C         -6.42570       -0.15000        3.15630
C         -6.33440        1.21400        2.89210
C         -7.46900        2.00250        2.92280
C         -8.70060        1.45120        3.22740
C         -8.80780        0.09880        3.52760
C        -10.12640       -0.50270        3.92430
C        -10.31330       -0.42820        5.44060
C         -7.66670       -0.68550        3.49650
C         -3.91980       -0.64470        3.40410
S         -3.13540        0.89410        3.66030
C         -1.59690        0.10210        3.63260
C         -0.22840        0.43310        3.58300
C          0.45660        1.66360        3.66530
C          1.88470        1.67410        3.49690
N          2.39990        2.88850        3.61800
S          1.19660        3.92900        3.91280
N         -0.03220        2.87330        3.89390
C          2.54150        0.47520        3.15320
C          3.86140        0.24980        2.70040
S          5.41990       -1.59890        1.65290
C          6.00180        0.05170        1.80060
C          7.20970        0.67330        1.43430
C          8.32930       -0.05910        0.84400
C          9.63690        0.12180        1.28900
C         10.66140       -0.60720        0.71860
C         10.39470       -1.53390       -0.27510
C          9.09360       -1.75300       -0.70960
C          8.78650       -2.80180       -1.74450
C          7.90730       -2.28590       -2.88280
C          8.07380       -1.00300       -0.14470
C          7.16220        2.03550        1.71150
S          5.63840        2.51300        2.46590
C          5.06630        0.90230        2.37830
C          3.91220       -1.09190        2.34180
N          2.72000       -1.71800        2.55310
C          1.84780       -0.75520        3.06080
C          0.47120       -0.78800        3.39370
N         -0.43630       -1.83430        3.40890
C         -1.69130       -1.28300        3.50660
C         -3.01820       -1.70720        3.36520
S         -3.79520       -3.19790        2.97800
C         -0.17860       -3.18760        3.85270
C         -0.85190       -3.48150        5.19220
C          2.43870       -2.96700        1.87580
C          1.43160       -2.78720        0.74450
C          8.03440        3.06500        1.26980
C          7.93390        4.42080        1.58130
N          7.14230        4.95860        2.58410
C          7.19240        4.46530        3.89330
C          8.29480        3.75750        4.36260
C          8.30490        3.25930        5.65150
C          7.22880        3.45450        6.50610
C          7.24160        2.92810        7.90900
C          6.13190        4.16680        6.03100
C          6.10500        4.66290        4.74560
C          6.57330        6.22110        2.32440
C          5.90490        6.43110        1.12280
C          5.40890        7.68260        0.81420
C          5.55880        8.74650        1.69300
C          5.07120       10.11850        1.34320
C          6.20410        8.51940        2.90350
C          6.70960        7.27620        3.22120
C          8.74470        5.20880        0.73720
S          8.98480        6.91130        0.59770
C         10.13180        6.64160       -0.72000
C         10.39680        5.25460       -0.91790
N         11.37890        4.75570       -1.72150
C         12.59490        5.43760       -1.94010
C         13.20490        6.16310       -0.92060
C         14.39130        6.82720       -1.16140
C         15.00630        6.77120       -2.40670
C         16.27990        7.51020       -2.67940
C         14.40620        6.01480       -3.40650
C         13.21360        5.35610       -3.18470
C         11.27790        3.44380       -2.22930
C         10.11800        3.01620       -2.86560
C         10.05620        1.74520       -3.40490
C         11.13990        0.88060       -3.32920
C         11.09160       -0.48660       -3.93610
C         12.28680        1.31200       -2.67150
C         12.36140        2.57600       -2.12650
C          9.53140        4.47080       -0.14050
S          9.24790        2.76310        0.02930
C         10.59280        7.63210       -1.57480
C         10.40300        9.00100       -1.55170
C          9.75550        9.77480       -0.48390
O          9.23530        9.37000        0.54050
C          9.89500       11.16900       -0.91000
S          9.43940       12.69750       -0.29320
C         10.16740       13.45100       -1.68220
Br        10.12990       15.31660       -1.85390
C         10.72900       12.57530       -2.56980
C         10.56890       11.25400       -2.11660
C         10.88880        9.90500       -2.56340
C         11.51140        9.62090       -3.75630
C         11.73800        8.33990       -4.28760
N         11.93010        7.33150       -4.80630
C         11.96800       10.64180       -4.61240
N         12.35860       11.45800       -5.31960
H        -10.91930       -6.61660       -0.73070
H        -10.26590       -3.48890       -6.11980
H        -13.21040       -7.57700       -5.59550
H        -12.44330       -7.07390       -8.89510
H        -14.94320       -6.25840       -8.46760
H        -14.41040       -6.00720      -11.02850
H        -12.86910       -3.86710      -11.34680
H        -12.45330       -2.79980       -8.98210
H        -13.95420       -4.11550       -7.18360
H        -14.93920       -3.61370       -8.57700
H        -10.93240       -4.97660       -9.20450
H         -8.03750       -7.47110       -0.92340
H         -8.47310       -9.52420       -2.19220
H        -11.22150      -11.36040       -2.17530
H         -9.49750      -11.68370       -2.37400
H        -10.37880      -12.35060       -0.99010
H        -11.38720      -10.69690        0.69400
H        -10.98410       -8.62910        1.94850
H         -8.22800       -8.61530        2.82010
H         -8.20630       -8.66170        5.27480
H         -9.01230       -7.80840        7.37690
H        -10.13330       -6.43870        7.40840
H         -8.39640       -6.15570        7.35560
H        -10.26900       -4.92960        5.37210
H        -10.31570       -4.89090        2.91550
H         -9.06750       -0.97620        1.04270
H        -10.84240        0.18820       -0.18480
H        -11.18830        0.61820       -3.32440
H        -10.31040        2.14380       -3.24440
H        -11.47070        1.71850       -1.97590
H         -8.14070        0.92060       -3.40180
H         -6.36710       -0.26300       -2.18660
H         -5.81050        1.11790        0.16350
H         -3.48900        1.92370        0.17220
H         -0.51260       -0.30260        0.45040
H         -0.92880        0.84610       -0.82290
H         -1.11190        1.30750        0.86640
H         -2.09000       -2.10190        0.06990
H         -4.40290       -2.90950        0.04000
H         -5.37970        1.65150        2.64790
H         -7.39140        3.05730        2.70410
H         -9.58360        2.07360        3.23990
H        -10.16660       -1.54840        3.60980
H        -10.94060        0.03400        3.43300
H        -11.26760       -0.86290        5.72930
H         -9.51620       -0.96950        5.94580
H        -10.28760        0.60670        5.77400
H         -7.74200       -1.73270        3.75260
H          9.83910        0.81690        2.09010
H         11.67640       -0.46170        1.05730
H         11.20690       -2.10600       -0.70160
H          8.27770       -3.63780       -1.25440
H          9.72270       -3.18750       -2.15490
H          8.33040       -1.37950       -3.30780
H          6.90390       -2.06180       -2.53150
H          7.83140       -3.03660       -3.66630
H          7.05770       -1.14820       -0.47780
H          0.89630       -3.29480        3.98540
H         -0.53450       -3.89770        3.09800
H         -0.55630       -2.74080        5.93230
H         -0.54750       -4.46480        5.54090
H         -1.93360       -3.47130        5.09890
H          3.39300       -3.30670        1.46350
H          2.09620       -3.73260        2.57450
H          1.79120       -2.04150        0.03870
H          0.46840       -2.46450        1.13010
H          1.29940       -3.72900        0.21900
H          9.14810        3.60250        3.71840
H          9.17080        2.71310        5.99840
H          6.30780        2.41560        8.13400
H          7.34930        3.74910        8.61820
H          8.06680        2.23630        8.05880
H          5.27990        4.32280        6.67670
H          5.23800        5.19280        4.38210
H          5.78850        5.60910        0.43110
H          4.90220        7.83420       -0.12830
H          4.39760       10.08950        0.49020
H          5.92040       10.75340        1.08990
H          4.55450       10.57310        2.18640
H          6.33130        9.33680        3.59800
H          7.23110        7.12010        4.15390
H         12.74460        6.21030        0.05530
H         14.85020        7.39250       -0.36310
H         16.68670        7.93950       -1.76740
H         17.02230        6.84510       -3.11700
H         16.09870        8.31650       -3.39010
H         14.86870        5.95570       -4.38000
H         12.74960        4.78840       -3.97560
H          9.27890        3.69000       -2.95540
H          9.15450        1.43010       -3.90950
H         12.04650       -0.73680       -4.39370
H         10.88520       -1.22560       -3.16340
H         10.31300       -0.55190       -4.69210
H         13.13530        0.64840       -2.59200
H         13.25970        2.90410       -1.62480
H         11.17410        7.26390       -2.41080
H         11.21830       12.87850       -3.47680
