
  xtb     02082217553D
 energy: -392.245003787189 gnorm: 0.000460520531 xtb: 6.4.1 (unknown)
247275  0     0  0            999 V2000
    0.5693    1.8766    6.3190 C   0  0  0  0  0  0  0  0  0  0  0  0
   -0.3886    2.0713    7.2879 C   0  0  0  0  0  0  0  0  0  0  0  0
   -1.3047    3.2080    7.3849 C   0  0  0  0  0  0  0  0  0  0  0  0
   -1.4485    4.1230    6.5907 O   0  0  0  0  0  0  0  0  0  0  0  0
   -2.0209    3.0490    8.6651 C   0  0  0  0  0  0  0  0  0  0  0  0
   -2.9886    3.8970    9.1973 C   0  0  0  0  0  0  0  0  0  0  0  0
   -3.4832    3.4880   10.4131 C   0  0  0  0  0  0  0  0  0  0  0  0
   -3.0431    2.3238   11.0546 C   0  0  0  0  0  0  0  0  0  0  0  0
   -2.0859    1.4799   10.5414 C   0  0  0  0  0  0  0  0  0  0  0  0
   -1.5732    1.8749    9.3030 C   0  0  0  0  0  0  0  0  0  0  0  0
   -0.5806    1.2298    8.4424 C   0  0  0  0  0  0  0  0  0  0  0  0
    0.0114    0.0112    8.6829 C   0  0  0  0  0  0  0  0  0  0  0  0
   -0.1599   -0.7389    9.8626 C   0  0  0  0  0  0  0  0  0  0  0  0
   -0.2347   -1.3973   10.8015 N   0  0  0  0  0  0  0  0  0  0  0  0
    0.8311   -0.6945    7.7817 C   0  0  0  0  0  0  0  0  0  0  0  0
    1.4654   -1.3662    7.0955 N   0  0  0  0  0  0  0  0  0  0  0  0
   -3.9721    2.5217   12.2269 C   0  0  0  0  0  0  0  0  0  0  0  0
   -5.2422    1.6453   12.2546 C   0  0  0  0  0  0  0  0  0  0  0  0
   -6.1630    2.3729   13.2073 C   0  0  0  0  0  0  0  0  0  0  0  0
   -6.5806    3.4767   12.6007 C   0  0  0  0  0  0  0  0  0  0  0  0
   -5.9491    3.5133   11.2277 C   0  0  0  0  0  0  0  0  0  0  0  0
   -5.9021    2.0114   10.9189 C   0  0  0  0  0  0  0  0  0  0  0  0
   -4.4634    3.8208   11.5112 C   0  0  0  0  0  0  0  0  0  0  0  0
    0.8189    2.5743    5.1407 C   0  0  0  0  0  0  0  0  0  0  0  0
    1.8299    2.1843    4.2276 C   0  0  0  0  0  0  0  0  0  0  0  0
    2.7439    1.1733    4.4033 N   0  0  0  0  0  0  0  0  0  0  0  0
    3.4485    0.9582    5.5925 C   0  0  0  0  0  0  0  0  0  0  0  0
    3.8824   -0.3238    5.9228 C   0  0  0  0  0  0  0  0  0  0  0  0
    4.5914   -0.5371    7.0869 C   0  0  0  0  0  0  0  0  0  0  0  0
    4.8752    0.5082    7.9576 C   0  0  0  0  0  0  0  0  0  0  0  0
    5.6123    0.2523    9.2359 C   0  0  0  0  0  0  0  0  0  0  0  0
    4.4429    1.7850    7.6177 C   0  0  0  0  0  0  0  0  0  0  0  0
    3.7468    2.0167    6.4486 C   0  0  0  0  0  0  0  0  0  0  0  0
    3.0095    0.3731    3.2697 C   0  0  0  0  0  0  0  0  0  0  0  0
    4.3102    0.1456    2.8342 C   0  0  0  0  0  0  0  0  0  0  0  0
    4.5286   -0.5785    1.6793 C   0  0  0  0  0  0  0  0  0  0  0  0
    3.4680   -1.0997    0.9446 C   0  0  0  0  0  0  0  0  0  0  0  0
    3.7185   -1.8667   -0.3170 C   0  0  0  0  0  0  0  0  0  0  0  0
    2.1741   -0.8907    1.4039 C   0  0  0  0  0  0  0  0  0  0  0  0
    1.9430   -0.1610    2.5528 C   0  0  0  0  0  0  0  0  0  0  0  0
    1.7186    2.8960    3.0264 C   0  0  0  0  0  0  0  0  0  0  0  0
    2.6217    2.8809    1.5468 S   0  0  0  0  0  0  0  0  0  0  0  0
    1.5074    4.0471    0.8421 C   0  0  0  0  0  0  0  0  0  0  0  0
    0.5529    4.4832    1.7547 C   0  0  0  0  0  0  0  0  0  0  0  0
   -0.4218    5.4199    1.4772 N   0  0  0  0  0  0  0  0  0  0  0  0
   -1.6707    5.2612    2.1074 C   0  0  0  0  0  0  0  0  0  0  0  0
   -2.2700    4.0054    2.1436 C   0  0  0  0  0  0  0  0  0  0  0  0
   -3.4593    3.8272    2.8211 C   0  0  0  0  0  0  0  0  0  0  0  0
   -4.0812    4.8887    3.4665 C   0  0  0  0  0  0  0  0  0  0  0  0
   -5.3404    4.6769    4.2489 C   0  0  0  0  0  0  0  0  0  0  0  0
   -3.4901    6.1444    3.3964 C   0  0  0  0  0  0  0  0  0  0  0  0
   -2.2978    6.3358    2.7278 C   0  0  0  0  0  0  0  0  0  0  0  0
   -0.1718    6.5163    0.6466 C   0  0  0  0  0  0  0  0  0  0  0  0
   -1.1998    7.0559   -0.1247 C   0  0  0  0  0  0  0  0  0  0  0  0
   -0.9522    8.1204   -0.9671 C   0  0  0  0  0  0  0  0  0  0  0  0
    0.3176    8.6756   -1.0724 C   0  0  0  0  0  0  0  0  0  0  0  0
    0.5862    9.8070   -2.0175 C   0  0  0  0  0  0  0  0  0  0  0  0
    1.3350    8.1380   -0.2935 C   0  0  0  0  0  0  0  0  0  0  0  0
    1.1002    7.0774    0.5580 C   0  0  0  0  0  0  0  0  0  0  0  0
    0.6816    3.8203    2.9986 C   0  0  0  0  0  0  0  0  0  0  0  0
   -0.1806    3.8826    4.4971 S   0  0  0  0  0  0  0  0  0  0  0  0
    1.4759    4.1919   -0.5738 C   0  0  0  0  0  0  0  0  0  0  0  0
    2.4968    3.9846   -1.4814 C   0  0  0  0  0  0  0  0  0  0  0  0
    3.9618    4.0531   -1.1968 C   0  0  0  0  0  0  0  0  0  0  0  0
    4.5576    5.3129   -1.8283 C   0  0  0  0  0  0  0  0  0  0  0  0
    1.9822    3.7272   -2.7613 C   0  0  0  0  0  0  0  0  0  0  0  0
    2.7124    3.0587   -4.1974 S   0  0  0  0  0  0  0  0  0  0  0  0
    1.1294    2.7119   -4.8163 C   0  0  0  0  0  0  0  0  0  0  0  0
    0.5852    1.7959   -5.7472 C   0  0  0  0  0  0  0  0  0  0  0  0
   -0.7973    1.7291   -5.5740 C   0  0  0  0  0  0  0  0  0  0  0  0
   -1.2392    2.6455   -4.4545 C   0  0  0  0  0  0  0  0  0  0  0  0
    0.0971    3.2036   -4.0237 C   0  0  0  0  0  0  0  0  0  0  0  0
    0.5858    3.7585   -2.8437 C   0  0  0  0  0  0  0  0  0  0  0  0
   -0.1222    4.2083   -1.3392 S   0  0  0  0  0  0  0  0  0  0  0  0
   -1.7128    1.8489   -3.2409 C   0  0  0  0  0  0  0  0  0  0  0  0
   -2.6177    2.3998   -2.3455 C   0  0  0  0  0  0  0  0  0  0  0  0
   -2.9237    1.7423   -1.1669 C   0  0  0  0  0  0  0  0  0  0  0  0
   -2.3272    0.5309   -0.8480 C   0  0  0  0  0  0  0  0  0  0  0  0
   -2.6635   -0.1931    0.4236 C   0  0  0  0  0  0  0  0  0  0  0  0
   -3.7489   -1.2415    0.1724 C   0  0  0  0  0  0  0  0  0  0  0  0
   -1.4245   -0.0196   -1.7497 C   0  0  0  0  0  0  0  0  0  0  0  0
   -1.1154    0.6339   -2.9260 C   0  0  0  0  0  0  0  0  0  0  0  0
   -2.2495    3.6696   -4.9111 C   0  0  0  0  0  0  0  0  0  0  0  0
   -1.9647    5.0271   -4.9048 C   0  0  0  0  0  0  0  0  0  0  0  0
   -2.9130    5.9416   -5.3271 C   0  0  0  0  0  0  0  0  0  0  0  0
   -4.1622    5.5254   -5.7650 C   0  0  0  0  0  0  0  0  0  0  0  0
   -5.1750    6.5160   -6.2626 C   0  0  0  0  0  0  0  0  0  0  0  0
   -5.0430    6.7011   -7.7756 C   0  0  0  0  0  0  0  0  0  0  0  0
   -4.4399    4.1636   -5.7722 C   0  0  0  0  0  0  0  0  0  0  0  0
   -3.4987    3.2466   -5.3487 C   0  0  0  0  0  0  0  0  0  0  0  0
   -1.3379    0.6224   -6.2237 C   0  0  0  0  0  0  0  0  0  0  0  0
   -2.9035   -0.1393   -6.2229 S   0  0  0  0  0  0  0  0  0  0  0  0
   -2.1781   -1.5967   -6.8223 C   0  0  0  0  0  0  0  0  0  0  0  0
   -2.5244   -2.9686   -6.7805 C   0  0  0  0  0  0  0  0  0  0  0  0
   -1.3618   -3.7208   -6.9492 C   0  0  0  0  0  0  0  0  0  0  0  0
   -0.1812   -2.8383   -7.2792 C   0  0  0  0  0  0  0  0  0  0  0  0
    0.3128   -2.9624   -8.7050 C   0  0  0  0  0  0  0  0  0  0  0  0
    1.3785   -2.1716   -9.1182 C   0  0  0  0  0  0  0  0  0  0  0  0
    1.8410   -2.2444  -10.4169 C   0  0  0  0  0  0  0  0  0  0  0  0
    1.2542   -3.1069  -11.3354 C   0  0  0  0  0  0  0  0  0  0  0  0
    1.7312   -3.1512  -12.7583 C   0  0  0  0  0  0  0  0  0  0  0  0
    0.9825   -2.1190  -13.6040 C   0  0  0  0  0  0  0  0  0  0  0  0
    0.1885   -3.8910  -10.9171 C   0  0  0  0  0  0  0  0  0  0  0  0
   -0.2802   -3.8217   -9.6171 C   0  0  0  0  0  0  0  0  0  0  0  0
    0.8973   -3.1504   -6.2561 C   0  0  0  0  0  0  0  0  0  0  0  0
    1.9403   -4.0089   -6.5708 C   0  0  0  0  0  0  0  0  0  0  0  0
    2.8566   -4.3792   -5.6034 C   0  0  0  0  0  0  0  0  0  0  0  0
    2.7540   -3.9086   -4.3028 C   0  0  0  0  0  0  0  0  0  0  0  0
    3.7281   -4.3412   -3.2439 C   0  0  0  0  0  0  0  0  0  0  0  0
    3.0734   -5.3221   -2.2707 C   0  0  0  0  0  0  0  0  0  0  0  0
    1.7014   -3.0562   -3.9908 C   0  0  0  0  0  0  0  0  0  0  0  0
    0.7795   -2.6890   -4.9508 C   0  0  0  0  0  0  0  0  0  0  0  0
   -0.8122   -1.4785   -7.0771 C   0  0  0  0  0  0  0  0  0  0  0  0
   -0.3463   -0.1985   -6.8017 C   0  0  0  0  0  0  0  0  0  0  0  0
    1.2410    0.5104   -6.7072 S   0  0  0  0  0  0  0  0  0  0  0  0
   -1.5242   -5.0100   -6.4573 C   0  0  0  0  0  0  0  0  0  0  0  0
   -2.8344   -5.2719   -6.0251 C   0  0  0  0  0  0  0  0  0  0  0  0
   -3.8816   -3.8898   -6.2274 S   0  0  0  0  0  0  0  0  0  0  0  0
   -2.9858   -6.4416   -5.2735 C   0  0  0  0  0  0  0  0  0  0  0  0
   -4.2690   -6.9017   -4.6774 C   0  0  0  0  0  0  0  0  0  0  0  0
   -4.8018   -8.1359   -5.4058 C   0  0  0  0  0  0  0  0  0  0  0  0
   -1.7482   -7.0432   -5.0763 C   0  0  0  0  0  0  0  0  0  0  0  0
   -0.4389   -6.2484   -5.9412 S   0  0  0  0  0  0  0  0  0  0  0  0
   -1.4558   -7.8950   -3.9852 C   0  0  0  0  0  0  0  0  0  0  0  0
   -2.3010   -8.6931   -3.4022 N   0  0  0  0  0  0  0  0  0  0  0  0
   -1.9377   -9.1010   -2.2182 N   0  0  0  0  0  0  0  0  0  0  0  0
   -0.8124   -8.6169   -1.7962 C   0  0  0  0  0  0  0  0  0  0  0  0
    0.0092   -7.6367   -3.0185 S   0  0  0  0  0  0  0  0  0  0  0  0
   -0.3315   -8.8029   -0.4642 C   0  0  0  0  0  0  0  0  0  0  0  0
    0.2355   -7.8845    0.3488 C   0  0  0  0  0  0  0  0  0  0  0  0
    0.8439   -8.3305    1.6409 C   0  0  0  0  0  0  0  0  0  0  0  0
    0.7511   -9.4315    2.1300 O   0  0  0  0  0  0  0  0  0  0  0  0
    1.5915   -7.1695    2.1489 C   0  0  0  0  0  0  0  0  0  0  0  0
    2.3278   -7.0975    3.3311 C   0  0  0  0  0  0  0  0  0  0  0  0
    2.8947   -5.8683    3.5666 C   0  0  0  0  0  0  0  0  0  0  0  0
    2.7772   -4.7962    2.6697 C   0  0  0  0  0  0  0  0  0  0  0  0
    2.0471   -4.8490    1.5072 C   0  0  0  0  0  0  0  0  0  0  0  0
    1.4222   -6.0781    1.2688 C   0  0  0  0  0  0  0  0  0  0  0  0
    0.4557   -6.4513    0.2388 C   0  0  0  0  0  0  0  0  0  0  0  0
   -0.2870   -5.5517   -0.4811 C   0  0  0  0  0  0  0  0  0  0  0  0
   -0.0329   -4.1661   -0.5217 C   0  0  0  0  0  0  0  0  0  0  0  0
    0.1346   -3.0346   -0.6353 N   0  0  0  0  0  0  0  0  0  0  0  0
   -1.4673   -5.8341   -1.2032 C   0  0  0  0  0  0  0  0  0  0  0  0
   -2.4713   -5.9333   -1.7515 N   0  0  0  0  0  0  0  0  0  0  0  0
    3.6009   -3.8771    3.5347 C   0  0  0  0  0  0  0  0  0  0  0  0
    5.0708   -3.6538    3.1212 C   0  0  0  0  0  0  0  0  0  0  0  0
    5.7193   -3.1146    4.3754 C   0  0  0  0  0  0  0  0  0  0  0  0
    5.8088   -4.1140    5.2434 C   0  0  0  0  0  0  0  0  0  0  0  0
    5.2255   -5.3457    4.5893 C   0  0  0  0  0  0  0  0  0  0  0  0
    5.6240   -5.0845    3.1311 C   0  0  0  0  0  0  0  0  0  0  0  0
    3.7097   -5.0621    4.5478 C   0  0  0  0  0  0  0  0  0  0  0  0
    1.2368    1.0388    6.4784 H   0  0  0  0  0  0  0  0  0  0  0  0
   -3.2954    4.7872    8.6704 H   0  0  0  0  0  0  0  0  0  0  0  0
   -1.7545    0.5903   11.0504 H   0  0  0  0  0  0  0  0  0  0  0  0
   -3.4960    2.6120   13.2014 H   0  0  0  0  0  0  0  0  0  0  0  0
   -5.0640    0.5921   12.4537 H   0  0  0  0  0  0  0  0  0  0  0  0
   -6.3648    2.0493   14.2116 H   0  0  0  0  0  0  0  0  0  0  0  0
   -7.2007    4.2593   12.9973 H   0  0  0  0  0  0  0  0  0  0  0  0
   -6.4167    4.1621   10.4916 H   0  0  0  0  0  0  0  0  0  0  0  0
   -6.8969    1.5800   10.8194 H   0  0  0  0  0  0  0  0  0  0  0  0
   -5.3055    1.7565   10.0450 H   0  0  0  0  0  0  0  0  0  0  0  0
   -4.3140    4.7773   12.0091 H   0  0  0  0  0  0  0  0  0  0  0  0
    3.6509   -1.1513    5.2719 H   0  0  0  0  0  0  0  0  0  0  0  0
    4.9141   -1.5385    7.3293 H   0  0  0  0  0  0  0  0  0  0  0  0
    4.9617   -0.2610    9.9444 H   0  0  0  0  0  0  0  0  0  0  0  0
    5.9447    1.1830    9.6888 H   0  0  0  0  0  0  0  0  0  0  0  0
    6.4781   -0.3835    9.0602 H   0  0  0  0  0  0  0  0  0  0  0  0
    4.6614    2.6152    8.2740 H   0  0  0  0  0  0  0  0  0  0  0  0
    3.4263    3.0166    6.1946 H   0  0  0  0  0  0  0  0  0  0  0  0
    5.1380    0.5598    3.3905 H   0  0  0  0  0  0  0  0  0  0  0  0
    5.5411   -0.7224    1.3289 H   0  0  0  0  0  0  0  0  0  0  0  0
    4.3199   -1.2758   -1.0070 H   0  0  0  0  0  0  0  0  0  0  0  0
    4.2611   -2.7891   -0.1062 H   0  0  0  0  0  0  0  0  0  0  0  0
    2.7788   -2.1182   -0.8018 H   0  0  0  0  0  0  0  0  0  0  0  0
    1.3382   -1.2946    0.8519 H   0  0  0  0  0  0  0  0  0  0  0  0
    0.9339    0.0085    2.9000 H   0  0  0  0  0  0  0  0  0  0  0  0
   -1.7949    3.1760    1.6384 H   0  0  0  0  0  0  0  0  0  0  0  0
   -3.9117    2.8461    2.8536 H   0  0  0  0  0  0  0  0  0  0  0  0
   -5.9329    3.8689    3.8254 H   0  0  0  0  0  0  0  0  0  0  0  0
   -5.0889    4.4084    5.2757 H   0  0  0  0  0  0  0  0  0  0  0  0
   -5.9418    5.5826    4.2745 H   0  0  0  0  0  0  0  0  0  0  0  0
   -3.9617    6.9826    3.8885 H   0  0  0  0  0  0  0  0  0  0  0  0
   -1.8376    7.3123    2.6943 H   0  0  0  0  0  0  0  0  0  0  0  0
   -2.1879    6.6247   -0.0665 H   0  0  0  0  0  0  0  0  0  0  0  0
   -1.7597    8.5212   -1.5629 H   0  0  0  0  0  0  0  0  0  0  0  0
    1.4322   10.4020   -1.6811 H   0  0  0  0  0  0  0  0  0  0  0  0
   -0.2852   10.4517   -2.1076 H   0  0  0  0  0  0  0  0  0  0  0  0
    0.8206    9.4183   -3.0095 H   0  0  0  0  0  0  0  0  0  0  0  0
    2.3279    8.5619   -0.3481 H   0  0  0  0  0  0  0  0  0  0  0  0
    1.9037    6.6835    1.1629 H   0  0  0  0  0  0  0  0  0  0  0  0
    4.1395    4.0655   -0.1222 H   0  0  0  0  0  0  0  0  0  0  0  0
    4.4493    3.1702   -1.6175 H   0  0  0  0  0  0  0  0  0  0  0  0
    5.6218    5.3722   -1.6152 H   0  0  0  0  0  0  0  0  0  0  0  0
    4.0702    6.1997   -1.4287 H   0  0  0  0  0  0  0  0  0  0  0  0
    4.4200    5.2992   -2.9070 H   0  0  0  0  0  0  0  0  0  0  0  0
   -3.0766    3.3534   -2.5606 H   0  0  0  0  0  0  0  0  0  0  0  0
   -3.6237    2.1938   -0.4779 H   0  0  0  0  0  0  0  0  0  0  0  0
   -3.0137    0.5183    1.1748 H   0  0  0  0  0  0  0  0  0  0  0  0
   -1.7710   -0.6907    0.8093 H   0  0  0  0  0  0  0  0  0  0  0  0
   -3.4056   -1.9739   -0.5548 H   0  0  0  0  0  0  0  0  0  0  0  0
   -4.6489   -0.7695   -0.2157 H   0  0  0  0  0  0  0  0  0  0  0  0
   -3.9983   -1.7610    1.0950 H   0  0  0  0  0  0  0  0  0  0  0  0
   -0.9458   -0.9601   -1.5188 H   0  0  0  0  0  0  0  0  0  0  0  0
   -0.3829    0.2014   -3.5926 H   0  0  0  0  0  0  0  0  0  0  0  0
   -1.0016    5.3759   -4.5621 H   0  0  0  0  0  0  0  0  0  0  0  0
   -2.6772    6.9963   -5.3105 H   0  0  0  0  0  0  0  0  0  0  0  0
   -5.0270    7.4781   -5.7679 H   0  0  0  0  0  0  0  0  0  0  0  0
   -6.1821    6.1634   -6.0305 H   0  0  0  0  0  0  0  0  0  0  0  0
   -5.1982    5.7538   -8.2871 H   0  0  0  0  0  0  0  0  0  0  0  0
   -5.7779    7.4163   -8.1377 H   0  0  0  0  0  0  0  0  0  0  0  0
   -4.0494    7.0658   -8.0265 H   0  0  0  0  0  0  0  0  0  0  0  0
   -5.4075    3.8180   -6.1068 H   0  0  0  0  0  0  0  0  0  0  0  0
   -3.7377    2.1932   -5.3435 H   0  0  0  0  0  0  0  0  0  0  0  0
    1.8527   -1.5048   -8.4127 H   0  0  0  0  0  0  0  0  0  0  0  0
    2.6725   -1.6253  -10.7218 H   0  0  0  0  0  0  0  0  0  0  0  0
    2.8017   -2.9389  -12.7965 H   0  0  0  0  0  0  0  0  0  0  0  0
    1.5646   -4.1467  -13.1747 H   0  0  0  0  0  0  0  0  0  0  0  0
   -0.0862   -2.3215  -13.5893 H   0  0  0  0  0  0  0  0  0  0  0  0
    1.1457   -1.1181  -13.2106 H   0  0  0  0  0  0  0  0  0  0  0  0
    1.3278   -2.1484  -14.6348 H   0  0  0  0  0  0  0  0  0  0  0  0
   -0.2811   -4.5695  -11.6150 H   0  0  0  0  0  0  0  0  0  0  0  0
   -1.1089   -4.4447   -9.3137 H   0  0  0  0  0  0  0  0  0  0  0  0
    2.0342   -4.3979   -7.5737 H   0  0  0  0  0  0  0  0  0  0  0  0
    3.6597   -5.0526   -5.8667 H   0  0  0  0  0  0  0  0  0  0  0  0
    4.5921   -4.8173   -3.7107 H   0  0  0  0  0  0  0  0  0  0  0  0
    4.0776   -3.4673   -2.6902 H   0  0  0  0  0  0  0  0  0  0  0  0
    2.2211   -4.8539   -1.7851 H   0  0  0  0  0  0  0  0  0  0  0  0
    2.7206   -6.2042   -2.8011 H   0  0  0  0  0  0  0  0  0  0  0  0
    3.7803   -5.6357   -1.5049 H   0  0  0  0  0  0  0  0  0  0  0  0
    1.5900   -2.6825   -2.9831 H   0  0  0  0  0  0  0  0  0  0  0  0
   -0.0469   -2.0489   -4.6763 H   0  0  0  0  0  0  0  0  0  0  0  0
   -4.1032   -7.1581   -3.6292 H   0  0  0  0  0  0  0  0  0  0  0  0
   -4.9942   -6.0876   -4.7369 H   0  0  0  0  0  0  0  0  0  0  0  0
   -4.9410   -7.9270   -6.4647 H   0  0  0  0  0  0  0  0  0  0  0  0
   -4.1016   -8.9587   -5.2939 H   0  0  0  0  0  0  0  0  0  0  0  0
   -5.7568   -8.4311   -4.9807 H   0  0  0  0  0  0  0  0  0  0  0  0
   -0.4671   -9.7951   -0.0458 H   0  0  0  0  0  0  0  0  0  0  0  0
    2.4000   -7.9495    3.9886 H   0  0  0  0  0  0  0  0  0  0  0  0
    1.9561   -4.0098    0.8398 H   0  0  0  0  0  0  0  0  0  0  0  0
    3.1022   -2.9614    3.8454 H   0  0  0  0  0  0  0  0  0  0  0  0
    5.2035   -3.0687    2.2171 H   0  0  0  0  0  0  0  0  0  0  0  0
    5.9847   -2.0836    4.5162 H   0  0  0  0  0  0  0  0  0  0  0  0
    6.1658   -4.0869    6.2561 H   0  0  0  0  0  0  0  0  0  0  0  0
    5.4988   -6.3050    5.0202 H   0  0  0  0  0  0  0  0  0  0  0  0
    5.1460   -5.7514    2.4154 H   0  0  0  0  0  0  0  0  0  0  0  0
    6.7031   -5.1096    2.9875 H   0  0  0  0  0  0  0  0  0  0  0  0
    3.2680   -4.9383    5.5342 H   0  0  0  0  0  0  0  0  0  0  0  0
  1  2  2  0  0  0  0
  2  3  1  0  0  0  0
  3  4  2  0  0  0  0
  3  5  1  0  0  0  0
  5  6  2  0  0  0  0
  6  7  1  0  0  0  0
  7  8  2  0  0  0  0
  8  9  1  0  0  0  0
  9 10  2  0  0  0  0
 10 11  1  0  0  0  0
 11 12  2  0  0  0  0
 12 13  1  0  0  0  0
 13 14  3  0  0  0  0
 12 15  1  0  0  0  0
 15 16  3  0  0  0  0
  8 17  1  0  0  0  0
 17 18  1  0  0  0  0
 18 19  1  0  0  0  0
 19 20  2  0  0  0  0
 20 21  1  0  0  0  0
 21 22  1  0  0  0  0
 21 23  1  0  0  0  0
  1 24  1  0  0  0  0
 24 25  2  0  0  0  0
 25 26  1  0  0  0  0
 26 27  1  0  0  0  0
 27 28  2  0  0  0  0
 28 29  1  0  0  0  0
 29 30  2  0  0  0  0
 30 31  1  0  0  0  0
 30 32  1  0  0  0  0
 32 33  2  0  0  0  0
 26 34  1  0  0  0  0
 34 35  2  0  0  0  0
 35 36  1  0  0  0  0
 36 37  2  0  0  0  0
 37 38  1  0  0  0  0
 37 39  1  0  0  0  0
 39 40  2  0  0  0  0
 25 41  1  0  0  0  0
 41 42  1  0  0  0  0
 42 43  1  0  0  0  0
 43 44  2  0  0  0  0
 44 45  1  0  0  0  0
 45 46  1  0  0  0  0
 46 47  2  0  0  0  0
 47 48  1  0  0  0  0
 48 49  2  0  0  0  0
 49 50  1  0  0  0  0
 49 51  1  0  0  0  0
 51 52  2  0  0  0  0
 45 53  1  0  0  0  0
 53 54  2  0  0  0  0
 54 55  1  0  0  0  0
 55 56  2  0  0  0  0
 56 57  1  0  0  0  0
 56 58  1  0  0  0  0
 58 59  2  0  0  0  0
 44 60  1  0  0  0  0
 60 61  1  0  0  0  0
 43 62  1  0  0  0  0
 62 63  2  0  0  0  0
 63 64  1  0  0  0  0
 64 65  1  0  0  0  0
 63 66  1  0  0  0  0
 66 67  1  0  0  0  0
 67 68  1  0  0  0  0
 68 69  1  0  0  0  0
 69 70  2  0  0  0  0
 70 71  1  0  0  0  0
 71 72  1  0  0  0  0
 72 73  1  0  0  0  0
 73 74  1  0  0  0  0
 71 75  1  0  0  0  0
 75 76  2  0  0  0  0
 76 77  1  0  0  0  0
 77 78  2  0  0  0  0
 78 79  1  0  0  0  0
 79 80  1  0  0  0  0
 78 81  1  0  0  0  0
 81 82  2  0  0  0  0
 71 83  1  0  0  0  0
 83 84  2  0  0  0  0
 84 85  1  0  0  0  0
 85 86  2  0  0  0  0
 86 87  1  0  0  0  0
 87 88  1  0  0  0  0
 86 89  1  0  0  0  0
 89 90  2  0  0  0  0
 70 91  1  0  0  0  0
 91 92  1  0  0  0  0
 92 93  1  0  0  0  0
 93 94  1  0  0  0  0
 94 95  2  0  0  0  0
 95 96  1  0  0  0  0
 96 97  1  0  0  0  0
 97 98  2  0  0  0  0
 98 99  1  0  0  0  0
 99100  2  0  0  0  0
100101  1  0  0  0  0
101102  1  0  0  0  0
100103  1  0  0  0  0
103104  2  0  0  0  0
 96105  1  0  0  0  0
105106  2  0  0  0  0
106107  1  0  0  0  0
107108  2  0  0  0  0
108109  1  0  0  0  0
109110  1  0  0  0  0
108111  1  0  0  0  0
111112  2  0  0  0  0
 96113  1  0  0  0  0
113114  1  0  0  0  0
114115  1  0  0  0  0
 95116  1  0  0  0  0
116117  2  0  0  0  0
117118  1  0  0  0  0
117119  1  0  0  0  0
119120  1  0  0  0  0
120121  1  0  0  0  0
119122  2  0  0  0  0
122123  1  0  0  0  0
122124  1  0  0  0  0
124125  2  0  0  0  0
125126  1  0  0  0  0
126127  2  0  0  0  0
127128  1  0  0  0  0
127129  1  0  0  0  0
129130  2  0  0  0  0
130131  1  0  0  0  0
131132  2  0  0  0  0
131133  1  0  0  0  0
133134  2  0  0  0  0
134135  1  0  0  0  0
135136  2  0  0  0  0
136137  1  0  0  0  0
137138  2  0  0  0  0
138139  1  0  0  0  0
139140  2  0  0  0  0
140141  1  0  0  0  0
141142  3  0  0  0  0
140143  1  0  0  0  0
143144  3  0  0  0  0
136145  1  0  0  0  0
145146  1  0  0  0  0
146147  1  0  0  0  0
147148  2  0  0  0  0
148149  1  0  0  0  0
149150  1  0  0  0  0
149151  1  0  0  0  0
 11  2  1  0  0  0  0
 23 17  1  0  0  0  0
 61 24  1  0  0  0  0
 74 62  1  0  0  0  0
 82 75  1  0  0  0  0
 90 83  1  0  0  0  0
114 91  2  0  0  0  0
123116  1  0  0  0  0
128124  1  0  0  0  0
139130  1  0  0  0  0
151145  1  0  0  0  0
 10  5  1  0  0  0  0
 22 18  1  0  0  0  0
 33 27  1  0  0  0  0
 40 34  1  0  0  0  0
 60 41  2  0  0  0  0
 73 66  2  0  0  0  0
113 93  2  0  0  0  0
138133  1  0  0  0  0
150146  1  0  0  0  0
 23  7  1  0  0  0  0
 52 46  1  0  0  0  0
 59 53  1  0  0  0  0
 72 68  2  0  0  0  0
118 94  1  0  0  0  0
151135  1  0  0  0  0
115 69  1  0  0  0  0
104 97  1  0  0  0  0
112105  1  0  0  0  0
  1152  1  0  0  0  0
  6153  1  0  0  0  0
  9154  1  0  0  0  0
 17155  1  0  0  0  0
 18156  1  0  0  0  0
 19157  1  0  0  0  0
 20158  1  0  0  0  0
 21159  1  0  0  0  0
 22160  1  0  0  0  0
 22161  1  0  0  0  0
 23162  1  0  0  0  0
 28163  1  0  0  0  0
 29164  1  0  0  0  0
 31165  1  0  0  0  0
 31166  1  0  0  0  0
 31167  1  0  0  0  0
 32168  1  0  0  0  0
 33169  1  0  0  0  0
 35170  1  0  0  0  0
 36171  1  0  0  0  0
 38172  1  0  0  0  0
 38173  1  0  0  0  0
 38174  1  0  0  0  0
 39175  1  0  0  0  0
 40176  1  0  0  0  0
 47177  1  0  0  0  0
 48178  1  0  0  0  0
 50179  1  0  0  0  0
 50180  1  0  0  0  0
 50181  1  0  0  0  0
 51182  1  0  0  0  0
 52183  1  0  0  0  0
 54184  1  0  0  0  0
 55185  1  0  0  0  0
 57186  1  0  0  0  0
 57187  1  0  0  0  0
 57188  1  0  0  0  0
 58189  1  0  0  0  0
 59190  1  0  0  0  0
 64191  1  0  0  0  0
 64192  1  0  0  0  0
 65193  1  0  0  0  0
 65194  1  0  0  0  0
 65195  1  0  0  0  0
 76196  1  0  0  0  0
 77197  1  0  0  0  0
 79198  1  0  0  0  0
 79199  1  0  0  0  0
 80200  1  0  0  0  0
 80201  1  0  0  0  0
 80202  1  0  0  0  0
 81203  1  0  0  0  0
 82204  1  0  0  0  0
 84205  1  0  0  0  0
 85206  1  0  0  0  0
 87207  1  0  0  0  0
 87208  1  0  0  0  0
 88209  1  0  0  0  0
 88210  1  0  0  0  0
 88211  1  0  0  0  0
 89212  1  0  0  0  0
 90213  1  0  0  0  0
 98214  1  0  0  0  0
 99215  1  0  0  0  0
101216  1  0  0  0  0
101217  1  0  0  0  0
102218  1  0  0  0  0
102219  1  0  0  0  0
102220  1  0  0  0  0
103221  1  0  0  0  0
104222  1  0  0  0  0
106223  1  0  0  0  0
107224  1  0  0  0  0
109225  1  0  0  0  0
109226  1  0  0  0  0
110227  1  0  0  0  0
110228  1  0  0  0  0
110229  1  0  0  0  0
111230  1  0  0  0  0
112231  1  0  0  0  0
120232  1  0  0  0  0
120233  1  0  0  0  0
121234  1  0  0  0  0
121235  1  0  0  0  0
121236  1  0  0  0  0
129237  1  0  0  0  0
134238  1  0  0  0  0
137239  1  0  0  0  0
145240  1  0  0  0  0
146241  1  0  0  0  0
147242  1  0  0  0  0
148243  1  0  0  0  0
149244  1  0  0  0  0
150245  1  0  0  0  0
150246  1  0  0  0  0
151247  1  0  0  0  0
M  END
