
  xtb     02202206573D
 energy: -449.765407248662 gnorm: 0.000226825488 xtb: 6.4.1 (unknown)
284315  0     0  0            999 V2000
    9.6738    6.0208    0.5708 C   0  0  0  0  0  0  0  0  0  0  0  0
   10.7330    6.8435    0.2510 C   0  0  0  0  0  0  0  0  0  0  0  0
   11.5847    6.7416   -0.9331 C   0  0  0  0  0  0  0  0  0  0  0  0
   11.4862    5.9597   -1.8655 O   0  0  0  0  0  0  0  0  0  0  0  0
   12.6278    7.7739   -0.7822 C   0  0  0  0  0  0  0  0  0  0  0  0
   13.6605    8.0610   -1.6710 C   0  0  0  0  0  0  0  0  0  0  0  0
   14.4767    9.0902   -1.2658 C   0  0  0  0  0  0  0  0  0  0  0  0
   14.2839    9.7765   -0.0609 C   0  0  0  0  0  0  0  0  0  0  0  0
   13.2711    9.4994    0.8272 C   0  0  0  0  0  0  0  0  0  0  0  0
   12.4247    8.4608    0.4304 C   0  0  0  0  0  0  0  0  0  0  0  0
   11.2334    7.9110    1.0804 C   0  0  0  0  0  0  0  0  0  0  0  0
   10.6897    8.3777    2.2549 C   0  0  0  0  0  0  0  0  0  0  0  0
    9.4676    7.9651    2.8178 C   0  0  0  0  0  0  0  0  0  0  0  0
    8.4663    7.7261    3.3314 N   0  0  0  0  0  0  0  0  0  0  0  0
   11.2662    9.3792    3.0599 C   0  0  0  0  0  0  0  0  0  0  0  0
   11.6803   10.1744    3.7790 N   0  0  0  0  0  0  0  0  0  0  0  0
   15.4598   10.6911   -0.2998 C   0  0  0  0  0  0  0  0  0  0  0  0
   15.1313   12.1244   -0.7682 C   0  0  0  0  0  0  0  0  0  0  0  0
   16.4272   12.6138   -1.3729 C   0  0  0  0  0  0  0  0  0  0  0  0
   16.6093   11.9651   -2.5160 C   0  0  0  0  0  0  0  0  0  0  0  0
   15.4393   11.0264   -2.7029 C   0  0  0  0  0  0  0  0  0  0  0  0
   14.3280   11.8564   -2.0475 C   0  0  0  0  0  0  0  0  0  0  0  0
   15.6740    9.9268   -1.6455 C   0  0  0  0  0  0  0  0  0  0  0  0
    9.0643    5.0077   -0.1618 C   0  0  0  0  0  0  0  0  0  0  0  0
    7.9299    4.2939    0.3080 C   0  0  0  0  0  0  0  0  0  0  0  0
    7.4656    4.2982    1.5951 N   0  0  0  0  0  0  0  0  0  0  0  0
    8.3291    4.3445    2.7064 C   0  0  0  0  0  0  0  0  0  0  0  0
    7.9229    4.9900    3.8716 C   0  0  0  0  0  0  0  0  0  0  0  0
    8.7642    5.0326    4.9651 C   0  0  0  0  0  0  0  0  0  0  0  0
   10.0241    4.4467    4.9271 C   0  0  0  0  0  0  0  0  0  0  0  0
   10.9366    4.5362    6.1113 C   0  0  0  0  0  0  0  0  0  0  0  0
   10.4119    3.7894    3.7655 C   0  0  0  0  0  0  0  0  0  0  0  0
    9.5766    3.7270    2.6682 C   0  0  0  0  0  0  0  0  0  0  0  0
    6.0939    4.0701    1.8208 C   0  0  0  0  0  0  0  0  0  0  0  0
    5.1417    4.7632    1.0778 C   0  0  0  0  0  0  0  0  0  0  0  0
    3.7983    4.5260    1.2841 C   0  0  0  0  0  0  0  0  0  0  0  0
    3.3701    3.6034    2.2324 C   0  0  0  0  0  0  0  0  0  0  0  0
    1.9077    3.3613    2.4457 C   0  0  0  0  0  0  0  0  0  0  0  0
    4.3280    2.9297    2.9794 C   0  0  0  0  0  0  0  0  0  0  0  0
    5.6760    3.1546    2.7807 C   0  0  0  0  0  0  0  0  0  0  0  0
    7.3432    3.5559   -0.7315 C   0  0  0  0  0  0  0  0  0  0  0  0
    5.9505    2.5348   -0.8478 S   0  0  0  0  0  0  0  0  0  0  0  0
    6.3242    2.1750   -2.5346 C   0  0  0  0  0  0  0  0  0  0  0  0
    7.5130    2.7622   -2.9433 C   0  0  0  0  0  0  0  0  0  0  0  0
    8.1615    2.5625   -4.1520 N   0  0  0  0  0  0  0  0  0  0  0  0
    8.9536    3.6344   -4.6185 C   0  0  0  0  0  0  0  0  0  0  0  0
    8.3985    4.9084   -4.6949 C   0  0  0  0  0  0  0  0  0  0  0  0
    9.1806    5.9847   -5.0634 C   0  0  0  0  0  0  0  0  0  0  0  0
   10.5249    5.8187   -5.3696 C   0  0  0  0  0  0  0  0  0  0  0  0
   11.3844    7.0006   -5.6942 C   0  0  0  0  0  0  0  0  0  0  0  0
   11.0611    4.5378   -5.3234 C   0  0  0  0  0  0  0  0  0  0  0  0
   10.2917    3.4542   -4.9515 C   0  0  0  0  0  0  0  0  0  0  0  0
    8.2557    1.3014   -4.7480 C   0  0  0  0  0  0  0  0  0  0  0  0
    8.0738    0.1274   -4.0206 C   0  0  0  0  0  0  0  0  0  0  0  0
    8.1461   -1.1003   -4.6480 C   0  0  0  0  0  0  0  0  0  0  0  0
    8.4189   -1.2031   -6.0061 C   0  0  0  0  0  0  0  0  0  0  0  0
    8.4676   -2.5382   -6.6844 C   0  0  0  0  0  0  0  0  0  0  0  0
    8.6255   -0.0297   -6.7210 C   0  0  0  0  0  0  0  0  0  0  0  0
    8.5394    1.2048   -6.1097 C   0  0  0  0  0  0  0  0  0  0  0  0
    8.0533    3.5889   -1.9245 C   0  0  0  0  0  0  0  0  0  0  0  0
    9.4618    4.5867   -1.8307 S   0  0  0  0  0  0  0  0  0  0  0  0
    5.3768    1.3319   -3.1970 C   0  0  0  0  0  0  0  0  0  0  0  0
    4.8569    1.3395   -4.4749 C   0  0  0  0  0  0  0  0  0  0  0  0
    5.2030    2.3278   -5.5448 C   0  0  0  0  0  0  0  0  0  0  0  0
    5.3505    1.6902   -6.9235 C   0  0  0  0  0  0  0  0  0  0  0  0
    3.8089    0.4015   -4.6014 C   0  0  0  0  0  0  0  0  0  0  0  0
    2.7100    0.0041   -5.9072 S   0  0  0  0  0  0  0  0  0  0  0  0
    1.8241   -1.0275   -4.8377 C   0  0  0  0  0  0  0  0  0  0  0  0
    0.6032   -1.7241   -4.8021 C   0  0  0  0  0  0  0  0  0  0  0  0
   -0.4219   -1.8314   -5.7745 C   0  0  0  0  0  0  0  0  0  0  0  0
   -0.2203   -1.4823   -7.0430 N   0  0  0  0  0  0  0  0  0  0  0  0
   -1.2417   -1.5089   -7.8829 C   0  0  0  0  0  0  0  0  0  0  0  0
   -0.9044   -1.3124   -9.2713 C   0  0  0  0  0  0  0  0  0  0  0  0
   -1.4627   -1.8455  -10.4016 C   0  0  0  0  0  0  0  0  0  0  0  0
   -0.7695   -1.4909  -11.5724 C   0  0  0  0  0  0  0  0  0  0  0  0
    0.3127   -0.6940  -11.3405 C   0  0  0  0  0  0  0  0  0  0  0  0
    1.2820   -0.1468  -12.3314 C   0  0  0  0  0  0  0  0  0  0  0  0
    2.6435   -0.8349  -12.2140 C   0  0  0  0  0  0  0  0  0  0  0  0
    0.5130   -0.3844   -9.6490 S   0  0  0  0  0  0  0  0  0  0  0  0
   -2.5630   -1.7595   -7.4023 C   0  0  0  0  0  0  0  0  0  0  0  0
   -3.7775   -1.5128   -8.1461 C   0  0  0  0  0  0  0  0  0  0  0  0
   -4.9897   -2.1043   -7.9127 C   0  0  0  0  0  0  0  0  0  0  0  0
   -6.0190   -1.5971   -8.7262 C   0  0  0  0  0  0  0  0  0  0  0  0
   -5.6066   -0.6049   -9.5639 C   0  0  0  0  0  0  0  0  0  0  0  0
   -6.4169    0.1906  -10.5285 C   0  0  0  0  0  0  0  0  0  0  0  0
   -6.6426    1.6158  -10.0195 C   0  0  0  0  0  0  0  0  0  0  0  0
   -3.9139   -0.2838   -9.3677 S   0  0  0  0  0  0  0  0  0  0  0  0
   -2.7462   -2.2053   -6.1698 N   0  0  0  0  0  0  0  0  0  0  0  0
   -1.6939   -2.3083   -5.3598 C   0  0  0  0  0  0  0  0  0  0  0  0
   -1.8219   -2.8242   -4.0469 C   0  0  0  0  0  0  0  0  0  0  0  0
   -2.9431   -3.3169   -3.3525 C   0  0  0  0  0  0  0  0  0  0  0  0
   -4.6511   -3.4902   -3.5758 S   0  0  0  0  0  0  0  0  0  0  0  0
   -4.7931   -4.0359   -1.9192 C   0  0  0  0  0  0  0  0  0  0  0  0
   -5.9026   -4.3346   -1.1102 C   0  0  0  0  0  0  0  0  0  0  0  0
   -7.3052   -4.3320   -1.6321 C   0  0  0  0  0  0  0  0  0  0  0  0
   -7.8945   -5.7410   -1.6718 C   0  0  0  0  0  0  0  0  0  0  0  0
   -5.5121   -4.6573    0.1737 C   0  0  0  0  0  0  0  0  0  0  0  0
   -3.7597   -4.5856    0.3803 S   0  0  0  0  0  0  0  0  0  0  0  0
   -3.5636   -4.1139   -1.2646 C   0  0  0  0  0  0  0  0  0  0  0  0
   -2.5074   -3.7034   -2.0842 C   0  0  0  0  0  0  0  0  0  0  0  0
   -1.1578   -3.4822   -1.9586 N   0  0  0  0  0  0  0  0  0  0  0  0
   -0.3788   -4.2867   -1.0421 C   0  0  0  0  0  0  0  0  0  0  0  0
   -0.6094   -5.7800   -1.2748 C   0  0  0  0  0  0  0  0  0  0  0  0
   -0.7321   -2.8930   -3.1390 C   0  0  0  0  0  0  0  0  0  0  0  0
    0.4611   -2.2204   -3.4777 C   0  0  0  0  0  0  0  0  0  0  0  0
    1.5556   -1.8259   -2.7329 N   0  0  0  0  0  0  0  0  0  0  0  0
    2.3712   -1.0933   -3.5553 C   0  0  0  0  0  0  0  0  0  0  0  0
    3.5068   -0.2861   -3.4251 C   0  0  0  0  0  0  0  0  0  0  0  0
    4.5692    0.1677   -2.1468 S   0  0  0  0  0  0  0  0  0  0  0  0
    1.7369   -1.7742   -1.3003 C   0  0  0  0  0  0  0  0  0  0  0  0
    2.8676   -2.6904   -0.8344 C   0  0  0  0  0  0  0  0  0  0  0  0
   -6.3029   -4.8766    1.3401 C   0  0  0  0  0  0  0  0  0  0  0  0
   -5.9460   -5.5966    2.4746 C   0  0  0  0  0  0  0  0  0  0  0  0
   -4.8491   -6.4372    2.5776 N   0  0  0  0  0  0  0  0  0  0  0  0
   -4.1751   -6.4990    3.8086 C   0  0  0  0  0  0  0  0  0  0  0  0
   -3.7636   -7.7196    4.3361 C   0  0  0  0  0  0  0  0  0  0  0  0
   -3.1200   -7.7637    5.5560 C   0  0  0  0  0  0  0  0  0  0  0  0
   -2.8775   -6.6045    6.2844 C   0  0  0  0  0  0  0  0  0  0  0  0
   -2.2114   -6.6680    7.6246 C   0  0  0  0  0  0  0  0  0  0  0  0
   -3.2909   -5.3910    5.7497 C   0  0  0  0  0  0  0  0  0  0  0  0
   -3.9272   -5.3319    4.5258 C   0  0  0  0  0  0  0  0  0  0  0  0
   -4.4742   -7.2677    1.5162 C   0  0  0  0  0  0  0  0  0  0  0  0
   -5.4201   -7.7534    0.6160 C   0  0  0  0  0  0  0  0  0  0  0  0
   -5.0281   -8.5220   -0.4603 C   0  0  0  0  0  0  0  0  0  0  0  0
   -3.6914   -8.8449   -0.6661 C   0  0  0  0  0  0  0  0  0  0  0  0
   -3.2786   -9.6566   -1.8557 C   0  0  0  0  0  0  0  0  0  0  0  0
   -2.7570   -8.3819    0.2511 C   0  0  0  0  0  0  0  0  0  0  0  0
   -3.1342   -7.5993    1.3244 C   0  0  0  0  0  0  0  0  0  0  0  0
   -6.8683   -5.3827    3.5245 C   0  0  0  0  0  0  0  0  0  0  0  0
   -6.9885   -5.9680    5.1416 S   0  0  0  0  0  0  0  0  0  0  0  0
   -8.4298   -4.9746    5.4180 C   0  0  0  0  0  0  0  0  0  0  0  0
   -8.8543   -4.3231    4.2394 C   0  0  0  0  0  0  0  0  0  0  0  0
  -10.0317   -3.6611    4.0523 N   0  0  0  0  0  0  0  0  0  0  0  0
  -10.1377   -2.7140    3.0088 C   0  0  0  0  0  0  0  0  0  0  0  0
   -9.1767   -1.7196    2.8544 C   0  0  0  0  0  0  0  0  0  0  0  0
   -9.2897   -0.8114    1.8213 C   0  0  0  0  0  0  0  0  0  0  0  0
  -10.3542   -0.8682    0.9276 C   0  0  0  0  0  0  0  0  0  0  0  0
  -10.4437    0.1084   -0.2044 C   0  0  0  0  0  0  0  0  0  0  0  0
  -11.3188   -1.8515    1.1072 C   0  0  0  0  0  0  0  0  0  0  0  0
  -11.2184   -2.7681    2.1365 C   0  0  0  0  0  0  0  0  0  0  0  0
  -11.1663   -3.8763    4.8477 C   0  0  0  0  0  0  0  0  0  0  0  0
  -11.9487   -2.7924    5.2395 C   0  0  0  0  0  0  0  0  0  0  0  0
  -13.0439   -2.9852    6.0607 C   0  0  0  0  0  0  0  0  0  0  0  0
  -13.3944   -4.2534    6.5030 C   0  0  0  0  0  0  0  0  0  0  0  0
  -14.5461   -4.4617    7.4353 C   0  0  0  0  0  0  0  0  0  0  0  0
  -12.6354   -5.3369    6.0659 C   0  0  0  0  0  0  0  0  0  0  0  0
  -11.5373   -5.1579    5.2517 C   0  0  0  0  0  0  0  0  0  0  0  0
   -7.9235   -4.5416    3.1989 C   0  0  0  0  0  0  0  0  0  0  0  0
   -7.8260   -4.0243    1.5488 S   0  0  0  0  0  0  0  0  0  0  0  0
   -8.9472   -4.9600    6.7144 C   0  0  0  0  0  0  0  0  0  0  0  0
   -9.7014   -3.9449    7.2659 C   0  0  0  0  0  0  0  0  0  0  0  0
   -9.6258   -2.5431    6.8293 C   0  0  0  0  0  0  0  0  0  0  0  0
   -8.9555   -2.0840    5.9217 O   0  0  0  0  0  0  0  0  0  0  0  0
  -10.4232   -1.7741    7.8081 C   0  0  0  0  0  0  0  0  0  0  0  0
  -10.6313   -0.3992    7.8249 C   0  0  0  0  0  0  0  0  0  0  0  0
  -11.4198    0.0351    8.8644 C   0  0  0  0  0  0  0  0  0  0  0  0
  -11.9541   -0.8339    9.8225 C   0  0  0  0  0  0  0  0  0  0  0  0
  -11.7536   -2.1949    9.8175 C   0  0  0  0  0  0  0  0  0  0  0  0
  -10.9602   -2.6553    8.7657 C   0  0  0  0  0  0  0  0  0  0  0  0
  -10.5432   -4.0147    8.4247 C   0  0  0  0  0  0  0  0  0  0  0  0
  -11.0051   -5.1710    9.0077 C   0  0  0  0  0  0  0  0  0  0  0  0
  -10.6792   -6.4634    8.5533 C   0  0  0  0  0  0  0  0  0  0  0  0
  -10.4819   -7.5452    8.2193 N   0  0  0  0  0  0  0  0  0  0  0  0
  -11.9224   -5.2141   10.0720 C   0  0  0  0  0  0  0  0  0  0  0  0
  -12.6826   -5.3163   10.9285 N   0  0  0  0  0  0  0  0  0  0  0  0
  -12.6199    0.2858   10.5839 C   0  0  0  0  0  0  0  0  0  0  0  0
  -11.9472    0.7696   11.8923 C   0  0  0  0  0  0  0  0  0  0  0  0
  -10.4762    0.4645   11.7575 C   0  0  0  0  0  0  0  0  0  0  0  0
   -9.9735    1.2880   10.8475 C   0  0  0  0  0  0  0  0  0  0  0  0
  -11.0960    2.1649   10.3506 C   0  0  0  0  0  0  0  0  0  0  0  0
  -11.9340    2.2847   11.6334 C   0  0  0  0  0  0  0  0  0  0  0  0
  -12.0275    1.2548    9.5126 C   0  0  0  0  0  0  0  0  0  0  0  0
    9.2170    6.1996    1.5357 H   0  0  0  0  0  0  0  0  0  0  0  0
   13.7757    7.5012   -2.5863 H   0  0  0  0  0  0  0  0  0  0  0  0
   13.1396   10.0364    1.7515 H   0  0  0  0  0  0  0  0  0  0  0  0
   16.2486   10.6582    0.4494 H   0  0  0  0  0  0  0  0  0  0  0  0
   14.6737   12.7565   -0.0121 H   0  0  0  0  0  0  0  0  0  0  0  0
   17.0844   13.3167   -0.8953 H   0  0  0  0  0  0  0  0  0  0  0  0
   17.4492   12.0178   -3.1839 H   0  0  0  0  0  0  0  0  0  0  0  0
   15.2627   10.6597   -3.7107 H   0  0  0  0  0  0  0  0  0  0  0  0
   14.1163   12.7706   -2.5999 H   0  0  0  0  0  0  0  0  0  0  0  0
   13.4025   11.3077   -1.8829 H   0  0  0  0  0  0  0  0  0  0  0  0
   16.6068    9.3855   -1.7937 H   0  0  0  0  0  0  0  0  0  0  0  0
    6.9558    5.4657    3.9094 H   0  0  0  0  0  0  0  0  0  0  0  0
    8.4432    5.5472    5.8581 H   0  0  0  0  0  0  0  0  0  0  0  0
   11.2635    5.5663    6.2533 H   0  0  0  0  0  0  0  0  0  0  0  0
   10.4200    4.2253    7.0178 H   0  0  0  0  0  0  0  0  0  0  0  0
   11.8158    3.9113    5.9760 H   0  0  0  0  0  0  0  0  0  0  0  0
   11.3797    3.3109    3.7190 H   0  0  0  0  0  0  0  0  0  0  0  0
    9.8902    3.2042    1.7765 H   0  0  0  0  0  0  0  0  0  0  0  0
    5.4640    5.4882    0.3448 H   0  0  0  0  0  0  0  0  0  0  0  0
    3.0674    5.0675    0.7014 H   0  0  0  0  0  0  0  0  0  0  0  0
    1.7443    2.4894    3.0738 H   0  0  0  0  0  0  0  0  0  0  0  0
    1.4508    4.2242    2.9304 H   0  0  0  0  0  0  0  0  0  0  0  0
    1.4025    3.2092    1.4936 H   0  0  0  0  0  0  0  0  0  0  0  0
    4.0168    2.2101    3.7228 H   0  0  0  0  0  0  0  0  0  0  0  0
    6.4115    2.6166    3.3602 H   0  0  0  0  0  0  0  0  0  0  0  0
    7.3569    5.0513   -4.4428 H   0  0  0  0  0  0  0  0  0  0  0  0
    8.7415    6.9712   -5.1027 H   0  0  0  0  0  0  0  0  0  0  0  0
   11.7661    7.4294   -4.7671 H   0  0  0  0  0  0  0  0  0  0  0  0
   12.2329    6.7115   -6.3097 H   0  0  0  0  0  0  0  0  0  0  0  0
   10.8147    7.7697   -6.2115 H   0  0  0  0  0  0  0  0  0  0  0  0
   12.1046    4.3885   -5.5591 H   0  0  0  0  0  0  0  0  0  0  0  0
   10.7264    2.4671   -4.8946 H   0  0  0  0  0  0  0  0  0  0  0  0
    7.8934    0.1711   -2.9575 H   0  0  0  0  0  0  0  0  0  0  0  0
    7.9966   -1.9982   -4.0654 H   0  0  0  0  0  0  0  0  0  0  0  0
    8.8106   -3.3097   -5.9985 H   0  0  0  0  0  0  0  0  0  0  0  0
    9.1303   -2.5113   -7.5462 H   0  0  0  0  0  0  0  0  0  0  0  0
    7.4720   -2.8161   -7.0332 H   0  0  0  0  0  0  0  0  0  0  0  0
    8.8448   -0.0807   -7.7780 H   0  0  0  0  0  0  0  0  0  0  0  0
    8.6862    2.1049   -6.6877 H   0  0  0  0  0  0  0  0  0  0  0  0
    6.1195    2.8497   -5.2787 H   0  0  0  0  0  0  0  0  0  0  0  0
    4.3990    3.0710   -5.5842 H   0  0  0  0  0  0  0  0  0  0  0  0
    4.3937    1.3285   -7.2898 H   0  0  0  0  0  0  0  0  0  0  0  0
    6.0464    0.8565   -6.8838 H   0  0  0  0  0  0  0  0  0  0  0  0
    5.7303    2.4260   -7.6282 H   0  0  0  0  0  0  0  0  0  0  0  0
   -2.3235   -2.4904  -10.3906 H   0  0  0  0  0  0  0  0  0  0  0  0
   -1.0655   -1.8133  -12.5554 H   0  0  0  0  0  0  0  0  0  0  0  0
    1.4097    0.9256  -12.1650 H   0  0  0  0  0  0  0  0  0  0  0  0
    0.8800   -0.2925  -13.3363 H   0  0  0  0  0  0  0  0  0  0  0  0
    3.0530   -0.6855  -11.2178 H   0  0  0  0  0  0  0  0  0  0  0  0
    3.3384   -0.4257  -12.9433 H   0  0  0  0  0  0  0  0  0  0  0  0
    2.5431   -1.9035  -12.3898 H   0  0  0  0  0  0  0  0  0  0  0  0
   -5.1145   -2.8804   -7.1802 H   0  0  0  0  0  0  0  0  0  0  0  0
   -7.0334   -1.9541   -8.6927 H   0  0  0  0  0  0  0  0  0  0  0  0
   -5.9043    0.2331  -11.4927 H   0  0  0  0  0  0  0  0  0  0  0  0
   -7.3791   -0.3057  -10.6724 H   0  0  0  0  0  0  0  0  0  0  0  0
   -5.6890    2.1213   -9.8861 H   0  0  0  0  0  0  0  0  0  0  0  0
   -7.1606    1.5976   -9.0633 H   0  0  0  0  0  0  0  0  0  0  0  0
   -7.2410    2.1807  -10.7300 H   0  0  0  0  0  0  0  0  0  0  0  0
   -7.2859   -3.9163   -2.6416 H   0  0  0  0  0  0  0  0  0  0  0  0
   -7.9349   -3.6902   -1.0120 H   0  0  0  0  0  0  0  0  0  0  0  0
   -7.2591   -6.3991   -2.2600 H   0  0  0  0  0  0  0  0  0  0  0  0
   -7.9781   -6.1476   -0.6674 H   0  0  0  0  0  0  0  0  0  0  0  0
   -8.8852   -5.7198   -2.1186 H   0  0  0  0  0  0  0  0  0  0  0  0
   -0.6599   -4.0282   -0.0153 H   0  0  0  0  0  0  0  0  0  0  0  0
    0.6743   -4.0737   -1.1989 H   0  0  0  0  0  0  0  0  0  0  0  0
   -0.3865   -6.0380   -2.3081 H   0  0  0  0  0  0  0  0  0  0  0  0
    0.0449   -6.3518   -0.6220 H   0  0  0  0  0  0  0  0  0  0  0  0
   -1.6371   -6.0585   -1.0583 H   0  0  0  0  0  0  0  0  0  0  0  0
    1.9977   -0.7431   -1.0347 H   0  0  0  0  0  0  0  0  0  0  0  0
    0.7927   -2.0142   -0.8117 H   0  0  0  0  0  0  0  0  0  0  0  0
    3.8157   -2.3392   -1.2326 H   0  0  0  0  0  0  0  0  0  0  0  0
    2.9249   -2.6813    0.2503 H   0  0  0  0  0  0  0  0  0  0  0  0
    2.7187   -3.7143   -1.1705 H   0  0  0  0  0  0  0  0  0  0  0  0
   -3.9577   -8.6295    3.7876 H   0  0  0  0  0  0  0  0  0  0  0  0
   -2.8103   -8.7181    5.9567 H   0  0  0  0  0  0  0  0  0  0  0  0
   -2.9577   -6.8367    8.4017 H   0  0  0  0  0  0  0  0  0  0  0  0
   -1.4956   -7.4859    7.6645 H   0  0  0  0  0  0  0  0  0  0  0  0
   -1.6974   -5.7361    7.8483 H   0  0  0  0  0  0  0  0  0  0  0  0
   -3.1091   -4.4771    6.2966 H   0  0  0  0  0  0  0  0  0  0  0  0
   -4.2337   -4.3801    4.1163 H   0  0  0  0  0  0  0  0  0  0  0  0
   -6.4655   -7.5292    0.7659 H   0  0  0  0  0  0  0  0  0  0  0  0
   -5.7755   -8.8849   -1.1512 H   0  0  0  0  0  0  0  0  0  0  0  0
   -3.9368  -10.5138   -1.9843 H   0  0  0  0  0  0  0  0  0  0  0  0
   -2.2565  -10.0114   -1.7490 H   0  0  0  0  0  0  0  0  0  0  0  0
   -3.3384   -9.0524   -2.7616 H   0  0  0  0  0  0  0  0  0  0  0  0
   -1.7129   -8.6269    0.1180 H   0  0  0  0  0  0  0  0  0  0  0  0
   -2.3915   -7.2270    2.0139 H   0  0  0  0  0  0  0  0  0  0  0  0
   -8.3680   -1.6577    3.5655 H   0  0  0  0  0  0  0  0  0  0  0  0
   -8.5414   -0.0407    1.7068 H   0  0  0  0  0  0  0  0  0  0  0  0
  -10.2581    1.1218    0.1465 H   0  0  0  0  0  0  0  0  0  0  0  0
  -11.4227    0.0727   -0.6751 H   0  0  0  0  0  0  0  0  0  0  0  0
   -9.6914   -0.1249   -0.9580 H   0  0  0  0  0  0  0  0  0  0  0  0
  -12.1587   -1.9067    0.4297 H   0  0  0  0  0  0  0  0  0  0  0  0
  -11.9716   -3.5315    2.2665 H   0  0  0  0  0  0  0  0  0  0  0  0
  -11.6831   -1.7996    4.9086 H   0  0  0  0  0  0  0  0  0  0  0  0
  -13.6247   -2.1299    6.3743 H   0  0  0  0  0  0  0  0  0  0  0  0
  -14.1816   -4.6865    8.4384 H   0  0  0  0  0  0  0  0  0  0  0  0
  -15.1680   -3.5720    7.4914 H   0  0  0  0  0  0  0  0  0  0  0  0
  -15.1565   -5.3024    7.1115 H   0  0  0  0  0  0  0  0  0  0  0  0
  -12.9051   -6.3355    6.3772 H   0  0  0  0  0  0  0  0  0  0  0  0
  -10.9601   -6.0122    4.9311 H   0  0  0  0  0  0  0  0  0  0  0  0
   -8.6768   -5.8032    7.3389 H   0  0  0  0  0  0  0  0  0  0  0  0
  -10.1987    0.2378    7.0689 H   0  0  0  0  0  0  0  0  0  0  0  0
  -12.1633   -2.8523   10.5665 H   0  0  0  0  0  0  0  0  0  0  0  0
  -13.7030    0.2256   10.6737 H   0  0  0  0  0  0  0  0  0  0  0  0
  -12.4280    0.4212   12.8025 H   0  0  0  0  0  0  0  0  0  0  0  0
   -9.9799   -0.3334   12.2783 H   0  0  0  0  0  0  0  0  0  0  0  0
   -8.9734    1.3153   10.4560 H   0  0  0  0  0  0  0  0  0  0  0  0
  -10.8018    3.0878    9.8570 H   0  0  0  0  0  0  0  0  0  0  0  0
  -11.4254    2.8423   12.4187 H   0  0  0  0  0  0  0  0  0  0  0  0
  -12.9250    2.7051   11.4667 H   0  0  0  0  0  0  0  0  0  0  0  0
  -12.7249    1.8257    8.9019 H   0  0  0  0  0  0  0  0  0  0  0  0
  1  2  2  0  0  0  0
  2  3  1  0  0  0  0
  3  4  2  0  0  0  0
  3  5  1  0  0  0  0
  5  6  2  0  0  0  0
  6  7  1  0  0  0  0
  7  8  2  0  0  0  0
  8  9  1  0  0  0  0
  9 10  2  0  0  0  0
 10 11  1  0  0  0  0
 11 12  2  0  0  0  0
 12 13  1  0  0  0  0
 13 14  3  0  0  0  0
 12 15  1  0  0  0  0
 15 16  3  0  0  0  0
  8 17  1  0  0  0  0
 17 18  1  0  0  0  0
 18 19  1  0  0  0  0
 19 20  2  0  0  0  0
 20 21  1  0  0  0  0
 21 22  1  0  0  0  0
 21 23  1  0  0  0  0
  1 24  1  0  0  0  0
 24 25  2  0  0  0  0
 25 26  1  0  0  0  0
 26 27  1  0  0  0  0
 27 28  2  0  0  0  0
 28 29  1  0  0  0  0
 29 30  2  0  0  0  0
 30 31  1  0  0  0  0
 30 32  1  0  0  0  0
 32 33  2  0  0  0  0
 26 34  1  0  0  0  0
 34 35  2  0  0  0  0
 35 36  1  0  0  0  0
 36 37  2  0  0  0  0
 37 38  1  0  0  0  0
 37 39  1  0  0  0  0
 39 40  2  0  0  0  0
 25 41  1  0  0  0  0
 41 42  1  0  0  0  0
 42 43  1  0  0  0  0
 43 44  2  0  0  0  0
 44 45  1  0  0  0  0
 45 46  1  0  0  0  0
 46 47  2  0  0  0  0
 47 48  1  0  0  0  0
 48 49  2  0  0  0  0
 49 50  1  0  0  0  0
 49 51  1  0  0  0  0
 51 52  2  0  0  0  0
 45 53  1  0  0  0  0
 53 54  2  0  0  0  0
 54 55  1  0  0  0  0
 55 56  2  0  0  0  0
 56 57  1  0  0  0  0
 56 58  1  0  0  0  0
 58 59  2  0  0  0  0
 44 60  1  0  0  0  0
 60 61  1  0  0  0  0
 43 62  1  0  0  0  0
 62 63  2  0  0  0  0
 63 64  1  0  0  0  0
 64 65  1  0  0  0  0
 63 66  1  0  0  0  0
 66 67  1  0  0  0  0
 67 68  1  0  0  0  0
 68 69  1  0  0  0  0
 69 70  2  0  0  0  0
 70 71  1  0  0  0  0
 71 72  2  0  0  0  0
 72 73  1  0  0  0  0
 73 74  2  0  0  0  0
 74 75  1  0  0  0  0
 75 76  2  0  0  0  0
 76 77  1  0  0  0  0
 77 78  1  0  0  0  0
 76 79  1  0  0  0  0
 72 80  1  0  0  0  0
 80 81  1  0  0  0  0
 81 82  2  0  0  0  0
 82 83  1  0  0  0  0
 83 84  2  0  0  0  0
 84 85  1  0  0  0  0
 85 86  1  0  0  0  0
 84 87  1  0  0  0  0
 80 88  2  0  0  0  0
 88 89  1  0  0  0  0
 89 90  2  0  0  0  0
 90 91  1  0  0  0  0
 91 92  1  0  0  0  0
 92 93  1  0  0  0  0
 93 94  1  0  0  0  0
 94 95  1  0  0  0  0
 95 96  1  0  0  0  0
 94 97  2  0  0  0  0
 97 98  1  0  0  0  0
 98 99  1  0  0  0  0
 99100  1  0  0  0  0
100101  1  0  0  0  0
101102  1  0  0  0  0
102103  1  0  0  0  0
101104  1  0  0  0  0
104105  2  0  0  0  0
105106  1  0  0  0  0
106107  1  0  0  0  0
107108  1  0  0  0  0
108109  1  0  0  0  0
106110  1  0  0  0  0
110111  1  0  0  0  0
 97112  1  0  0  0  0
112113  2  0  0  0  0
113114  1  0  0  0  0
114115  1  0  0  0  0
115116  2  0  0  0  0
116117  1  0  0  0  0
117118  2  0  0  0  0
118119  1  0  0  0  0
118120  1  0  0  0  0
120121  2  0  0  0  0
114122  1  0  0  0  0
122123  2  0  0  0  0
123124  1  0  0  0  0
124125  2  0  0  0  0
125126  1  0  0  0  0
125127  1  0  0  0  0
127128  2  0  0  0  0
113129  1  0  0  0  0
129130  1  0  0  0  0
130131  1  0  0  0  0
131132  2  0  0  0  0
132133  1  0  0  0  0
133134  1  0  0  0  0
134135  2  0  0  0  0
135136  1  0  0  0  0
136137  2  0  0  0  0
137138  1  0  0  0  0
137139  1  0  0  0  0
139140  2  0  0  0  0
133141  1  0  0  0  0
141142  2  0  0  0  0
142143  1  0  0  0  0
143144  2  0  0  0  0
144145  1  0  0  0  0
144146  1  0  0  0  0
146147  2  0  0  0  0
132148  1  0  0  0  0
148149  1  0  0  0  0
131150  1  0  0  0  0
150151  2  0  0  0  0
151152  1  0  0  0  0
152153  2  0  0  0  0
152154  1  0  0  0  0
154155  2  0  0  0  0
155156  1  0  0  0  0
156157  2  0  0  0  0
157158  1  0  0  0  0
158159  2  0  0  0  0
159160  1  0  0  0  0
160161  2  0  0  0  0
161162  1  0  0  0  0
162163  3  0  0  0  0
161164  1  0  0  0  0
164165  3  0  0  0  0
157166  1  0  0  0  0
166167  1  0  0  0  0
167168  1  0  0  0  0
168169  2  0  0  0  0
169170  1  0  0  0  0
170171  1  0  0  0  0
170172  1  0  0  0  0
 11  2  1  0  0  0  0
 23 17  1  0  0  0  0
 61 24  1  0  0  0  0
109 62  1  0  0  0  0
149112  1  0  0  0  0
160151  1  0  0  0  0
172166  1  0  0  0  0
 10  5  1  0  0  0  0
 22 18  1  0  0  0  0
 33 27  1  0  0  0  0
 40 34  1  0  0  0  0
 60 41  2  0  0  0  0
108 66  2  0  0  0  0
121115  1  0  0  0  0
128122  1  0  0  0  0
148129  2  0  0  0  0
159154  1  0  0  0  0
171167  1  0  0  0  0
 23  7  1  0  0  0  0
 52 46  1  0  0  0  0
 59 53  1  0  0  0  0
107 68  2  0  0  0  0
140134  1  0  0  0  0
147141  1  0  0  0  0
172156  1  0  0  0  0
105 69  1  0  0  0  0
 89 70  1  0  0  0  0
104 90  1  0  0  0  0
 79 73  1  0  0  0  0
 87 81  1  0  0  0  0
100 91  2  0  0  0  0
 99 93  2  0  0  0  0
  1173  1  0  0  0  0
  6174  1  0  0  0  0
  9175  1  0  0  0  0
 17176  1  0  0  0  0
 18177  1  0  0  0  0
 19178  1  0  0  0  0
 20179  1  0  0  0  0
 21180  1  0  0  0  0
 22181  1  0  0  0  0
 22182  1  0  0  0  0
 23183  1  0  0  0  0
 28184  1  0  0  0  0
 29185  1  0  0  0  0
 31186  1  0  0  0  0
 31187  1  0  0  0  0
 31188  1  0  0  0  0
 32189  1  0  0  0  0
 33190  1  0  0  0  0
 35191  1  0  0  0  0
 36192  1  0  0  0  0
 38193  1  0  0  0  0
 38194  1  0  0  0  0
 38195  1  0  0  0  0
 39196  1  0  0  0  0
 40197  1  0  0  0  0
 47198  1  0  0  0  0
 48199  1  0  0  0  0
 50200  1  0  0  0  0
 50201  1  0  0  0  0
 50202  1  0  0  0  0
 51203  1  0  0  0  0
 52204  1  0  0  0  0
 54205  1  0  0  0  0
 55206  1  0  0  0  0
 57207  1  0  0  0  0
 57208  1  0  0  0  0
 57209  1  0  0  0  0
 58210  1  0  0  0  0
 59211  1  0  0  0  0
 64212  1  0  0  0  0
 64213  1  0  0  0  0
 65214  1  0  0  0  0
 65215  1  0  0  0  0
 65216  1  0  0  0  0
 74217  1  0  0  0  0
 75218  1  0  0  0  0
 77219  1  0  0  0  0
 77220  1  0  0  0  0
 78221  1  0  0  0  0
 78222  1  0  0  0  0
 78223  1  0  0  0  0
 82224  1  0  0  0  0
 83225  1  0  0  0  0
 85226  1  0  0  0  0
 85227  1  0  0  0  0
 86228  1  0  0  0  0
 86229  1  0  0  0  0
 86230  1  0  0  0  0
 95231  1  0  0  0  0
 95232  1  0  0  0  0
 96233  1  0  0  0  0
 96234  1  0  0  0  0
 96235  1  0  0  0  0
102236  1  0  0  0  0
102237  1  0  0  0  0
103238  1  0  0  0  0
103239  1  0  0  0  0
103240  1  0  0  0  0
110241  1  0  0  0  0
110242  1  0  0  0  0
111243  1  0  0  0  0
111244  1  0  0  0  0
111245  1  0  0  0  0
116246  1  0  0  0  0
117247  1  0  0  0  0
119248  1  0  0  0  0
119249  1  0  0  0  0
119250  1  0  0  0  0
120251  1  0  0  0  0
121252  1  0  0  0  0
123253  1  0  0  0  0
124254  1  0  0  0  0
126255  1  0  0  0  0
126256  1  0  0  0  0
126257  1  0  0  0  0
127258  1  0  0  0  0
128259  1  0  0  0  0
135260  1  0  0  0  0
136261  1  0  0  0  0
138262  1  0  0  0  0
138263  1  0  0  0  0
138264  1  0  0  0  0
139265  1  0  0  0  0
140266  1  0  0  0  0
142267  1  0  0  0  0
143268  1  0  0  0  0
145269  1  0  0  0  0
145270  1  0  0  0  0
145271  1  0  0  0  0
146272  1  0  0  0  0
147273  1  0  0  0  0
150274  1  0  0  0  0
155275  1  0  0  0  0
158276  1  0  0  0  0
166277  1  0  0  0  0
167278  1  0  0  0  0
168279  1  0  0  0  0
169280  1  0  0  0  0
170281  1  0  0  0  0
171282  1  0  0  0  0
171283  1  0  0  0  0
172284  1  0  0  0  0
M  END
