244

C        -10.91000       -1.82800       -0.45580
C        -11.28990       -3.04380       -0.97990
C        -10.89330       -3.58840       -2.27900
O        -10.12900       -3.09780       -3.09420
C        -11.62800       -4.85680       -2.43760
C        -11.55450       -5.74080       -3.51010
C        -12.33870       -6.86040       -3.36630
C        -13.14320       -7.07940       -2.24130
C        -13.22870       -6.21080       -1.17850
C        -12.43310       -5.06930       -1.30120
C        -12.22570       -3.95770       -0.37160
C        -12.80190       -3.84930        0.87220
C        -13.76670       -4.73770        1.38630
N        -14.56730       -5.40310        1.87290
C        -12.50240       -2.86630        1.83420
N        -12.29770       -2.13440        2.69790
C        -13.63880       -8.40830       -2.75500
C        -13.02760       -9.69100       -2.13860
C        -11.64950       -9.31840       -1.65130
C        -10.88590       -9.11160       -2.71590
C        -11.73430       -9.34060       -3.94220
C        -12.66380      -10.44990       -3.42470
C        -12.74050       -8.16490       -4.00850
C         -9.96500       -0.90900       -0.90590
C         -9.66610        0.29100       -0.20880
N        -10.40440        0.81780        0.81640
C        -11.81000        0.75220        0.84290
C        -12.54690        0.82140       -0.33680
C        -13.92470        0.74570       -0.29610
C        -14.60170        0.61840        0.91110
C        -16.09480        0.51270        0.95770
C        -13.85760        0.58000        2.08460
C        -12.47890        0.64150        2.05940
C         -9.74040        1.55170        1.81830
C        -10.25010        2.76580        2.26650
C         -9.58680        3.47150        3.25050
C         -8.40620        2.99310        3.80600
C         -7.67490        3.77470        4.85320
C         -7.90720        1.77720        3.35360
C         -8.56350        1.05850        2.37530
C         -8.49550        0.88200       -0.71430
S         -7.55090        2.27180       -0.27690
C         -6.44760        1.95060       -1.60330
C         -6.77290        0.80230       -2.31020
N         -6.01930        0.24690       -3.33270
C         -4.62190        0.22820       -3.25750
C         -3.97470        0.07700       -2.03350
C         -2.59610        0.13710       -1.96010
C         -1.82260        0.34760       -3.09260
C         -0.33040        0.45580       -3.01240
C         -2.47150        0.43870       -4.31930
C         -3.84590        0.37070       -4.40690
C         -6.68920       -0.33430       -4.42000
C         -7.87210        0.22510       -4.89490
C         -8.53810       -0.35370       -5.95530
C         -8.04690       -1.49530       -6.57510
C         -8.79100       -2.13120       -7.70900
C         -6.86500       -2.04630       -6.09660
C         -6.19350       -1.48270       -5.03050
C         -7.95610        0.21220       -1.80520
S         -8.86760       -1.17860       -2.26400
C         -5.28150        2.75000       -1.84160
C         -4.83470        3.18560       -3.07310
C         -5.70630        3.26950       -4.24300
C         -7.04630        3.61990       -4.08410
C         -7.87970        3.69190       -5.18340
C         -7.39610        3.39700       -6.44560
C         -6.05990        3.06290       -6.62620
C         -5.54900        2.68980       -7.98750
C         -5.87150        1.22400       -8.28740
C         -5.22100        3.02480       -5.52350
C         -3.47520        3.56460       -3.01270
S         -2.31260        4.01570       -4.23390
C         -1.07490        4.02530       -3.02490
C          0.31530        4.18620       -2.92360
C          1.26810        4.49490       -3.91650
C          2.64890        4.57290       -3.54680
N          3.43290        4.87550       -4.57020
S          2.50740        5.04750       -5.88820
N          1.07250        4.73730       -5.20370
C          3.01100        4.28860       -2.21350
C          4.28260        4.16500       -1.63440
S          5.95230        4.25550       -2.08950
C          6.38990        3.72850       -0.48130
C          7.62220        3.42970        0.12040
C          8.94030        3.54840       -0.52290
C          9.80570        4.57070       -0.14790
C         11.07320        4.63100       -0.69630
C         11.48480        3.67270       -1.60480
C         10.62460        2.65660       -2.00240
C         11.06830        1.64310       -3.01690
C         10.90780        2.19570       -4.43400
C          9.34640        2.61270       -1.46630
C          7.45900        2.99020        1.42140
S          5.77410        2.98470        1.92340
C          5.28780        3.52650        0.35580
C          4.08280        3.77640       -0.30950
N          2.74550        3.65920       -0.05070
C          2.04940        3.97560       -1.20510
C          0.66890        3.97160       -1.55840
N         -0.50290        3.73160       -0.85680
C         -1.54270        3.73550       -1.74500
C         -2.91920        3.46960       -1.73720
S         -4.08070        2.93720       -0.57510
C         -0.79960        3.64260        0.55350
C         -1.00390        2.19690        1.00950
C          2.34910        3.25120        1.27510
C          2.32040        4.43560        2.24150
C          8.44090        2.44790        2.29340
C          8.28620        2.08220        3.60380
C          9.42670        1.46130        4.16150
C          9.57910        0.90970        5.45320
C          8.56180        1.10230        6.46310
C          7.83560        2.24220        6.69010
C          6.92650        2.07930        7.74540
S          5.75070        3.08830        8.51210
C          5.31390        1.79240        9.60510
C          4.27420        2.03210       10.64420
C          4.76300        3.02010       11.70520
C          6.03600        0.66050        9.38600
C          6.95270        0.81800        8.32740
S          8.12560       -0.19270        7.56590
C         10.74440        0.18640        5.68280
C         11.77300        0.02640        4.71110
C         11.64120        0.62340        3.43400
C         12.60040        0.45690        2.36710
S         13.37280       -1.09530        2.08210
C         14.09330       -0.50070        0.63480
C         14.91800       -1.04710       -0.36840
C         15.20630       -0.13880       -1.34000
C         16.00000       -0.34570       -2.58280
C         15.10430       -0.32430       -3.82340
S         14.46990        1.42100       -1.03920
C         13.75690        0.83180        0.41960
C         12.91060        1.37420        1.39310
C         10.46860        1.33240        3.20980
S         10.03380        2.05800        1.68700
C         12.85600       -0.72240        5.19560
C         12.69210       -1.17050        6.48760
S         11.15970       -0.61500        7.16500
C         13.48550       -1.97530        7.32670
C         14.64610       -2.66900        7.09660
C         15.40420       -2.81000        5.83360
O         15.28180       -2.19380        4.79710
C         16.39650       -3.87760        6.08440
C         17.30430       -4.45650        5.21020
Cl        17.40740       -3.95470        3.57580
C         18.13820       -5.46810        5.67820
C         18.04150       -5.87010        7.00010
Br        19.17990       -7.25680        7.61100
C         17.14250       -5.30120        7.89600
C         16.31820       -4.29490        7.42450
C         15.28180       -3.50800        8.09580
C         15.02630       -3.54510        9.44170
C         15.69990       -4.38560       10.35410
N         16.20660       -5.03890       11.15040
C         14.09690       -2.74170       10.13850
N         13.38930       -2.12370       10.79910
H        -11.39580       -1.54180        0.46820
H        -10.91830       -5.53290       -4.35640
H        -13.85260       -6.39550       -0.32000
H        -14.71320       -8.49240       -2.90610
H        -13.66910      -10.19730       -1.42220
H        -11.39500       -9.19040       -0.61550
H         -9.86600       -8.77530       -2.74710
H        -11.19770       -9.52890       -4.86860
H        -13.51790      -10.63830       -4.07380
H        -12.13770      -11.38320       -3.22880
H        -13.22880       -8.09130       -4.97860
H        -12.03660        0.92770       -1.28290
H        -14.48290        0.79420       -1.22000
H        -16.38840       -0.49270        1.25940
H        -16.53240        0.72150       -0.01530
H        -16.50610        1.20970        1.68570
H        -14.36380        0.48140        3.03290
H        -11.91510        0.58980        2.97710
H        -11.16320        3.15140        1.83790
H         -9.99130        4.41450        3.58840
H         -6.88040        4.36140        4.39060
H         -8.34520        4.45860        5.36770
H         -7.21830        3.11030        5.58350
H         -6.99550        1.38400        3.77910
H         -8.17600        0.10640        2.04300
H         -4.55680       -0.08460       -1.13760
H         -2.11480        0.01670       -0.99990
H          0.13710       -0.44910       -3.40130
H         -0.00390        0.59390       -1.98420
H          0.02480        1.29580       -3.60740
H         -1.88810        0.58110       -5.21750
H         -4.33580        0.44540       -5.36500
H         -8.26030        1.12050       -4.43400
H         -9.45600        0.09270       -6.30980
H         -9.27400       -1.37810       -8.32830
H         -9.56620       -2.78950       -7.31590
H         -8.12380       -2.72470       -8.32960
H         -6.46800       -2.93930       -6.55780
H         -5.28480       -1.93460       -4.66050
H         -7.42680        3.85440       -3.10090
H         -8.91450        3.97470       -5.05370
H         -8.05670        3.43700       -7.29950
H         -4.46920        2.84220       -8.03430
H         -6.01720        3.32150       -8.74540
H         -5.40060        0.56990       -7.55690
H         -5.51530        0.95050       -9.27780
H         -6.94450        1.05270       -8.24150
H         -4.17670        2.78830       -5.65790
H          9.48550        5.30240        0.57950
H         11.74800        5.42140       -0.40210
H         12.48760        3.70660       -2.00530
H         12.11670        1.39150       -2.84390
H         10.47620        0.73180       -2.91410
H         11.50460        3.09630       -4.55910
H         11.22970        1.46040       -5.16790
H          9.86700        2.44670       -4.62590
H          8.66520        1.82580       -1.75770
H         -0.02240        4.14640        1.12270
H         -1.73360        4.18990        0.72070
H         -1.92680        1.80670        0.58980
H         -1.07500        2.15560        2.09320
H         -0.18790        1.55510        0.68230
H          1.39640        2.73510        1.24000
H          3.09880        2.53420        1.62560
H          1.67670        5.23220        1.87310
H          3.32210        4.84050        2.36040
H          1.96200        4.11210        3.21470
H          7.35910        2.21570        4.13150
H          7.98400        3.16220        6.15570
H          4.02320        1.07910       11.11410
H          3.37150        2.43110       10.17360
H          5.00090        3.97750       11.24710
H          5.65640        2.63890       12.19430
H          3.99360        3.17570       12.45710
H          5.91860       -0.24440        9.95330
H         15.27820       -2.05940       -0.36890
H         16.51400       -1.30650       -2.51460
H         16.75340        0.44090       -2.67300
H         15.69710       -0.49610       -4.71810
H         14.60950        0.63990       -3.91460
H         14.34390       -1.09910       -3.75490
H         12.57880        2.39570        1.39500
H         13.74350       -0.93090        4.62890
H         13.05810       -2.09220        8.31590
H         18.84910       -5.93310        5.01410
H         17.10260       -5.65140        8.91390
