227

C          1.47460        4.79260       -8.82640
C          2.73560        4.51700       -9.30530
C          3.93860        4.27770       -8.50620
O          4.02240        4.14970       -7.29590
C          5.06440        4.23620       -9.45870
C          6.41210        4.05300       -9.15910
C          7.23600        4.06410      -10.25930
C          6.75340        4.23830      -11.56220
C          5.42540        4.41630      -11.87170
C          4.57090        4.41510      -10.76590
C          3.11580        4.55370      -10.69670
C          2.27810        4.66330      -11.78150
C          0.87180        4.63000      -11.73480
N         -0.27510        4.56750      -11.79680
C          2.71070        4.78870      -13.11590
N          2.98450        4.91970      -14.22430
C          8.13040        4.14460      -12.17170
C          8.78400        5.47280      -12.60730
C         10.25490        5.13820      -12.70300
C         10.71280        4.97580      -11.46830
C          9.55890        5.19810      -10.51730
C          8.77870        6.26630      -11.29430
C          8.66960        3.95270      -10.71790
C          0.98180        4.80060       -7.52320
C         -0.35330        5.15380       -7.19850
N         -1.26990        5.69930       -8.05790
C         -2.63510        5.41170       -7.86480
C         -3.59130        6.41610       -7.96770
C         -4.92530        6.12580       -7.75790
C         -5.33910        4.83770       -7.44510
C         -6.78220        4.51910       -7.20340
C         -4.37750        3.83570       -7.36530
C         -3.04240        4.11140       -7.57520
C         -0.91380        6.61660       -9.06470
C          0.08870        7.55850       -8.84740
C          0.43790        8.43900       -9.85180
C         -0.21010        8.42000      -11.08150
C          0.18420        9.35370      -12.18380
C         -1.23360        7.49960      -11.27460
C         -1.58360        6.60240      -10.28580
C         -0.63320        4.85220       -5.85430
S         -2.02440        5.05610       -4.84260
C         -1.15980        4.36440       -3.47950
C          0.15910        4.05460       -3.78900
N          1.10890        3.56050       -2.91510
C          2.14480        2.76140       -3.43890
C          1.86470        1.74910       -4.35120
C          2.89290        1.00820       -4.89950
C          4.21450        1.24820       -4.54720
C          5.32990        0.48180       -5.18790
C          4.48040        2.23910       -3.60950
C          3.46280        2.99070       -3.05880
C          1.09140        3.82990       -1.54140
C          1.44510        2.82630       -0.63970
C          1.34060        3.04040        0.71950
C          0.89600        4.25680        1.22200
C          0.70950        4.46990        2.69300
C          0.60460        5.27160        0.31810
C          0.69690        5.07060       -1.04480
C          0.44430        4.33190       -5.15090
S          1.87370        4.21750       -6.11450
C         -1.80100        4.12890       -2.21810
C         -2.44210        5.00200       -1.36640
C         -2.79480        6.39440       -1.65770
C         -2.37680        7.40590       -0.79810
C         -2.72020        8.71850       -1.05840
C         -3.47770        9.03290       -2.17260
C         -3.91930        8.03380       -3.03080
C         -4.69380        8.37980       -4.26900
C         -3.72840        8.78110       -5.38530
C         -3.58170        6.71720       -2.75680
C         -2.66860        4.41020       -0.10480
S         -3.31960        5.04370        1.38630
C         -3.00580        3.51650        2.14020
C         -3.16570        2.89020        3.38580
C         -3.79630        3.33880        4.56640
C         -3.95760        2.42070        5.65540
N         -4.61640        2.95150        6.67360
S         -4.99630        4.48030        6.29480
N         -4.33580        4.52140        4.81720
C         -3.38550        1.13470        5.55020
C         -3.32160        0.08240        6.47370
S         -3.91250       -0.31390        8.04990
C         -3.08580       -1.85230        7.94420
C         -3.03840       -2.96330        8.80160
C         -3.88710       -3.07730        9.98470
C         -4.60780       -4.24760       10.22170
C         -5.46930       -4.31780       11.29960
C         -5.62430       -3.23030       12.14290
C         -4.91730       -2.05540       11.91910
C         -5.12280       -0.84900       12.78790
C         -6.13120        0.10070       12.13780
C         -4.05380       -1.98990       10.83620
C         -2.24830       -3.97470        8.26080
S         -1.64160       -3.57830        6.65920
C         -2.38680       -2.02610        6.74240
C         -2.53280       -0.91790        5.89950
N         -2.13110       -0.53670        4.64700
C         -2.65870        0.71920        4.39640
C         -2.64250        1.57110        3.25940
N         -2.20150        1.40690        1.95500
C         -2.43460        2.57410        1.28330
C         -2.24700        3.08670       -0.00720
S         -1.59430        2.52990       -1.50320
C         -1.90340        0.20740        1.20610
C         -3.09860       -0.74170        1.16790
C         -1.03400       -1.23030        4.00920
C          0.22530       -0.36740        3.97720
C         -1.87410       -5.24470        8.76960
C         -1.61920       -6.38110        8.00230
C         -1.32870       -7.45450        8.87530
C         -1.31480       -6.94530       10.22630
O         -1.04740       -7.45230       11.29290
N         -1.68330       -5.58380       10.08680
C         -1.60390       -4.69880       11.21710
C         -1.11180       -8.59970        8.11200
N         -1.29300       -8.25300        6.79590
C         -1.33240       -9.13240        5.66070
C         -1.62620       -6.89150        6.65250
O         -1.86610       -6.36800        5.58220
C         -0.84940       -9.88500        8.65420
C         -0.03440      -10.87010        8.18190
C          1.08350      -10.67640        7.22330
O          1.34390       -9.68070        6.58190
C          1.89080      -11.90750        7.30230
C          3.07200      -12.17460        6.61340
C          3.62100      -13.40170        6.89750
C          3.04720      -14.29530        7.81260
C          1.88670      -14.04300        8.50430
C          1.30470      -12.80460        8.21920
C          0.08030      -12.20560        8.73590
C         -0.86450      -12.82590        9.51110
C         -2.11330      -12.25780        9.84280
N         -3.16560      -11.88080       10.10550
C         -0.74510      -14.13610       10.01760
N         -0.70420      -15.19420       10.46160
C          4.12690      -15.32680        7.60400
C          3.78710      -16.55540        6.72460
C          2.70090      -16.11520        5.77460
C          3.24110      -15.27180        4.90510
C          4.70230      -15.12610        5.25170
C          4.99780      -16.53970        5.77780
C          4.76370      -14.33360        6.58130
H          0.73680        5.04890       -9.57560
H          6.73900        3.91600       -8.14000
H          5.07090        4.54520      -12.88050
H          8.27720        3.34150      -12.89160
H          8.33010        5.93950      -13.47720
H         10.78040        5.00280      -13.63010
H         11.69730        4.67770      -11.15810
H          9.81240        5.41590       -9.48310
H          7.78380        6.46360      -10.89960
H          9.33070        7.20130      -11.37600
H          9.17810        3.02260      -10.47010
H         -3.28230        7.42230       -8.20810
H         -5.65600        6.91800       -7.83280
H         -6.91780        4.11360       -6.20140
H         -7.12950        3.76960       -7.91350
H         -7.40070        5.40690       -7.30580
H         -4.68200        2.82400       -7.14010
H         -2.30720        3.32180       -7.52320
H          0.59730        7.58960       -7.89480
H          1.22400        9.15840       -9.67260
H         -0.69150        9.85180      -12.59600
H          0.88270       10.10690      -11.82830
H          0.65890        8.79660      -12.99170
H         -1.75060        7.46910      -12.22160
H         -2.36360        5.87820      -10.45940
H          0.83950        1.55280       -4.63100
H          2.66420        0.23280       -5.61650
H          5.66270        1.00780       -6.08340
H          6.17920        0.39070       -4.51450
H          5.00240       -0.51240       -5.48350
H          5.50200        2.43690       -3.31900
H          3.68080        3.76900       -2.34210
H          1.77170        1.86880       -1.01790
H          1.59600        2.24140        1.40160
H         -0.34800        4.39180        2.95100
H          1.04920        5.46090        2.98680
H          1.25560        3.72570        3.26800
H          0.29700        6.23760        0.69100
H          0.45810        5.87150       -1.72930
H         -1.78100        7.15930        0.06670
H         -2.39360        9.50100       -0.38920
H         -3.73870       10.06210       -2.37380
H         -5.37550        9.20790       -4.06370
H         -5.28050        7.51940       -4.59550
H         -3.06090        7.95310       -5.61320
H         -4.27640        9.04590       -6.28620
H         -3.12810        9.63520       -5.07960
H         -3.95760        5.92840       -3.39230
H         -4.50450       -5.08700        9.55010
H         -6.02760       -5.22430       11.47990
H         -6.30370       -3.29300       12.98040
H         -4.17440       -0.32570       12.92530
H         -5.49140       -1.15460       13.76870
H         -6.28470        0.97720       12.76270
H         -7.08700       -0.40000       12.00080
H         -5.77260        0.42520       11.16360
H         -3.49180       -1.08470       10.65860
H         -1.01300       -0.28180        1.60070
H         -1.66600        0.53090        0.18950
H         -3.41380       -1.02000        2.17080
H         -3.93760       -0.26050        0.67050
H         -2.84030       -1.64230        0.61750
H         -1.31720       -1.56700        3.01190
H         -0.84410       -2.12620        4.60530
H          0.04700        0.57000        3.45490
H          1.02860       -0.90330        3.47860
H          0.54170       -0.13490        4.99150
H         -2.56930       -4.59780       11.71610
H         -0.89630       -5.13860       11.92180
H         -1.25630       -3.71550       10.90340
H         -1.95890       -8.65740        4.90490
H         -1.75190      -10.09780        5.94460
H         -0.33210       -9.27700        5.24870
H         -1.32320      -10.03700        9.61830
H          3.48580      -11.45560        5.92370
H          1.46130      -14.73360        9.21340
H          4.70740      -15.59430        8.48460
H          3.59680      -17.46940        7.28050
H          1.67160      -16.40910        5.86500
H          2.75310      -14.71960        4.12340
H          5.34600      -14.73950        4.46590
H          5.95350      -16.61980        6.29400
H          4.93450      -17.29990        5.00070
H          5.76170      -13.95410        6.79220
