
  xtb     02142215393D
 energy: -430.742420262688 gnorm: 0.000848214388 xtb: 6.4.1 (unknown)
268297  0     0  0            999 V2000
   -3.6722    5.9417  -10.2250 C   0  0  0  0  0  0  0  0  0  0  0  0
   -3.9606    5.1410  -11.2988 C   0  0  0  0  0  0  0  0  0  0  0  0
   -3.1392    5.2532  -12.5242 C   0  0  0  0  0  0  0  0  0  0  0  0
   -2.3967    6.1631  -12.8301 O   0  0  0  0  0  0  0  0  0  0  0  0
   -3.3569    3.9832  -13.2523 C   0  0  0  0  0  0  0  0  0  0  0  0
   -2.7018    3.5417  -14.3989 C   0  0  0  0  0  0  0  0  0  0  0  0
   -3.0899    2.2923  -14.8217 C   0  0  0  0  0  0  0  0  0  0  0  0
   -4.0636    1.5347  -14.1585 C   0  0  0  0  0  0  0  0  0  0  0  0
   -4.7318    1.9641  -13.0361 C   0  0  0  0  0  0  0  0  0  0  0  0
   -4.3446    3.2274  -12.5870 C   0  0  0  0  0  0  0  0  0  0  0  0
   -4.8382    4.0100  -11.4560 C   0  0  0  0  0  0  0  0  0  0  0  0
   -6.0565    3.8456  -10.8408 C   0  0  0  0  0  0  0  0  0  0  0  0
   -6.8937    2.7327  -11.0239 C   0  0  0  0  0  0  0  0  0  0  0  0
   -7.6002    1.8308  -11.1162 N   0  0  0  0  0  0  0  0  0  0  0  0
   -6.6116    4.8356  -10.0046 C   0  0  0  0  0  0  0  0  0  0  0  0
   -7.1048    5.6587   -9.3728 N   0  0  0  0  0  0  0  0  0  0  0  0
   -3.9390    0.3816  -15.1228 C   0  0  0  0  0  0  0  0  0  0  0  0
   -3.1435   -0.8662  -14.6651 C   0  0  0  0  0  0  0  0  0  0  0  0
   -2.1446   -0.3902  -13.6405 C   0  0  0  0  0  0  0  0  0  0  0  0
   -1.2268    0.3291  -14.2723 C   0  0  0  0  0  0  0  0  0  0  0  0
   -1.5878    0.3507  -15.7368 C   0  0  0  0  0  0  0  0  0  0  0  0
   -2.2189   -1.0437  -15.8802 C   0  0  0  0  0  0  0  0  0  0  0  0
   -2.8576    1.2276  -15.8659 C   0  0  0  0  0  0  0  0  0  0  0  0
   -3.9193    5.6909   -8.8675 C   0  0  0  0  0  0  0  0  0  0  0  0
   -3.7604    6.5608   -7.7728 C   0  0  0  0  0  0  0  0  0  0  0  0
   -3.3503    7.8674   -7.8454 N   0  0  0  0  0  0  0  0  0  0  0  0
   -3.9742    8.8504   -7.0618 C   0  0  0  0  0  0  0  0  0  0  0  0
   -3.2381    9.9312   -6.5812 C   0  0  0  0  0  0  0  0  0  0  0  0
   -3.8694   10.9438   -5.8893 C   0  0  0  0  0  0  0  0  0  0  0  0
   -5.2390   10.9037   -5.6473 C   0  0  0  0  0  0  0  0  0  0  0  0
   -5.9165   12.0461   -4.9547 C   0  0  0  0  0  0  0  0  0  0  0  0
   -5.9559    9.8004   -6.0936 C   0  0  0  0  0  0  0  0  0  0  0  0
   -5.3394    8.7840   -6.7973 C   0  0  0  0  0  0  0  0  0  0  0  0
   -2.3333    8.2446   -8.7420 C   0  0  0  0  0  0  0  0  0  0  0  0
   -1.1899    7.4581   -8.8642 C   0  0  0  0  0  0  0  0  0  0  0  0
   -0.2036    7.8074   -9.7637 C   0  0  0  0  0  0  0  0  0  0  0  0
   -0.3229    8.9468  -10.5517 C   0  0  0  0  0  0  0  0  0  0  0  0
    0.7270    9.2893  -11.5608 C   0  0  0  0  0  0  0  0  0  0  0  0
   -1.4556    9.7385  -10.4030 C   0  0  0  0  0  0  0  0  0  0  0  0
   -2.4540    9.3974   -9.5121 C   0  0  0  0  0  0  0  0  0  0  0  0
   -4.0861    5.9113   -6.5604 C   0  0  0  0  0  0  0  0  0  0  0  0
   -4.0575    6.3749   -4.8929 S   0  0  0  0  0  0  0  0  0  0  0  0
   -4.4866    4.7410   -4.4012 C   0  0  0  0  0  0  0  0  0  0  0  0
   -4.7193    3.9105   -5.4909 C   0  0  0  0  0  0  0  0  0  0  0  0
   -5.2159    2.6249   -5.4222 N   0  0  0  0  0  0  0  0  0  0  0  0
   -5.0365    1.7861   -6.5438 C   0  0  0  0  0  0  0  0  0  0  0  0
   -6.1378    1.2514   -7.2037 C   0  0  0  0  0  0  0  0  0  0  0  0
   -5.9600    0.5072   -8.3529 C   0  0  0  0  0  0  0  0  0  0  0  0
   -4.6890    0.2752   -8.8645 C   0  0  0  0  0  0  0  0  0  0  0  0
   -4.4973   -0.4943  -10.1352 C   0  0  0  0  0  0  0  0  0  0  0  0
   -3.5920    0.7762   -8.1733 C   0  0  0  0  0  0  0  0  0  0  0  0
   -3.7566    1.5245   -7.0237 C   0  0  0  0  0  0  0  0  0  0  0  0
   -6.1216    2.2282   -4.4275 C   0  0  0  0  0  0  0  0  0  0  0  0
   -7.0242    3.1183   -3.8507 C   0  0  0  0  0  0  0  0  0  0  0  0
   -7.8686    2.6926   -2.8456 C   0  0  0  0  0  0  0  0  0  0  0  0
   -7.8426    1.3812   -2.3865 C   0  0  0  0  0  0  0  0  0  0  0  0
   -8.7198    0.9534   -1.2504 C   0  0  0  0  0  0  0  0  0  0  0  0
   -6.9703    0.4894   -2.9978 C   0  0  0  0  0  0  0  0  0  0  0  0
   -6.1191    0.9013   -4.0045 C   0  0  0  0  0  0  0  0  0  0  0  0
   -4.4457    4.5803   -6.7047 C   0  0  0  0  0  0  0  0  0  0  0  0
   -4.3918    4.0738   -8.3477 S   0  0  0  0  0  0  0  0  0  0  0  0
   -4.4512    4.2857   -3.0412 C   0  0  0  0  0  0  0  0  0  0  0  0
   -5.0692    4.7341   -1.8956 C   0  0  0  0  0  0  0  0  0  0  0  0
   -5.8942    5.9362   -1.7556 C   0  0  0  0  0  0  0  0  0  0  0  0
   -7.1535    5.8388   -1.1690 C   0  0  0  0  0  0  0  0  0  0  0  0
   -7.9263    6.9713   -1.0045 C   0  0  0  0  0  0  0  0  0  0  0  0
   -7.4474    8.2074   -1.4045 C   0  0  0  0  0  0  0  0  0  0  0  0
   -6.1841    8.3251   -1.9673 C   0  0  0  0  0  0  0  0  0  0  0  0
   -5.6216    9.6647   -2.3419 C   0  0  0  0  0  0  0  0  0  0  0  0
   -4.6951   10.1866   -1.2427 C   0  0  0  0  0  0  0  0  0  0  0  0
   -5.4156    7.1827   -2.1352 C   0  0  0  0  0  0  0  0  0  0  0  0
   -4.8406    3.8565   -0.8119 C   0  0  0  0  0  0  0  0  0  0  0  0
   -5.3666    3.8813    0.8537 S   0  0  0  0  0  0  0  0  0  0  0  0
   -4.4436    2.4447    1.1445 C   0  0  0  0  0  0  0  0  0  0  0  0
   -4.1303    1.5688    2.2010 C   0  0  0  0  0  0  0  0  0  0  0  0
   -4.5884    1.4890    3.5340 C   0  0  0  0  0  0  0  0  0  0  0  0
   -4.1135    0.4211    4.3722 C   0  0  0  0  0  0  0  0  0  0  0  0
   -4.6547    0.4485    5.5799 N   0  0  0  0  0  0  0  0  0  0  0  0
   -5.6741    1.7054    5.6582 S   0  0  0  0  0  0  0  0  0  0  0  0
   -5.4615    2.2668    4.1542 N   0  0  0  0  0  0  0  0  0  0  0  0
   -3.1057   -0.4381    3.8825 C   0  0  0  0  0  0  0  0  0  0  0  0
   -2.2984   -1.3907    4.5278 C   0  0  0  0  0  0  0  0  0  0  0  0
   -2.0966   -2.0869    6.0992 S   0  0  0  0  0  0  0  0  0  0  0  0
   -0.6114   -2.8333    5.5639 C   0  0  0  0  0  0  0  0  0  0  0  0
    0.3921   -3.5743    6.2292 C   0  0  0  0  0  0  0  0  0  0  0  0
    0.3246   -4.0617    7.6047 C   0  0  0  0  0  0  0  0  0  0  0  0
   -0.3771   -3.3619    8.5828 C   0  0  0  0  0  0  0  0  0  0  0  0
   -0.4070   -3.8292    9.8830 C   0  0  0  0  0  0  0  0  0  0  0  0
    0.2469   -4.9991   10.2237 C   0  0  0  0  0  0  0  0  0  0  0  0
    0.9237   -5.7312    9.2555 C   0  0  0  0  0  0  0  0  0  0  0  0
    1.5778   -7.0382    9.6042 C   0  0  0  0  0  0  0  0  0  0  0  0
    0.5598   -8.1781    9.5417 C   0  0  0  0  0  0  0  0  0  0  0  0
    0.9490   -5.2577    7.9542 C   0  0  0  0  0  0  0  0  0  0  0  0
    1.4588   -3.8223    5.3868 C   0  0  0  0  0  0  0  0  0  0  0  0
    1.1789   -3.2633    3.7462 S   0  0  0  0  0  0  0  0  0  0  0  0
   -0.3299   -2.5750    4.2229 C   0  0  0  0  0  0  0  0  0  0  0  0
   -1.3013   -1.7614    3.6247 C   0  0  0  0  0  0  0  0  0  0  0  0
   -1.4854   -1.1127    2.4324 N   0  0  0  0  0  0  0  0  0  0  0  0
   -2.5972   -0.3015    2.5623 C   0  0  0  0  0  0  0  0  0  0  0  0
   -3.2198    0.6127    1.6765 C   0  0  0  0  0  0  0  0  0  0  0  0
   -3.0364    0.8618    0.3256 N   0  0  0  0  0  0  0  0  0  0  0  0
   -3.7753    1.9755    0.0131 C   0  0  0  0  0  0  0  0  0  0  0  0
   -4.0177    2.7744   -1.1115 C   0  0  0  0  0  0  0  0  0  0  0  0
   -3.5372    2.7961   -2.7664 S   0  0  0  0  0  0  0  0  0  0  0  0
   -2.7320   -0.0866   -0.7233 C   0  0  0  0  0  0  0  0  0  0  0  0
   -4.0106   -0.6875   -1.3054 C   0  0  0  0  0  0  0  0  0  0  0  0
   -0.4167   -1.0699    1.4607 C   0  0  0  0  0  0  0  0  0  0  0  0
   -0.3055   -2.3743    0.6711 C   0  0  0  0  0  0  0  0  0  0  0  0
    2.7783   -4.2444    5.7514 C   0  0  0  0  0  0  0  0  0  0  0  0
    3.5599   -3.6975    6.7593 C   0  0  0  0  0  0  0  0  0  0  0  0
    3.2027   -2.6345    7.5687 N   0  0  0  0  0  0  0  0  0  0  0  0
    2.4156   -1.5841    7.0793 C   0  0  0  0  0  0  0  0  0  0  0  0
    1.4790   -0.9668    7.9061 C   0  0  0  0  0  0  0  0  0  0  0  0
    0.6332   -0.0017    7.4002 C   0  0  0  0  0  0  0  0  0  0  0  0
    0.6950    0.3848    6.0654 C   0  0  0  0  0  0  0  0  0  0  0  0
   -0.2697    1.3946    5.5229 C   0  0  0  0  0  0  0  0  0  0  0  0
    1.6772   -0.1839    5.2664 C   0  0  0  0  0  0  0  0  0  0  0  0
    2.5347   -1.1477    5.7622 C   0  0  0  0  0  0  0  0  0  0  0  0
    3.7232   -2.5774    8.8730 C   0  0  0  0  0  0  0  0  0  0  0  0
    4.1992   -1.3773    9.3917 C   0  0  0  0  0  0  0  0  0  0  0  0
    4.7573   -1.3419   10.6538 C   0  0  0  0  0  0  0  0  0  0  0  0
    4.8608   -2.4913   11.4270 C   0  0  0  0  0  0  0  0  0  0  0  0
    5.4766   -2.4507   12.7924 C   0  0  0  0  0  0  0  0  0  0  0  0
    4.3640   -3.6806   10.9093 C   0  0  0  0  0  0  0  0  0  0  0  0
    3.7988   -3.7291    9.6512 C   0  0  0  0  0  0  0  0  0  0  0  0
    4.8271   -4.3285    6.8134 C   0  0  0  0  0  0  0  0  0  0  0  0
    6.1813   -4.1648    7.8679 S   0  0  0  0  0  0  0  0  0  0  0  0
    7.0725   -5.3617    6.9224 C   0  0  0  0  0  0  0  0  0  0  0  0
    6.2780   -5.9186    5.8869 C   0  0  0  0  0  0  0  0  0  0  0  0
    6.6596   -6.9304    5.0464 N   0  0  0  0  0  0  0  0  0  0  0  0
    7.4744   -7.9987    5.4653 C   0  0  0  0  0  0  0  0  0  0  0  0
    8.3897   -8.5620    4.5797 C   0  0  0  0  0  0  0  0  0  0  0  0
    9.1914   -9.6083    4.9893 C   0  0  0  0  0  0  0  0  0  0  0  0
    9.1117  -10.1125    6.2822 C   0  0  0  0  0  0  0  0  0  0  0  0
   10.0209  -11.2189    6.7201 C   0  0  0  0  0  0  0  0  0  0  0  0
    8.1813   -9.5558    7.1520 C   0  0  0  0  0  0  0  0  0  0  0  0
    7.3625   -8.5185    6.7525 C   0  0  0  0  0  0  0  0  0  0  0  0
    6.1255   -6.9610    3.7434 C   0  0  0  0  0  0  0  0  0  0  0  0
    6.0776   -5.7953    2.9833 C   0  0  0  0  0  0  0  0  0  0  0  0
    5.5421   -5.8204    1.7119 C   0  0  0  0  0  0  0  0  0  0  0  0
    5.0517   -7.0001    1.1638 C   0  0  0  0  0  0  0  0  0  0  0  0
    4.4476   -7.0083   -0.2064 C   0  0  0  0  0  0  0  0  0  0  0  0
    5.1188   -8.1608    1.9246 C   0  0  0  0  0  0  0  0  0  0  0  0
    5.6463   -8.1486    3.2006 C   0  0  0  0  0  0  0  0  0  0  0  0
    5.0195   -5.2957    5.8346 C   0  0  0  0  0  0  0  0  0  0  0  0
    3.6249   -5.4675    4.8156 S   0  0  0  0  0  0  0  0  0  0  0  0
    8.4274   -5.6428    7.0837 C   0  0  0  0  0  0  0  0  0  0  0  0
    9.3125   -5.2342    8.0571 C   0  0  0  0  0  0  0  0  0  0  0  0
    8.9776   -4.4964    9.2765 C   0  0  0  0  0  0  0  0  0  0  0  0
    7.8918   -4.0288    9.5837 O   0  0  0  0  0  0  0  0  0  0  0  0
   10.2119   -4.4516   10.0807 C   0  0  0  0  0  0  0  0  0  0  0  0
   11.2311   -5.1037    9.3912 C   0  0  0  0  0  0  0  0  0  0  0  0
   12.5128   -5.1959    9.9487 C   0  0  0  0  0  0  0  0  0  0  0  0
   12.7394   -4.6382   11.1810 C   0  0  0  0  0  0  0  0  0  0  0  0
   11.7255   -3.9725   11.9025 C   0  0  0  0  0  0  0  0  0  0  0  0
   11.9659   -3.4002   13.1688 C   0  0  0  0  0  0  0  0  0  0  0  0
   10.9650   -2.7606   13.8460 C   0  0  0  0  0  0  0  0  0  0  0  0
    9.6789   -2.6598   13.2899 C   0  0  0  0  0  0  0  0  0  0  0  0
    9.4062   -3.1996   12.0640 C   0  0  0  0  0  0  0  0  0  0  0  0
   10.4185   -3.8686   11.3445 C   0  0  0  0  0  0  0  0  0  0  0  0
   10.7103   -5.5825    8.1097 C   0  0  0  0  0  0  0  0  0  0  0  0
   11.4471   -6.2187    7.1390 C   0  0  0  0  0  0  0  0  0  0  0  0
   12.7979   -6.5936    7.2771 C   0  0  0  0  0  0  0  0  0  0  0  0
   13.8881   -6.9538    7.3229 N   0  0  0  0  0  0  0  0  0  0  0  0
   10.9835   -6.5634    5.8550 C   0  0  0  0  0  0  0  0  0  0  0  0
   10.7052   -6.8487    4.7761 N   0  0  0  0  0  0  0  0  0  0  0  0
   -3.0866    6.8210  -10.4670 H   0  0  0  0  0  0  0  0  0  0  0  0
   -1.9607    4.1562  -14.8859 H   0  0  0  0  0  0  0  0  0  0  0  0
   -5.4840    1.3799  -12.5322 H   0  0  0  0  0  0  0  0  0  0  0  0
   -4.8427    0.1175  -15.6687 H   0  0  0  0  0  0  0  0  0  0  0  0
   -3.7600   -1.7135  -14.3761 H   0  0  0  0  0  0  0  0  0  0  0  0
   -2.2333   -0.5755  -12.5860 H   0  0  0  0  0  0  0  0  0  0  0  0
   -0.3996    0.8697  -13.8507 H   0  0  0  0  0  0  0  0  0  0  0  0
   -0.7868    0.6104  -16.4242 H   0  0  0  0  0  0  0  0  0  0  0  0
   -1.4975   -1.8488  -15.7472 H   0  0  0  0  0  0  0  0  0  0  0  0
   -2.7560   -1.1822  -16.8175 H   0  0  0  0  0  0  0  0  0  0  0  0
   -3.0583    1.5170  -16.8957 H   0  0  0  0  0  0  0  0  0  0  0  0
   -2.1749    9.9763   -6.7655 H   0  0  0  0  0  0  0  0  0  0  0  0
   -3.2910   11.7840   -5.5329 H   0  0  0  0  0  0  0  0  0  0  0  0
   -5.3559   12.3527   -4.0738 H   0  0  0  0  0  0  0  0  0  0  0  0
   -6.9268   11.7781   -4.6575 H   0  0  0  0  0  0  0  0  0  0  0  0
   -5.9747   12.9035   -5.6258 H   0  0  0  0  0  0  0  0  0  0  0  0
   -7.0182    9.7420   -5.9074 H   0  0  0  0  0  0  0  0  0  0  0  0
   -5.9195    7.9537   -7.1724 H   0  0  0  0  0  0  0  0  0  0  0  0
   -1.0899    6.5688   -8.2587 H   0  0  0  0  0  0  0  0  0  0  0  0
    0.6739    7.1846   -9.8576 H   0  0  0  0  0  0  0  0  0  0  0  0
    0.7361   10.3563  -11.7696 H   0  0  0  0  0  0  0  0  0  0  0  0
    1.7130    8.9847  -11.2169 H   0  0  0  0  0  0  0  0  0  0  0  0
    0.5169    8.7625  -12.4920 H   0  0  0  0  0  0  0  0  0  0  0  0
   -1.5664   10.6280  -11.0057 H   0  0  0  0  0  0  0  0  0  0  0  0
   -3.3385   10.0099   -9.4182 H   0  0  0  0  0  0  0  0  0  0  0  0
   -7.1303    1.4462   -6.8250 H   0  0  0  0  0  0  0  0  0  0  0  0
   -6.8244    0.1277   -8.8766 H   0  0  0  0  0  0  0  0  0  0  0  0
   -3.8472    0.0559  -10.8143 H   0  0  0  0  0  0  0  0  0  0  0  0
   -4.0324   -1.4591   -9.9310 H   0  0  0  0  0  0  0  0  0  0  0  0
   -5.4508   -0.6675  -10.6270 H   0  0  0  0  0  0  0  0  0  0  0  0
   -2.5959    0.5901   -8.5487 H   0  0  0  0  0  0  0  0  0  0  0  0
   -2.9012    1.9251   -6.4989 H   0  0  0  0  0  0  0  0  0  0  0  0
   -7.0731    4.1400   -4.1970 H   0  0  0  0  0  0  0  0  0  0  0  0
   -8.5691    3.3935   -2.4160 H   0  0  0  0  0  0  0  0  0  0  0  0
   -8.8537   -0.1256   -1.2455 H   0  0  0  0  0  0  0  0  0  0  0  0
   -9.6954    1.4305   -1.3137 H   0  0  0  0  0  0  0  0  0  0  0  0
   -8.2668    1.2440   -0.3013 H   0  0  0  0  0  0  0  0  0  0  0  0
   -6.9521   -0.5429   -2.6782 H   0  0  0  0  0  0  0  0  0  0  0  0
   -5.4386    0.2014   -4.4671 H   0  0  0  0  0  0  0  0  0  0  0  0
   -7.5201    4.8752   -0.8509 H   0  0  0  0  0  0  0  0  0  0  0  0
   -8.9059    6.8919   -0.5564 H   0  0  0  0  0  0  0  0  0  0  0  0
   -8.0563    9.0898   -1.2688 H   0  0  0  0  0  0  0  0  0  0  0  0
   -5.0614    9.5778   -3.2751 H   0  0  0  0  0  0  0  0  0  0  0  0
   -6.4355   10.3752   -2.4929 H   0  0  0  0  0  0  0  0  0  0  0  0
   -4.2861   11.1560   -1.5182 H   0  0  0  0  0  0  0  0  0  0  0  0
   -5.2389   10.2922   -0.3064 H   0  0  0  0  0  0  0  0  0  0  0  0
   -3.8705    9.4962   -1.0825 H   0  0  0  0  0  0  0  0  0  0  0  0
   -4.4180    7.2700   -2.5399 H   0  0  0  0  0  0  0  0  0  0  0  0
   -0.8827   -2.4442    8.3290 H   0  0  0  0  0  0  0  0  0  0  0  0
   -0.9434   -3.2727   10.6375 H   0  0  0  0  0  0  0  0  0  0  0  0
    0.2278   -5.3525   11.2445 H   0  0  0  0  0  0  0  0  0  0  0  0
    2.3919   -7.2456    8.9058 H   0  0  0  0  0  0  0  0  0  0  0  0
    1.9964   -6.9834   10.6115 H   0  0  0  0  0  0  0  0  0  0  0  0
    1.0306   -9.1247    9.7970 H   0  0  0  0  0  0  0  0  0  0  0  0
   -0.2555   -7.9958   10.2381 H   0  0  0  0  0  0  0  0  0  0  0  0
    0.1423   -8.2560    8.5402 H   0  0  0  0  0  0  0  0  0  0  0  0
    1.4547   -5.8350    7.1933 H   0  0  0  0  0  0  0  0  0  0  0  0
   -2.1810    0.4419   -1.5079 H   0  0  0  0  0  0  0  0  0  0  0  0
   -2.1185   -0.8875   -0.3277 H   0  0  0  0  0  0  0  0  0  0  0  0
   -4.6371    0.0866   -1.7401 H   0  0  0  0  0  0  0  0  0  0  0  0
   -4.5743   -1.1961   -0.5258 H   0  0  0  0  0  0  0  0  0  0  0  0
   -3.7580   -1.4050   -2.0815 H   0  0  0  0  0  0  0  0  0  0  0  0
    0.5221   -0.9184    2.0065 H   0  0  0  0  0  0  0  0  0  0  0  0
   -0.5631   -0.2089    0.8075 H   0  0  0  0  0  0  0  0  0  0  0  0
    0.4313   -2.2642   -0.1197 H   0  0  0  0  0  0  0  0  0  0  0  0
    0.0123   -3.1798    1.3274 H   0  0  0  0  0  0  0  0  0  0  0  0
   -1.2576   -2.6590    0.2285 H   0  0  0  0  0  0  0  0  0  0  0  0
    1.4078   -1.2711    8.9395 H   0  0  0  0  0  0  0  0  0  0  0  0
   -0.1075    0.4473    8.0460 H   0  0  0  0  0  0  0  0  0  0  0  0
   -0.2180    1.4433    4.4374 H   0  0  0  0  0  0  0  0  0  0  0  0
   -1.2887    1.1411    5.8115 H   0  0  0  0  0  0  0  0  0  0  0  0
   -0.0481    2.3845    5.9220 H   0  0  0  0  0  0  0  0  0  0  0  0
    1.7746    0.1286    4.2357 H   0  0  0  0  0  0  0  0  0  0  0  0
    3.2957   -1.5740    5.1244 H   0  0  0  0  0  0  0  0  0  0  0  0
    4.1434   -0.4793    8.7938 H   0  0  0  0  0  0  0  0  0  0  0  0
    5.1363   -0.4052   11.0370 H   0  0  0  0  0  0  0  0  0  0  0  0
    4.6987   -2.3899   13.5550 H   0  0  0  0  0  0  0  0  0  0  0  0
    6.1238   -1.5831   12.8981 H   0  0  0  0  0  0  0  0  0  0  0  0
    6.0579   -3.3518   12.9772 H   0  0  0  0  0  0  0  0  0  0  0  0
    4.4263   -4.5848   11.4971 H   0  0  0  0  0  0  0  0  0  0  0  0
    3.4134   -4.6590    9.2619 H   0  0  0  0  0  0  0  0  0  0  0  0
    8.4794   -8.1662    3.5805 H   0  0  0  0  0  0  0  0  0  0  0  0
    9.9068  -10.0269    4.2979 H   0  0  0  0  0  0  0  0  0  0  0  0
   11.0433  -10.8498    6.8037 H   0  0  0  0  0  0  0  0  0  0  0  0
    9.7185  -11.6151    7.6863 H   0  0  0  0  0  0  0  0  0  0  0  0
   10.0200  -12.0275    5.9915 H   0  0  0  0  0  0  0  0  0  0  0  0
    8.0895   -9.9434    8.1565 H   0  0  0  0  0  0  0  0  0  0  0  0
    6.6406   -8.1003    7.4388 H   0  0  0  0  0  0  0  0  0  0  0  0
    6.4691   -4.8760    3.3940 H   0  0  0  0  0  0  0  0  0  0  0  0
    5.5092   -4.9097    1.1319 H   0  0  0  0  0  0  0  0  0  0  0  0
    3.4193   -6.6481   -0.1597 H   0  0  0  0  0  0  0  0  0  0  0  0
    4.4370   -8.0127   -0.6218 H   0  0  0  0  0  0  0  0  0  0  0  0
    5.0006   -6.3539   -0.8768 H   0  0  0  0  0  0  0  0  0  0  0  0
    4.7454   -9.0886    1.5162 H   0  0  0  0  0  0  0  0  0  0  0  0
    5.6855   -9.0558    3.7851 H   0  0  0  0  0  0  0  0  0  0  0  0
    8.8387   -6.2858    6.3163 H   0  0  0  0  0  0  0  0  0  0  0  0
   13.3110   -5.6961    9.4256 H   0  0  0  0  0  0  0  0  0  0  0  0
   13.7231   -4.7036   11.6237 H   0  0  0  0  0  0  0  0  0  0  0  0
   12.9567   -3.4769   13.5933 H   0  0  0  0  0  0  0  0  0  0  0  0
   11.1575   -2.3258   14.8159 H   0  0  0  0  0  0  0  0  0  0  0  0
    8.9041   -2.1492   13.8429 H   0  0  0  0  0  0  0  0  0  0  0  0
    8.4243   -3.1256   11.6235 H   0  0  0  0  0  0  0  0  0  0  0  0
  1  2  2  0  0  0  0
  2  3  1  0  0  0  0
  3  4  2  0  0  0  0
  3  5  1  0  0  0  0
  5  6  2  0  0  0  0
  6  7  1  0  0  0  0
  7  8  2  0  0  0  0
  8  9  1  0  0  0  0
  9 10  2  0  0  0  0
 10 11  1  0  0  0  0
 11 12  2  0  0  0  0
 12 13  1  0  0  0  0
 13 14  3  0  0  0  0
 12 15  1  0  0  0  0
 15 16  3  0  0  0  0
  8 17  1  0  0  0  0
 17 18  1  0  0  0  0
 18 19  1  0  0  0  0
 19 20  2  0  0  0  0
 20 21  1  0  0  0  0
 21 22  1  0  0  0  0
 21 23  1  0  0  0  0
  1 24  1  0  0  0  0
 24 25  2  0  0  0  0
 25 26  1  0  0  0  0
 26 27  1  0  0  0  0
 27 28  2  0  0  0  0
 28 29  1  0  0  0  0
 29 30  2  0  0  0  0
 30 31  1  0  0  0  0
 30 32  1  0  0  0  0
 32 33  2  0  0  0  0
 26 34  1  0  0  0  0
 34 35  2  0  0  0  0
 35 36  1  0  0  0  0
 36 37  2  0  0  0  0
 37 38  1  0  0  0  0
 37 39  1  0  0  0  0
 39 40  2  0  0  0  0
 25 41  1  0  0  0  0
 41 42  1  0  0  0  0
 42 43  1  0  0  0  0
 43 44  2  0  0  0  0
 44 45  1  0  0  0  0
 45 46  1  0  0  0  0
 46 47  2  0  0  0  0
 47 48  1  0  0  0  0
 48 49  2  0  0  0  0
 49 50  1  0  0  0  0
 49 51  1  0  0  0  0
 51 52  2  0  0  0  0
 45 53  1  0  0  0  0
 53 54  2  0  0  0  0
 54 55  1  0  0  0  0
 55 56  2  0  0  0  0
 56 57  1  0  0  0  0
 56 58  1  0  0  0  0
 58 59  2  0  0  0  0
 44 60  1  0  0  0  0
 60 61  1  0  0  0  0
 43 62  1  0  0  0  0
 62 63  2  0  0  0  0
 63 64  1  0  0  0  0
 64 65  2  0  0  0  0
 65 66  1  0  0  0  0
 66 67  2  0  0  0  0
 67 68  1  0  0  0  0
 68 69  1  0  0  0  0
 69 70  1  0  0  0  0
 68 71  2  0  0  0  0
 63 72  1  0  0  0  0
 72 73  1  0  0  0  0
 73 74  1  0  0  0  0
 74 75  1  0  0  0  0
 75 76  1  0  0  0  0
 76 77  1  0  0  0  0
 77 78  2  0  0  0  0
 78 79  1  0  0  0  0
 79 80  1  0  0  0  0
 77 81  1  0  0  0  0
 81 82  1  0  0  0  0
 82 83  1  0  0  0  0
 83 84  1  0  0  0  0
 84 85  1  0  0  0  0
 85 86  1  0  0  0  0
 86 87  2  0  0  0  0
 87 88  1  0  0  0  0
 88 89  2  0  0  0  0
 89 90  1  0  0  0  0
 90 91  1  0  0  0  0
 91 92  1  0  0  0  0
 90 93  2  0  0  0  0
 85 94  2  0  0  0  0
 94 95  1  0  0  0  0
 95 96  1  0  0  0  0
 96 97  1  0  0  0  0
 97 98  1  0  0  0  0
 98 99  1  0  0  0  0
 99100  1  0  0  0  0
100101  1  0  0  0  0
101102  1  0  0  0  0
102103  1  0  0  0  0
103104  1  0  0  0  0
101105  1  0  0  0  0
105106  1  0  0  0  0
 98107  1  0  0  0  0
107108  1  0  0  0  0
 94109  1  0  0  0  0
109110  2  0  0  0  0
110111  1  0  0  0  0
111112  1  0  0  0  0
112113  2  0  0  0  0
113114  1  0  0  0  0
114115  2  0  0  0  0
115116  1  0  0  0  0
115117  1  0  0  0  0
117118  2  0  0  0  0
111119  1  0  0  0  0
119120  2  0  0  0  0
120121  1  0  0  0  0
121122  2  0  0  0  0
122123  1  0  0  0  0
122124  1  0  0  0  0
124125  2  0  0  0  0
110126  1  0  0  0  0
126127  1  0  0  0  0
127128  1  0  0  0  0
128129  2  0  0  0  0
129130  1  0  0  0  0
130131  1  0  0  0  0
131132  2  0  0  0  0
132133  1  0  0  0  0
133134  2  0  0  0  0
134135  1  0  0  0  0
134136  1  0  0  0  0
136137  2  0  0  0  0
130138  1  0  0  0  0
138139  2  0  0  0  0
139140  1  0  0  0  0
140141  2  0  0  0  0
141142  1  0  0  0  0
141143  1  0  0  0  0
143144  2  0  0  0  0
129145  1  0  0  0  0
145146  1  0  0  0  0
128147  1  0  0  0  0
147148  2  0  0  0  0
148149  1  0  0  0  0
149150  2  0  0  0  0
149151  1  0  0  0  0
151152  2  0  0  0  0
152153  1  0  0  0  0
153154  2  0  0  0  0
154155  1  0  0  0  0
155156  2  0  0  0  0
156157  1  0  0  0  0
157158  2  0  0  0  0
158159  1  0  0  0  0
159160  2  0  0  0  0
152161  1  0  0  0  0
161162  2  0  0  0  0
162163  1  0  0  0  0
163164  3  0  0  0  0
162165  1  0  0  0  0
165166  3  0  0  0  0
 11  2  1  0  0  0  0
 23 17  1  0  0  0  0
 61 24  1  0  0  0  0
104 62  1  0  0  0  0
146109  1  0  0  0  0
161148  1  0  0  0  0
 10  5  1  0  0  0  0
 22 18  1  0  0  0  0
 33 27  1  0  0  0  0
 40 34  1  0  0  0  0
 60 41  2  0  0  0  0
 71 64  1  0  0  0  0
103 72  2  0  0  0  0
118112  1  0  0  0  0
125119  1  0  0  0  0
145126  2  0  0  0  0
160151  1  0  0  0  0
 23  7  1  0  0  0  0
 52 46  1  0  0  0  0
 59 53  1  0  0  0  0
102 74  2  0  0  0  0
137131  1  0  0  0  0
144138  1  0  0  0  0
160155  1  0  0  0  0
100 75  2  0  0  0  0
 80 76  2  0  0  0  0
 99 81  2  0  0  0  0
 97 82  2  0  0  0  0
 96 84  2  0  0  0  0
 93 86  1  0  0  0  0
  1167  1  0  0  0  0
  6168  1  0  0  0  0
  9169  1  0  0  0  0
 17170  1  0  0  0  0
 18171  1  0  0  0  0
 19172  1  0  0  0  0
 20173  1  0  0  0  0
 21174  1  0  0  0  0
 22175  1  0  0  0  0
 22176  1  0  0  0  0
 23177  1  0  0  0  0
 28178  1  0  0  0  0
 29179  1  0  0  0  0
 31180  1  0  0  0  0
 31181  1  0  0  0  0
 31182  1  0  0  0  0
 32183  1  0  0  0  0
 33184  1  0  0  0  0
 35185  1  0  0  0  0
 36186  1  0  0  0  0
 38187  1  0  0  0  0
 38188  1  0  0  0  0
 38189  1  0  0  0  0
 39190  1  0  0  0  0
 40191  1  0  0  0  0
 47192  1  0  0  0  0
 48193  1  0  0  0  0
 50194  1  0  0  0  0
 50195  1  0  0  0  0
 50196  1  0  0  0  0
 51197  1  0  0  0  0
 52198  1  0  0  0  0
 54199  1  0  0  0  0
 55200  1  0  0  0  0
 57201  1  0  0  0  0
 57202  1  0  0  0  0
 57203  1  0  0  0  0
 58204  1  0  0  0  0
 59205  1  0  0  0  0
 65206  1  0  0  0  0
 66207  1  0  0  0  0
 67208  1  0  0  0  0
 69209  1  0  0  0  0
 69210  1  0  0  0  0
 70211  1  0  0  0  0
 70212  1  0  0  0  0
 70213  1  0  0  0  0
 71214  1  0  0  0  0
 87215  1  0  0  0  0
 88216  1  0  0  0  0
 89217  1  0  0  0  0
 91218  1  0  0  0  0
 91219  1  0  0  0  0
 92220  1  0  0  0  0
 92221  1  0  0  0  0
 92222  1  0  0  0  0
 93223  1  0  0  0  0
105224  1  0  0  0  0
105225  1  0  0  0  0
106226  1  0  0  0  0
106227  1  0  0  0  0
106228  1  0  0  0  0
107229  1  0  0  0  0
107230  1  0  0  0  0
108231  1  0  0  0  0
108232  1  0  0  0  0
108233  1  0  0  0  0
113234  1  0  0  0  0
114235  1  0  0  0  0
116236  1  0  0  0  0
116237  1  0  0  0  0
116238  1  0  0  0  0
117239  1  0  0  0  0
118240  1  0  0  0  0
120241  1  0  0  0  0
121242  1  0  0  0  0
123243  1  0  0  0  0
123244  1  0  0  0  0
123245  1  0  0  0  0
124246  1  0  0  0  0
125247  1  0  0  0  0
132248  1  0  0  0  0
133249  1  0  0  0  0
135250  1  0  0  0  0
135251  1  0  0  0  0
135252  1  0  0  0  0
136253  1  0  0  0  0
137254  1  0  0  0  0
139255  1  0  0  0  0
140256  1  0  0  0  0
142257  1  0  0  0  0
142258  1  0  0  0  0
142259  1  0  0  0  0
143260  1  0  0  0  0
144261  1  0  0  0  0
147262  1  0  0  0  0
153263  1  0  0  0  0
154264  1  0  0  0  0
156265  1  0  0  0  0
157266  1  0  0  0  0
158267  1  0  0  0  0
159268  1  0  0  0  0
M  END
