219

C         -6.16270       -5.78930      -11.67950
C         -7.47860       -6.05550      -11.83100
C         -7.93990       -6.96340      -12.92030
O         -7.25050       -7.70940      -13.57720
C         -9.38630       -6.71090      -13.05130
C        -10.24680       -7.22960      -14.01700
C        -11.54580       -6.79840      -13.90010
C        -11.96430       -5.90980      -12.89920
C        -11.13040       -5.39600      -11.93570
C         -9.80440       -5.82750      -12.03260
C         -8.66330       -5.53410      -11.17090
C         -8.73450       -5.08340       -9.88080
C         -7.64530       -5.07370       -8.98290
N         -6.82840       -5.10610       -8.17740
C         -9.92710       -4.66920       -9.25240
N        -10.86460       -4.30760       -8.69760
C        -13.38840       -5.89810      -13.39420
C        -13.86140       -4.66770      -14.20770
C        -12.63200       -4.08550      -14.85970
C        -12.23700       -4.92820      -15.80470
C        -13.19230       -6.09590      -15.80880
C        -14.49450       -5.38170      -15.41270
C        -12.92350       -6.89010      -14.50650
C         -5.55210       -4.71980      -10.92930
C         -4.33210       -4.93410      -10.28200
C         -3.75470       -3.93750       -9.53070
C         -4.33780       -2.66980       -9.45340
C         -5.53670       -2.43980      -10.13700
C         -6.13730       -3.45030      -10.84940
C         -3.72160       -1.63280       -8.65550
C         -3.66970       -0.27210       -8.87710
C         -4.12620        0.39040      -10.10020
C         -4.82320        1.59320      -10.03440
C         -5.25750        2.20100      -11.19740
C         -5.00530        1.61950      -12.42780
C         -4.29480        0.42850      -12.51250
C         -4.05030       -0.24120      -13.83450
C         -5.06610       -1.36410      -14.05500
C         -3.85340       -0.17120      -11.34390
C         -3.04600        0.39890       -7.80220
S         -2.66910        2.08040       -7.50710
C         -1.95010        1.63220       -5.99660
C         -1.37300        2.23890       -4.86800
C         -1.20880        3.59680       -4.52020
C         -0.72170        3.92400       -3.20940
N         -0.67780        5.23040       -2.99870
S         -1.19680        5.98370       -4.33360
N         -1.50200        4.67220       -5.23450
C         -0.31440        2.88100       -2.35000
C          0.28930        2.90550       -1.07960
S          0.78450        4.04300        0.13090
C          1.40690        2.72230        1.09520
C          2.08680        2.65580        2.33200
C          2.49600        3.82970        3.10230
C          1.66320        4.94100        3.19870
C          2.08490        6.06030        3.89040
C          3.32720        6.08180        4.50050
C          4.16780        4.97780        4.42670
C          5.52550        4.98510        5.06970
C          6.61350        5.29940        4.04160
C          3.74590        3.86830        3.71340
C          2.40700        1.34990        2.66020
S          1.87660        0.20060        1.44440
C          1.22940        1.48050        0.48930
C          0.59100        1.58510       -0.75230
N          0.18030        0.73480       -1.74690
C         -0.39130        1.51620       -2.74330
C         -1.03560        1.19160       -3.96520
N         -1.44150       -0.00810       -4.51980
C         -1.98710        0.25980       -5.74650
C         -2.61640       -0.44760       -6.77980
S         -2.97960       -2.09720       -7.13780
C         -1.66960       -1.29520       -3.90500
C         -0.69860       -2.35820       -4.41750
C          0.86080       -0.53800       -1.86330
C          2.11140       -0.40990       -2.73010
C          2.97640        0.90530        3.90100
C          4.02210        0.03420        4.15190
N          4.79280       -0.62360        3.19520
C          4.18210       -1.49580        2.28920
C          3.07060       -2.24570        2.67250
C          2.43410       -3.05980        1.75730
C          2.88420       -3.15350        0.44580
C          2.17220       -4.03280       -0.53770
C          4.01080       -2.42610        0.08070
C          4.65740       -1.60800        0.98460
C          6.18650       -0.55350        3.31830
C          6.78670        0.61690        3.77850
C          8.15770        0.69110        3.91780
C          8.97070       -0.38820        3.59530
C         10.45680       -0.30980        3.76750
C          8.36540       -1.55130        3.13440
C          6.99470       -1.64220        3.00090
C          4.29530       -0.04570        5.53870
S          5.41910       -0.96510        6.46510
C          4.79630       -0.25560        7.96400
C          3.69860        0.59850        7.72760
N          2.87150        1.15480        8.65960
C          2.15600        2.32300        8.31390
C          0.79040        2.40320        8.56050
C          0.08960        3.53400        8.18640
C          0.72990        4.60090        7.56880
C         -0.03150        5.80660        7.11360
C          2.10240        4.52150        7.36000
C          2.81400        3.39730        7.72330
C          2.66810        0.60690        9.93210
C          2.58610       -0.77230       10.12310
C          2.42830       -1.28830       11.39150
C          2.34980       -0.45500       12.50550
C          2.23270       -1.03840       13.87850
C          2.38550        0.91760       12.30190
C          2.53810        1.44860       11.03470
C          3.46530        0.72560        6.33680
S          2.28870        1.56440        5.38220
C          5.41650       -0.65380        9.15110
C          5.41660        0.04970       10.33630
C          5.29170        1.51290       10.42020
O          5.13420        2.29550        9.50040
C          5.54240        1.85480       11.83680
C          5.55030        3.12460       12.40560
C          5.80870        3.13150       13.75620
C          6.05040        1.96250       14.48690
C          6.04920        0.70220       13.93610
C          5.78340        0.67450       12.56560
C          5.68220       -0.46070       11.65070
C          5.66840       -1.78790       12.00760
C          5.80920       -2.26040       13.32430
N          5.90050       -2.70700       14.37960
C          5.42060       -2.84030       11.10480
N          5.19190       -3.74590       10.43570
C          6.25140        2.71490       15.77980
C          7.70910        2.90350       16.24950
C          7.62810        4.05000       17.23140
C          7.39680        5.15820       16.53930
C          7.31790        4.77920       15.07820
C          8.33150        3.62800       15.04890
C          5.97920        4.01980       14.96460
H         -5.48970       -6.43830      -12.23170
H         -9.88600       -7.91090      -14.77160
H        -11.46070       -4.71000      -11.17290
H        -14.14020       -6.24060      -12.68610
H        -14.48540       -3.97260      -13.65230
H        -12.15750       -3.17650      -14.53890
H        -11.36620       -4.86420      -16.43070
H        -13.20730       -6.70060      -16.71160
H        -14.84420       -4.68900      -16.17670
H        -15.29780       -6.06440      -15.13940
H        -13.37170       -7.88160      -14.52440
H         -3.86720       -5.90700      -10.33980
H         -2.83030       -4.12570       -9.00390
H         -6.00210       -1.46770      -10.08410
H         -7.06070       -3.25620      -11.37690
H         -5.03550        2.03940       -9.07470
H         -5.80140        3.13240      -11.14310
H         -5.35670        2.09700      -13.33130
H         -4.13350        0.48720      -14.64310
H         -3.04250       -0.66150      -13.85440
H         -4.89270       -1.85290      -15.01090
H         -6.07780       -0.96400      -14.04820
H         -4.98750       -2.10770      -13.26410
H         -3.28410       -1.08840      -11.39810
H          0.68760        4.92240        2.73770
H          1.43970        6.92440        3.95420
H          3.64940        6.96390        5.03640
H          5.55450        5.73130        5.86610
H          5.72490        4.00760        5.51580
H          6.61240        4.55700        3.24640
H          6.44140        6.27670        3.59580
H          7.59310        5.30070        4.51400
H          4.40640        3.01870        3.61550
H         -1.62700       -1.18080       -2.82120
H         -2.68910       -1.60660       -4.16030
H          0.33480       -2.04170       -4.30680
H         -0.84700       -3.28700       -3.87320
H         -0.88330       -2.54720       -5.47150
H          1.14720       -0.83710       -0.85160
H          0.20390       -1.30370       -2.26290
H          1.85020       -0.07110       -3.73100
H          2.61330       -1.37070       -2.80000
H          2.79960        0.30910       -2.29190
H          2.70770       -2.17840        3.68770
H          1.57050       -3.63130        2.06540
H          2.54330       -3.87120       -1.54680
H          2.32220       -5.08180       -0.28260
H          1.10100       -3.83790       -0.52070
H          4.38470       -2.49200       -0.93120
H          5.52240       -1.03580        0.68380
H          6.17420        1.47130        4.02800
H          8.60390        1.60690        4.27810
H         10.96400       -0.97430        3.07180
H         10.73070       -0.60920        4.77990
H         10.81310        0.70590        3.61010
H          8.97690       -2.40690        2.88620
H          6.54260       -2.56120        2.65910
H          0.28330        1.57500        9.03400
H         -0.97400        3.58170        8.36970
H          0.51120        6.71880        7.35230
H         -1.01480        5.84800        7.57480
H         -0.15890        5.76920        6.03170
H          2.61760        5.35080        6.90080
H          3.88170        3.34490        7.58010
H          2.65150       -1.43800        9.27560
H          2.37510       -2.35920       11.52380
H          2.17120       -0.25550       14.62980
H          1.34560       -1.66600       13.95180
H          3.09700       -1.66370       14.10060
H          2.31170        1.58550       13.14790
H          2.57520        2.51810       10.89180
H          5.96960       -1.58430        9.10120
H          5.35790        4.00230       11.80820
H          6.24280       -0.19040       14.50750
H          5.57340        2.45630       16.59120
H          8.19690        1.99630       16.59560
H          7.68930        3.93260       18.29750
H          7.22590        6.15140       16.91190
H          7.44990        5.58120       14.35660
H          9.34590        3.96710       15.25310
H          8.31890        3.04970       14.12700
H          5.11930        4.63110       15.23350
