
  xtb     02272212043D
 energy: -265.719545385906 gnorm: 0.000637172557 xtb: 6.4.1 (unknown)
156175  0     0  0            999 V2000
    9.2766    5.3681    2.2988 C   0  0  0  0  0  0  0  0  0  0  0  0
   10.3654    4.6699    1.8818 C   0  0  0  0  0  0  0  0  0  0  0  0
   10.4167    3.6877    0.7642 C   0  0  0  0  0  0  0  0  0  0  0  0
    9.4981    3.2292    0.1199 O   0  0  0  0  0  0  0  0  0  0  0  0
   11.8490    3.4318    0.5242 C   0  0  0  0  0  0  0  0  0  0  0  0
   12.3865    2.5902   -0.4486 C   0  0  0  0  0  0  0  0  0  0  0  0
   13.7587    2.5353   -0.4442 C   0  0  0  0  0  0  0  0  0  0  0  0
   14.5426    3.2708    0.4561 C   0  0  0  0  0  0  0  0  0  0  0  0
   14.0264    4.1042    1.4186 C   0  0  0  0  0  0  0  0  0  0  0  0
   12.6283    4.1696    1.4366 C   0  0  0  0  0  0  0  0  0  0  0  0
   11.7344    4.9187    2.3121 C   0  0  0  0  0  0  0  0  0  0  0  0
   12.1193    5.6595    3.3981 C   0  0  0  0  0  0  0  0  0  0  0  0
   11.2475    6.3071    4.2999 C   0  0  0  0  0  0  0  0  0  0  0  0
   10.6164    6.8441    5.0953 N   0  0  0  0  0  0  0  0  0  0  0  0
   13.4584    5.8613    3.7946 C   0  0  0  0  0  0  0  0  0  0  0  0
   14.5218    6.0757    4.1708 N   0  0  0  0  0  0  0  0  0  0  0  0
   15.8353    2.7413   -0.1132 C   0  0  0  0  0  0  0  0  0  0  0  0
   16.6209    3.6887   -1.0444 C   0  0  0  0  0  0  0  0  0  0  0  0
   17.5429    2.7637   -1.8057 C   0  0  0  0  0  0  0  0  0  0  0  0
   16.8016    2.0645   -2.6556 C   0  0  0  0  0  0  0  0  0  0  0  0
   15.3659    2.5053   -2.4833 C   0  0  0  0  0  0  0  0  0  0  0  0
   15.5836    3.9836   -2.1357 C   0  0  0  0  0  0  0  0  0  0  0  0
   14.9615    1.9189   -1.1140 C   0  0  0  0  0  0  0  0  0  0  0  0
    7.8913    5.1359    1.9960 C   0  0  0  0  0  0  0  0  0  0  0  0
    7.0134    6.2320    1.9908 C   0  0  0  0  0  0  0  0  0  0  0  0
    5.6830    6.0790    1.6880 C   0  0  0  0  0  0  0  0  0  0  0  0
    5.1617    4.8097    1.4013 C   0  0  0  0  0  0  0  0  0  0  0  0
    6.0188    3.7067    1.4909 C   0  0  0  0  0  0  0  0  0  0  0  0
    7.3543    3.8617    1.7753 C   0  0  0  0  0  0  0  0  0  0  0  0
    3.7711    4.6223    1.0694 C   0  0  0  0  0  0  0  0  0  0  0  0
    2.8726    5.5045    0.5026 C   0  0  0  0  0  0  0  0  0  0  0  0
    3.1795    6.8221   -0.0603 C   0  0  0  0  0  0  0  0  0  0  0  0
    4.2650    6.9957   -0.9159 C   0  0  0  0  0  0  0  0  0  0  0  0
    4.4997    8.2329   -1.4831 C   0  0  0  0  0  0  0  0  0  0  0  0
    3.6594    9.2994   -1.2105 C   0  0  0  0  0  0  0  0  0  0  0  0
    2.5702    9.1417   -0.3636 C   0  0  0  0  0  0  0  0  0  0  0  0
    1.6181   10.2735   -0.1072 C   0  0  0  0  0  0  0  0  0  0  0  0
    0.4477   10.2104   -1.0908 C   0  0  0  0  0  0  0  0  0  0  0  0
    2.3383    7.8969    0.2027 C   0  0  0  0  0  0  0  0  0  0  0  0
    1.5817    4.9407    0.4163 C   0  0  0  0  0  0  0  0  0  0  0  0
    0.0690    5.5526   -0.2094 S   0  0  0  0  0  0  0  0  0  0  0  0
   -0.6696    4.0316    0.1592 C   0  0  0  0  0  0  0  0  0  0  0  0
   -1.9350    3.4248    0.1083 C   0  0  0  0  0  0  0  0  0  0  0  0
   -3.2052    3.9416   -0.2268 C   0  0  0  0  0  0  0  0  0  0  0  0
   -4.3624    3.1121   -0.0423 C   0  0  0  0  0  0  0  0  0  0  0  0
   -5.4889    3.7439   -0.3328 N   0  0  0  0  0  0  0  0  0  0  0  0
   -5.1258    5.2498   -0.8038 S   0  0  0  0  0  0  0  0  0  0  0  0
   -3.5161    5.1557   -0.6533 N   0  0  0  0  0  0  0  0  0  0  0  0
   -4.1828    1.7657    0.3429 C   0  0  0  0  0  0  0  0  0  0  0  0
   -5.0954    0.7018    0.4439 C   0  0  0  0  0  0  0  0  0  0  0  0
   -6.7949    0.4092    0.2920 S   0  0  0  0  0  0  0  0  0  0  0  0
   -6.5023   -1.2930    0.5655 C   0  0  0  0  0  0  0  0  0  0  0  0
   -7.3528   -2.4186    0.5794 C   0  0  0  0  0  0  0  0  0  0  0  0
   -8.7800   -2.3173    0.2644 C   0  0  0  0  0  0  0  0  0  0  0  0
   -9.3629   -3.1640   -0.6760 C   0  0  0  0  0  0  0  0  0  0  0  0
  -10.6968   -3.0134   -1.0010 C   0  0  0  0  0  0  0  0  0  0  0  0
  -11.4561   -2.0228   -0.4011 C   0  0  0  0  0  0  0  0  0  0  0  0
  -10.8894   -1.1674    0.5347 C   0  0  0  0  0  0  0  0  0  0  0  0
  -11.6869   -0.0533    1.1478 C   0  0  0  0  0  0  0  0  0  0  0  0
  -11.4891    1.2373    0.3501 C   0  0  0  0  0  0  0  0  0  0  0  0
   -9.5488   -1.3217    0.8562 C   0  0  0  0  0  0  0  0  0  0  0  0
   -6.6454   -3.5827    0.8132 C   0  0  0  0  0  0  0  0  0  0  0  0
   -4.9192   -3.2883    0.9835 S   0  0  0  0  0  0  0  0  0  0  0  0
   -5.1543   -1.5937    0.7641 C   0  0  0  0  0  0  0  0  0  0  0  0
   -4.3497   -0.4494    0.7011 C   0  0  0  0  0  0  0  0  0  0  0  0
   -3.0167   -0.1415    0.8035 N   0  0  0  0  0  0  0  0  0  0  0  0
   -2.8911    1.2243    0.5899 C   0  0  0  0  0  0  0  0  0  0  0  0
   -1.7740    2.0991    0.5998 C   0  0  0  0  0  0  0  0  0  0  0  0
   -0.4580    1.9358    0.9923 N   0  0  0  0  0  0  0  0  0  0  0  0
    0.2080    3.1015    0.7210 C   0  0  0  0  0  0  0  0  0  0  0  0
    1.4968    3.6283    0.8817 C   0  0  0  0  0  0  0  0  0  0  0  0
    3.0260    3.0798    1.4651 S   0  0  0  0  0  0  0  0  0  0  0  0
    0.1316    0.9610    1.8811 C   0  0  0  0  0  0  0  0  0  0  0  0
    1.1562    0.0752    1.1735 C   0  0  0  0  0  0  0  0  0  0  0  0
   -2.0529   -1.1899    0.5455 C   0  0  0  0  0  0  0  0  0  0  0  0
   -1.6904   -1.2445   -0.9372 C   0  0  0  0  0  0  0  0  0  0  0  0
   -7.1181   -4.9326    0.9828 C   0  0  0  0  0  0  0  0  0  0  0  0
   -6.2668   -6.0138    0.7221 C   0  0  0  0  0  0  0  0  0  0  0  0
   -6.6953   -7.3111    0.8626 C   0  0  0  0  0  0  0  0  0  0  0  0
   -8.0014   -7.5874    1.2897 C   0  0  0  0  0  0  0  0  0  0  0  0
   -8.8281   -6.5012    1.6269 C   0  0  0  0  0  0  0  0  0  0  0  0
   -8.4072   -5.2055    1.4642 C   0  0  0  0  0  0  0  0  0  0  0  0
   -8.5099   -8.9142    1.4754 C   0  0  0  0  0  0  0  0  0  0  0  0
   -8.1741  -10.0634    0.8248 C   0  0  0  0  0  0  0  0  0  0  0  0
   -7.4442  -10.1703   -0.4672 C   0  0  0  0  0  0  0  0  0  0  0  0
   -6.8773   -9.2994   -1.0906 O   0  0  0  0  0  0  0  0  0  0  0  0
   -7.6170  -11.5697   -0.9029 C   0  0  0  0  0  0  0  0  0  0  0  0
   -7.1648  -12.1593   -2.0480 C   0  0  0  0  0  0  0  0  0  0  0  0
   -7.4420  -13.5253   -2.2749 C   0  0  0  0  0  0  0  0  0  0  0  0
   -6.9920  -14.1870   -3.4357 C   0  0  0  0  0  0  0  0  0  0  0  0
   -7.2701  -15.5090   -3.6452 C   0  0  0  0  0  0  0  0  0  0  0  0
   -8.0149  -16.2057   -2.6837 C   0  0  0  0  0  0  0  0  0  0  0  0
   -8.2787  -17.5061   -2.9079 F   0  0  0  0  0  0  0  0  0  0  0  0
   -8.4748  -15.6129   -1.5411 C   0  0  0  0  0  0  0  0  0  0  0  0
   -8.1961  -14.2518   -1.3078 C   0  0  0  0  0  0  0  0  0  0  0  0
   -8.6532  -13.6126   -0.1322 C   0  0  0  0  0  0  0  0  0  0  0  0
   -8.3626  -12.2893    0.0711 C   0  0  0  0  0  0  0  0  0  0  0  0
   -8.6801  -11.3831    1.1685 C   0  0  0  0  0  0  0  0  0  0  0  0
   -9.2723  -11.7452    2.3500 C   0  0  0  0  0  0  0  0  0  0  0  0
   -9.4877  -10.8908    3.4523 C   0  0  0  0  0  0  0  0  0  0  0  0
   -9.6774  -10.2702    4.3999 N   0  0  0  0  0  0  0  0  0  0  0  0
   -9.7211  -13.0509    2.6397 C   0  0  0  0  0  0  0  0  0  0  0  0
  -10.1145  -14.0890    2.9319 N   0  0  0  0  0  0  0  0  0  0  0  0
    9.4537    6.2433    2.9137 H   0  0  0  0  0  0  0  0  0  0  0  0
   11.7446    2.0421   -1.1204 H   0  0  0  0  0  0  0  0  0  0  0  0
   14.6429    4.6625    2.1028 H   0  0  0  0  0  0  0  0  0  0  0  0
   16.4747    2.2040    0.5845 H   0  0  0  0  0  0  0  0  0  0  0  0
   17.0810    4.5378   -0.5467 H   0  0  0  0  0  0  0  0  0  0  0  0
   18.5963    2.6761   -1.6147 H   0  0  0  0  0  0  0  0  0  0  0  0
   17.1118    1.2761   -3.3160 H   0  0  0  0  0  0  0  0  0  0  0  0
   14.6826    2.2767   -3.2967 H   0  0  0  0  0  0  0  0  0  0  0  0
   14.6908    4.4908   -1.7745 H   0  0  0  0  0  0  0  0  0  0  0  0
   16.0090    4.5433   -2.9671 H   0  0  0  0  0  0  0  0  0  0  0  0
   15.0175    0.8324   -1.0828 H   0  0  0  0  0  0  0  0  0  0  0  0
    7.3998    7.2169    2.2104 H   0  0  0  0  0  0  0  0  0  0  0  0
    5.0292    6.9369    1.6890 H   0  0  0  0  0  0  0  0  0  0  0  0
    5.6221    2.7162    1.3193 H   0  0  0  0  0  0  0  0  0  0  0  0
    7.9841    2.9916    1.8520 H   0  0  0  0  0  0  0  0  0  0  0  0
    4.9123    6.1600   -1.1370 H   0  0  0  0  0  0  0  0  0  0  0  0
    5.3407    8.3655   -2.1478 H   0  0  0  0  0  0  0  0  0  0  0  0
    3.8496   10.2627   -1.6614 H   0  0  0  0  0  0  0  0  0  0  0  0
    2.1354   11.2284   -0.2195 H   0  0  0  0  0  0  0  0  0  0  0  0
    1.2333   10.2096    0.9126 H   0  0  0  0  0  0  0  0  0  0  0  0
   -0.2489   11.0245   -0.9054 H   0  0  0  0  0  0  0  0  0  0  0  0
   -0.0829    9.2666   -0.9870 H   0  0  0  0  0  0  0  0  0  0  0  0
    0.8094   10.2883   -2.1137 H   0  0  0  0  0  0  0  0  0  0  0  0
    1.4982    7.7639    0.8690 H   0  0  0  0  0  0  0  0  0  0  0  0
   -8.7663   -3.9280   -1.1522 H   0  0  0  0  0  0  0  0  0  0  0  0
  -11.1465   -3.6690   -1.7320 H   0  0  0  0  0  0  0  0  0  0  0  0
  -12.4983   -1.9111   -0.6636 H   0  0  0  0  0  0  0  0  0  0  0  0
  -11.3650    0.1090    2.1785 H   0  0  0  0  0  0  0  0  0  0  0  0
  -12.7467   -0.3154    1.1569 H   0  0  0  0  0  0  0  0  0  0  0  0
  -12.0607    2.0493    0.7934 H   0  0  0  0  0  0  0  0  0  0  0  0
  -10.4381    1.5168    0.3371 H   0  0  0  0  0  0  0  0  0  0  0  0
  -11.8189    1.1004   -0.6773 H   0  0  0  0  0  0  0  0  0  0  0  0
   -9.0984   -0.6669    1.5882 H   0  0  0  0  0  0  0  0  0  0  0  0
   -0.6672    0.3803    2.3445 H   0  0  0  0  0  0  0  0  0  0  0  0
    0.6426    1.5096    2.6810 H   0  0  0  0  0  0  0  0  0  0  0  0
    0.7357   -0.3954    0.2894 H   0  0  0  0  0  0  0  0  0  0  0  0
    1.5071   -0.6962    1.8537 H   0  0  0  0  0  0  0  0  0  0  0  0
    2.0101    0.6716    0.8644 H   0  0  0  0  0  0  0  0  0  0  0  0
   -2.5248   -2.1293    0.8443 H   0  0  0  0  0  0  0  0  0  0  0  0
   -1.1595   -1.0624    1.1494 H   0  0  0  0  0  0  0  0  0  0  0  0
   -2.5812   -1.4223   -1.5355 H   0  0  0  0  0  0  0  0  0  0  0  0
   -1.2459   -0.3040   -1.2570 H   0  0  0  0  0  0  0  0  0  0  0  0
   -0.9844   -2.0503   -1.1190 H   0  0  0  0  0  0  0  0  0  0  0  0
   -5.2561   -5.8195    0.3923 H   0  0  0  0  0  0  0  0  0  0  0  0
   -6.0106   -8.1186    0.6676 H   0  0  0  0  0  0  0  0  0  0  0  0
   -9.8214   -6.6946    2.0056 H   0  0  0  0  0  0  0  0  0  0  0  0
   -9.0610   -4.3896    1.7295 H   0  0  0  0  0  0  0  0  0  0  0  0
   -9.2975   -8.9842    2.2177 H   0  0  0  0  0  0  0  0  0  0  0  0
   -6.5998  -11.5893   -2.7705 H   0  0  0  0  0  0  0  0  0  0  0  0
   -6.4205  -13.6287   -4.1619 H   0  0  0  0  0  0  0  0  0  0  0  0
   -6.9338  -16.0301   -4.5274 H   0  0  0  0  0  0  0  0  0  0  0  0
   -9.0439  -16.1807   -0.8217 H   0  0  0  0  0  0  0  0  0  0  0  0
   -9.2270  -14.1879    0.5763 H   0  0  0  0  0  0  0  0  0  0  0  0
  1  2  2  0  0  0  0
  2  3  1  0  0  0  0
  3  4  2  0  0  0  0
  3  5  1  0  0  0  0
  5  6  2  0  0  0  0
  6  7  1  0  0  0  0
  7  8  2  0  0  0  0
  8  9  1  0  0  0  0
  9 10  2  0  0  0  0
 10 11  1  0  0  0  0
 11 12  2  0  0  0  0
 12 13  1  0  0  0  0
 13 14  3  0  0  0  0
 12 15  1  0  0  0  0
 15 16  3  0  0  0  0
  8 17  1  0  0  0  0
 17 18  1  0  0  0  0
 18 19  1  0  0  0  0
 19 20  2  0  0  0  0
 20 21  1  0  0  0  0
 21 22  1  0  0  0  0
 21 23  1  0  0  0  0
  1 24  1  0  0  0  0
 24 25  2  0  0  0  0
 25 26  1  0  0  0  0
 26 27  2  0  0  0  0
 27 28  1  0  0  0  0
 28 29  2  0  0  0  0
 27 30  1  0  0  0  0
 30 31  2  0  0  0  0
 31 32  1  0  0  0  0
 32 33  2  0  0  0  0
 33 34  1  0  0  0  0
 34 35  2  0  0  0  0
 35 36  1  0  0  0  0
 36 37  1  0  0  0  0
 37 38  1  0  0  0  0
 36 39  2  0  0  0  0
 31 40  1  0  0  0  0
 40 41  1  0  0  0  0
 41 42  1  0  0  0  0
 42 43  1  0  0  0  0
 43 44  1  0  0  0  0
 44 45  1  0  0  0  0
 45 46  2  0  0  0  0
 46 47  1  0  0  0  0
 47 48  1  0  0  0  0
 45 49  1  0  0  0  0
 49 50  1  0  0  0  0
 50 51  1  0  0  0  0
 51 52  1  0  0  0  0
 52 53  1  0  0  0  0
 53 54  1  0  0  0  0
 54 55  2  0  0  0  0
 55 56  1  0  0  0  0
 56 57  2  0  0  0  0
 57 58  1  0  0  0  0
 58 59  1  0  0  0  0
 59 60  1  0  0  0  0
 58 61  2  0  0  0  0
 53 62  2  0  0  0  0
 62 63  1  0  0  0  0
 63 64  1  0  0  0  0
 64 65  1  0  0  0  0
 65 66  1  0  0  0  0
 66 67  1  0  0  0  0
 67 68  1  0  0  0  0
 68 69  1  0  0  0  0
 69 70  1  0  0  0  0
 70 71  1  0  0  0  0
 71 72  1  0  0  0  0
 69 73  1  0  0  0  0
 73 74  1  0  0  0  0
 66 75  1  0  0  0  0
 75 76  1  0  0  0  0
 62 77  1  0  0  0  0
 77 78  2  0  0  0  0
 78 79  1  0  0  0  0
 79 80  2  0  0  0  0
 80 81  1  0  0  0  0
 81 82  2  0  0  0  0
 80 83  1  0  0  0  0
 83 84  2  0  0  0  0
 84 85  1  0  0  0  0
 85 86  2  0  0  0  0
 85 87  1  0  0  0  0
 87 88  2  0  0  0  0
 88 89  1  0  0  0  0
 89 90  2  0  0  0  0
 90 91  1  0  0  0  0
 91 92  2  0  0  0  0
 92 93  1  0  0  0  0
 92 94  1  0  0  0  0
 94 95  2  0  0  0  0
 95 96  1  0  0  0  0
 96 97  2  0  0  0  0
 97 98  1  0  0  0  0
 98 99  2  0  0  0  0
 99100  1  0  0  0  0
100101  3  0  0  0  0
 99102  1  0  0  0  0
102103  3  0  0  0  0
 11  2  1  0  0  0  0
 23 17  1  0  0  0  0
 29 24  1  0  0  0  0
 72 30  1  0  0  0  0
 82 77  1  0  0  0  0
 98 84  1  0  0  0  0
 10  5  1  0  0  0  0
 22 18  1  0  0  0  0
 39 32  1  0  0  0  0
 71 40  2  0  0  0  0
 97 87  1  0  0  0  0
 23  7  1  0  0  0  0
 70 42  2  0  0  0  0
 95 89  1  0  0  0  0
 68 43  2  0  0  0  0
 48 44  2  0  0  0  0
 67 49  2  0  0  0  0
 65 50  2  0  0  0  0
 64 52  2  0  0  0  0
 61 54  1  0  0  0  0
  1104  1  0  0  0  0
  6105  1  0  0  0  0
  9106  1  0  0  0  0
 17107  1  0  0  0  0
 18108  1  0  0  0  0
 19109  1  0  0  0  0
 20110  1  0  0  0  0
 21111  1  0  0  0  0
 22112  1  0  0  0  0
 22113  1  0  0  0  0
 23114  1  0  0  0  0
 25115  1  0  0  0  0
 26116  1  0  0  0  0
 28117  1  0  0  0  0
 29118  1  0  0  0  0
 33119  1  0  0  0  0
 34120  1  0  0  0  0
 35121  1  0  0  0  0
 37122  1  0  0  0  0
 37123  1  0  0  0  0
 38124  1  0  0  0  0
 38125  1  0  0  0  0
 38126  1  0  0  0  0
 39127  1  0  0  0  0
 55128  1  0  0  0  0
 56129  1  0  0  0  0
 57130  1  0  0  0  0
 59131  1  0  0  0  0
 59132  1  0  0  0  0
 60133  1  0  0  0  0
 60134  1  0  0  0  0
 60135  1  0  0  0  0
 61136  1  0  0  0  0
 73137  1  0  0  0  0
 73138  1  0  0  0  0
 74139  1  0  0  0  0
 74140  1  0  0  0  0
 74141  1  0  0  0  0
 75142  1  0  0  0  0
 75143  1  0  0  0  0
 76144  1  0  0  0  0
 76145  1  0  0  0  0
 76146  1  0  0  0  0
 78147  1  0  0  0  0
 79148  1  0  0  0  0
 81149  1  0  0  0  0
 82150  1  0  0  0  0
 83151  1  0  0  0  0
 88152  1  0  0  0  0
 90153  1  0  0  0  0
 91154  1  0  0  0  0
 94155  1  0  0  0  0
 96156  1  0  0  0  0
M  END
