239

C         -5.36720        3.18360        1.89380
C         -4.52090        3.20830        0.80690
C         -3.18020        2.60430        0.82930
O         -2.56920        2.16910        1.78930
C         -2.76970        2.48440       -0.58280
C         -1.60500        1.89420       -1.06670
C         -1.51230        1.88150       -2.43840
C         -2.50730        2.41080       -3.27020
C         -3.65710        3.00660       -2.80250
C         -3.77000        3.03010       -1.40980
C         -4.84610        3.53180       -0.55530
C         -5.92420        4.27790       -0.96160
C         -6.89870        4.78580       -0.08070
N         -7.72390        5.23950        0.57740
C         -6.15870        4.67760       -2.29000
N         -6.39290        5.04780       -3.35220
C         -1.75430        2.05070       -4.52950
C         -2.22210        0.79950       -5.30270
C         -1.03410        0.45140       -6.17150
C         -0.08350       -0.03370       -5.38290
C         -0.61230       -0.02040       -3.96720
C         -2.09770       -0.29560       -4.23520
C         -0.63950        1.47660       -3.59920
C         -4.94440        3.03050        3.22160
C         -3.76420        3.46580        3.86070
N         -2.92210        4.42110        3.37870
C         -3.33190        5.30590        2.36200
C         -4.53180        6.00290        2.47070
C         -4.94990        6.82310        1.44420
C         -4.19390        6.96250        0.28310
C         -4.67880        7.82530       -0.83970
C         -2.98000        6.29340        0.20060
C         -2.54320        5.47810        1.22910
C         -1.57800        4.50270        3.80360
C         -1.04530        5.74370        4.13290
C          0.26910        5.84390        4.54770
C          1.07760        4.71850        4.64200
C          2.49450        4.81600        5.11860
C          0.54060        3.48640        4.28600
C         -0.76950        3.37150        3.86720
C         -3.60500        2.79910        5.09520
S         -2.31150        2.64880        6.24510
C         -2.99330        1.14030        6.87340
C         -4.25310        0.89460        6.33580
N         -5.01510       -0.26500        6.49120
C         -4.48840       -1.48050        6.03090
C         -4.98850       -2.69040        6.50940
C         -4.47130       -3.88590        6.05640
C         -3.43600       -3.92230        5.12790
C         -2.86650       -5.22570        4.66310
C         -2.93480       -2.71380        4.66420
C         -3.45360       -1.50910        5.09840
C         -6.39360       -0.07360        6.66500
C         -6.83030        0.96920        7.47930
C         -8.17920        1.19690        7.66500
C         -9.13190        0.39520        7.05170
C        -10.59750        0.62400        7.26100
C         -8.68940       -0.63630        6.23080
C         -7.34460       -0.86850        6.02910
C         -4.60180        1.87380        5.37720
S         -5.90180        1.94900        4.24890
C         -2.06070        0.20680        7.41280
C         -2.25060       -1.06170        7.96280
C         -3.38000       -1.42480        8.80200
C         -4.23560       -0.44060        9.30280
C         -5.30750       -0.78510       10.10090
C         -5.53470       -2.10880       10.43460
C         -4.67370       -3.10160        9.98270
C         -4.86320       -4.53360       10.39310
C         -4.02810       -4.84370       11.63670
C         -3.60500       -2.74900        9.17610
C         -1.16570       -1.91220        7.60950
S         -1.02320       -3.65430        7.40260
C          0.29440       -3.42710        6.28680
C          0.91430       -4.07450        5.19440
C          0.81050       -5.37030        4.64080
C          1.35830       -5.62580        3.33100
N          1.16510       -6.87570        2.94240
S          0.37000       -7.66680        4.10880
N          0.23030       -6.44150        5.15870
C          1.91960       -4.55890        2.59060
C          2.22480       -4.40340        1.22500
S          2.16400       -5.29640       -0.26280
C          2.58080       -3.83970       -1.14410
C          2.69510       -3.53350       -2.51460
C          2.27890       -4.46210       -3.56360
C          1.44820       -4.02750       -4.59490
C          1.01120       -4.92320       -5.55020
C          1.38980       -6.25420       -5.48520
C          2.20910       -6.70550       -4.45820
C          2.58130       -8.15590       -4.34770
C          1.61750       -8.87710       -3.40330
C          2.63980       -5.80230       -3.49860
C          3.07150       -2.21000       -2.71360
S          3.20830       -1.33270       -1.19440
C          2.79100       -2.74590       -0.30310
C          2.55960       -3.05890        1.03870
N          2.48770       -2.37350        2.22220
C          2.08100       -3.27830        3.18720
C          1.68090       -3.08060        4.52620
N          1.62810       -1.90220        5.24850
C          0.71750       -2.09840        6.25370
C         -0.12280       -1.24660        6.97220
S         -0.42030        0.44110        6.79920
C          2.65290       -0.88620        5.35880
C          3.20860       -0.80610        6.77930
C          2.32500       -0.93370        2.18020
C          0.86080       -0.52170        2.31380
C          3.48630       -1.57970       -3.92990
C          3.43560       -0.19240       -4.18120
C          2.86080        0.81140       -3.35840
C          2.95580        2.06360       -3.88530
C          2.55530        3.34180       -3.29400
O          2.75270        4.41470       -3.80920
O          1.96410        3.17680       -2.09750
C          1.60730        4.36840       -1.39640
C          0.33180        5.00300       -1.93190
S          3.74800        2.09370       -5.42780
C          3.97720        0.37950       -5.37630
C          4.55340       -0.36970       -6.40560
C          4.54110       -1.76450       -6.17520
C          4.06650       -2.34670       -4.96290
N          4.33170       -3.66180       -5.03060
N          4.88770       -3.82240       -6.19250
C          5.26370       -5.12320       -6.66550
C          4.25500       -5.61920       -7.69590
N          5.04970       -2.75400       -6.92260
C          5.09580        0.09680       -7.63980
C          5.81360        1.22930       -7.88000
C          6.47950        2.05980       -6.85340
O          6.39670        1.94700       -5.64590
C          7.34750        2.99540       -7.58930
C          8.18760        3.96010       -7.03910
C          8.89500        4.68250       -7.96950
C          8.77790        4.46090       -9.34830
C          7.95200        3.51370       -9.90460
C          7.22270        2.76660       -8.97460
C          6.25730        1.69240       -9.18380
C          5.79610        1.25140      -10.39580
C          6.24430        1.73050      -11.64450
N          6.57110        2.06250      -12.69400
C          4.78910        0.27910      -10.57690
N          3.96880       -0.48730      -10.81990
C          9.78580        5.53060       -9.68670
C         11.21260        5.07720      -10.08320
C         11.43800        3.74150       -9.41940
C         11.54860        3.95150       -8.11440
C         11.39980        5.43320       -7.87230
C         12.03990        5.98290       -9.15710
C          9.91560        5.77820       -8.15070
H         -6.43680        3.14800        1.72170
H         -0.85990        1.49770       -0.39430
H         -4.41620        3.41260       -3.45070
H         -1.50540        2.88380       -5.18430
H         -3.18040        0.90380       -5.80420
H         -0.98670        0.64040       -7.22770
H          0.91500       -0.32790       -5.65160
H         -0.10520       -0.66010       -3.24860
H         -2.26710       -1.29070       -4.64390
H         -2.73890       -0.14380       -3.36850
H          0.34260        1.93860       -3.63010
H         -5.13830        5.89010        3.35700
H         -5.88520        7.35390        1.53680
H         -4.25440        7.50520       -1.78860
H         -4.38690        8.86210       -0.66960
H         -5.76380        7.79040       -0.90940
H         -2.37440        6.39630       -0.68850
H         -1.59990        4.95730        1.15220
H         -1.66680        6.62480        4.06610
H          0.66900        6.81300        4.80850
H          2.59340        4.33740        6.09280
H          3.16840        4.31010        4.42890
H          2.80430        5.85340        5.21250
H          1.16060        2.60270        4.33730
H         -1.16960        2.41980        3.55700
H         -5.77990       -2.68330        7.24320
H         -4.87430       -4.81300        6.43750
H         -2.10510       -5.57460        5.36280
H         -2.39980       -5.11800        3.68590
H         -3.64050       -5.98750        4.60340
H         -2.12980       -2.71170        3.94190
H         -3.06110       -0.58700        4.69460
H         -6.10440        1.60440        7.96530
H         -8.49500        2.01220        8.30020
H        -10.77520        1.56480        7.77560
H        -11.12150        0.64180        6.30710
H        -11.02370       -0.18140        7.85950
H         -9.41370       -1.26100        5.72790
H         -7.02780       -1.65580        5.36230
H         -4.04420        0.59760        9.08150
H         -5.97040       -0.01590       10.46890
H         -6.37850       -2.37210       11.05590
H         -4.55420       -5.19320        9.58000
H         -5.91670       -4.72200       10.60890
H         -4.32190       -4.19720       12.46080
H         -2.97270       -4.67930       11.43170
H         -4.16630       -5.87860       11.94050
H         -2.94880       -3.52690        8.81890
H          1.14080       -2.99260       -4.63980
H          0.36910       -4.58300       -6.34980
H          1.04130       -6.95000       -6.23580
H          3.59810       -8.24900       -3.96050
H          2.54440       -8.62690       -5.33220
H          1.88700       -9.92660       -3.31250
H          1.64610       -8.42260       -2.41560
H          0.59940       -8.81100       -3.78050
H          3.28550       -6.13960       -2.70120
H          2.23710        0.08840        5.07920
H          3.46750       -1.15710        4.68630
H          3.56570       -1.78140        7.10270
H          2.44860       -0.46280        7.47540
H          4.03890       -0.10520        6.80330
H          2.93310       -0.44670        2.93970
H          2.70420       -0.61120        1.20750
H          0.45470       -0.81770        3.27750
H          0.26660       -0.99090        1.53250
H          0.77000        0.55680        2.21630
H          2.37580        0.63270       -2.41760
H          1.48200        4.05180       -0.35860
H          2.43620        5.08020       -1.47190
H          0.09850        5.88310       -1.33880
H         -0.49780        4.30210       -1.87460
H          0.47310        5.30440       -2.96670
H          5.28650       -5.78100       -5.79530
H          6.25750       -5.04850       -7.11300
H          3.26860       -5.69620       -7.24440
H          4.20960       -4.92800       -8.53370
H          4.55320       -6.59750       -8.06130
H          4.96630       -0.60820       -8.45250
H          8.24520        4.09890       -5.97080
H          7.87490        3.35390      -10.96710
H          9.42340        6.34860      -10.30620
H         11.42160        5.12490      -11.14860
H         11.43570        2.80410       -9.94410
H         11.65660        3.22430       -7.33100
H         11.78020        5.80540       -6.92460
H         11.85710        7.04530       -9.31270
H         13.10850        5.78100       -9.21500
H          9.63840        6.75820       -7.76710
