219

C          3.21040       -9.02420        1.94100
C          2.64640       -9.62860        3.04590
C          1.75720       -8.93530        3.98930
O          1.43260       -7.76090        3.98110
C          1.22420       -9.98490        4.88270
C          0.32400       -9.81590        5.92980
C          0.01930      -10.97840        6.59790
C          0.55660      -12.22000        6.24000
C          1.43880      -12.40150        5.20030
C          1.77170      -11.22940        4.51830
C          2.68090      -11.01960        3.39260
C          3.54240      -11.95310        2.86670
C          3.64280      -13.28280        3.31170
N          3.78710      -14.37360        3.64490
C          4.49660      -11.66780        1.87110
N          5.31930      -11.50050        1.08630
C         -0.17560      -12.94520        7.34300
C          0.65940      -13.33140        8.58190
C         -0.37520      -13.56840        9.65810
C         -0.87950      -12.38950        9.99980
C         -0.19450      -11.33620        9.15960
C          1.19800      -11.96640        9.02900
C         -0.77120      -11.55790        7.74520
C          3.46160       -7.65790        1.81420
C          3.66980       -6.66040        2.79140
N          3.93110       -6.84900        4.11370
C          4.37010       -8.06490        4.65930
C          5.32990       -8.84960        4.02240
C          5.71080      -10.05600        4.57110
C          5.15270      -10.51710        5.76180
C          5.53620      -11.85570        6.30920
C          4.23380       -9.70590        6.41310
C          3.84680       -8.49200        5.87710
C          3.80290       -5.75690        5.00500
C          2.61590       -5.03570        5.07560
C          2.52670       -3.94520        5.91880
C          3.60680       -3.55280        6.70110
C          3.51910       -2.33260        7.56370
C          4.77230       -4.30770        6.65120
C          4.87320       -5.40460        5.81870
C          3.71300       -5.38460        2.18150
S          3.84840       -3.77030        2.78160
C          3.86370       -3.12430        1.14430
C          3.71140       -4.11880        0.19140
N          3.69340       -3.94170       -1.19210
C          2.70150       -3.15420       -1.77980
C          1.44050       -3.05180       -1.19430
C          0.48490       -2.21610       -1.74060
C          0.75370       -1.46860       -2.87820
C         -0.27740       -0.55530       -3.46970
C          2.00440       -1.60050       -3.47490
C          2.96770       -2.42950       -2.94170
C          4.53910       -4.75800       -1.95500
C          4.13860       -5.27130       -3.18520
C          4.99000       -6.08310       -3.90820
C          6.24970       -6.41780       -3.42780
C          7.15850       -7.32530       -4.19840
C          6.64010       -5.90660       -2.19570
C          5.80430       -5.08400       -1.46950
C          3.64730       -5.39740        0.79620
S          3.52580       -6.99770        0.16880
C          3.98790       -1.70160        1.02930
C          4.74160       -0.89110        1.86470
C          5.69940       -1.41970        2.83750
C          5.71440       -0.95490        4.14820
C          6.56330       -1.53550        5.07130
C          7.39370       -2.57920        4.70180
C          7.41600       -3.03370        3.38940
C          8.28220       -4.18830        2.97190
C          7.44090       -5.45100        2.77300
C          6.57560       -2.43470        2.46540
C          4.46790        0.47350        1.64730
S          5.03100        1.95160        2.39660
C          3.94360        2.85350        1.38960
C          3.45550        4.16310        1.24130
C          3.73600        5.33660        1.97320
C          2.93590        6.50470        1.74260
N          3.26300        7.50890        2.54120
S          4.47960        7.02780        3.49560
N          4.63160        5.51770        2.93150
C          1.96010        6.47180        0.72440
C          1.07270        7.45960        0.26660
S          0.60010        9.07880        0.65330
C         -0.56130        9.02630       -0.65280
C         -1.51860        9.95310       -1.11950
C         -1.62730       11.31590       -0.59410
C         -1.59630       11.54750        0.77780
C         -1.67390       12.84110        1.25920
C         -1.77660       13.90770        0.38420
C         -1.80130       13.69540       -0.98950
C         -1.86580       14.85160       -1.94540
C         -0.45650       15.31570       -2.31810
C         -1.71920       12.39730       -1.46660
C         -2.25660        9.43170       -2.16520
S         -1.72170        7.81880       -2.61550
C         -0.54660        7.81850       -1.35220
C          0.38750        6.91900       -0.82170
N          0.81610        5.63830       -1.05700
C          1.76130        5.32370       -0.09390
C          2.44690        4.12310        0.23500
N          2.33690        2.81530       -0.21500
C          3.22240        2.05650        0.50270
C          3.52200        0.69690        0.64780
S          2.96870       -0.77550       -0.05780
C          1.24710        2.12090       -0.86420
C          0.11650        1.83380        0.12180
C          0.54600        5.02990       -2.34030
C         -0.84760        4.40560       -2.41060
C         -3.44170        9.93580       -2.81520
C         -3.79000        9.48200       -4.09310
C         -4.97590        9.84920       -4.68250
C         -5.86630       10.69930       -4.01660
C         -5.48440       11.21280       -2.76830
C         -4.31330       10.82210       -2.16680
C         -7.14390       11.07470       -4.56040
C         -7.99340       10.28980       -5.27180
C         -7.92750        8.80570       -5.37750
O         -7.01880        8.06570       -5.07020
C         -9.25390        8.38770       -5.87030
C         -9.69490        7.07730       -6.04800
C        -10.98460        6.97890       -6.50990
C        -11.78440        8.10110       -6.76850
C        -11.36480        9.39770       -6.59350
C        -10.04970        9.52090       -6.13060
C         -9.27010       10.71450       -5.82650
C         -9.63970       12.00630       -6.09040
C        -10.87430       12.38200       -6.65980
N        -11.86170       12.75030       -7.11520
C         -8.82530       13.13790       -5.86930
N         -8.21950       14.10480       -5.73990
C        -12.96100        7.26170       -7.20090
C        -13.21530        7.16070       -8.71980
C        -14.08550        5.93250       -8.85970
C        -13.32720        4.87080       -8.61770
C        -11.93170        5.36360       -8.30950
C        -11.87980        6.59620       -9.22150
C        -12.06840        6.01140       -6.91520
H          3.43140       -9.63070        1.07090
H         -0.07330       -8.84180        6.16970
H          1.83480      -13.36510        4.92570
H         -0.85770      -13.73190        7.02620
H          1.38230      -14.12510        8.41400
H         -0.66520      -14.54180       10.00790
H         -1.67480      -12.18160       10.69150
H         -0.24930      -10.31180        9.51900
H          1.83470      -11.48140        8.29120
H          1.71800      -12.02000        9.98440
H         -1.85020      -11.42120        7.69910
H          5.77160       -8.51470        3.09590
H          6.44880      -10.65860        4.06210
H          6.61910      -11.94830        6.37200
H          5.17610      -12.64880        5.65350
H          5.11120      -12.00910        7.29790
H          3.80270      -10.03050        7.34920
H          3.12390       -7.87430        6.38860
H          1.77520       -5.35470        4.47930
H          1.60340       -3.38680        5.96810
H          3.72920       -1.44660        6.96390
H          4.24290       -2.37330        8.37380
H          2.52180       -2.22370        7.98420
H          5.61520       -4.03010        7.26650
H          5.78200       -5.98860        5.79040
H          1.21800       -3.62350       -0.30520
H         -0.48460       -2.14330       -1.26920
H         -1.03860       -0.30070       -2.73610
H          0.18260        0.36080       -3.83540
H         -0.76940       -1.04050       -4.31320
H          2.22940       -1.03170       -4.36600
H          3.94040       -2.50690       -3.40380
H          3.15510       -5.03980       -3.56630
H          4.66180       -6.47430       -4.86040
H          7.11890       -8.33230       -3.78210
H          6.86240       -7.37760       -5.24320
H          8.18920       -6.98080       -4.14010
H          7.61570       -6.15280       -1.80210
H          6.12910       -4.68590       -0.51860
H          5.04830       -0.15730        4.44040
H          6.56970       -1.17900        6.09080
H          8.03770       -3.04060        5.43660
H          8.79180       -3.94690        2.03590
H          9.04130       -4.37690        3.73320
H          6.70350       -5.30170        1.98700
H          6.91110       -5.69900        3.68990
H          8.07380       -6.29150        2.49690
H          6.58820       -2.76630        1.43620
H         -1.52990       10.71560        1.46230
H         -1.65560       13.01700        2.32460
H         -1.83920       14.91570        0.76840
H         -2.40820       15.68060       -1.48670
H         -2.39880       14.55300       -2.85040
H          0.08630       15.62920       -1.42910
H         -0.50260       16.15260       -3.01090
H          0.09670       14.50540       -2.78770
H         -1.72750       12.21750       -2.53260
H          0.87410        2.68170       -1.71270
H          1.65100        1.17560       -1.23810
H         -0.26250        2.75970        0.55040
H          0.47590        1.20230        0.93050
H         -0.69420        1.31730       -0.38450
H          0.60800        5.82020       -3.09750
H          1.33590        4.31020       -2.56170
H         -1.60470        5.18390       -2.37520
H         -1.02440        3.72690       -1.58170
H         -0.96150        3.86250       -3.34510
H         -3.11430        8.82380       -4.62030
H         -5.20900        9.50070       -5.67500
H         -6.15170       11.88520       -2.24870
H         -4.07350       11.18070       -1.17840
H         -7.47360       12.07510       -4.30300
H         -9.04840        6.24220       -5.82780
H        -11.99500       10.25040       -6.78330
H        -13.87440        7.39280       -6.62390
H        -13.57910        8.07420       -9.18180
H        -15.14050        5.96420       -9.05910
H        -13.62220        3.83880       -8.57420
H        -11.12620        4.63950       -8.39840
H        -11.02660        7.24720       -9.04020
H        -11.91640        6.32920      -10.27630
H        -12.38710        5.30750       -6.14850
