
  xtb     02142205383D
 energy: -371.913488850094 gnorm: 0.000729039020 xtb: 6.4.1 (unknown)
228252  0     0  0            999 V2000
    1.5084    0.7855   -9.6883 C   0  0  0  0  0  0  0  0  0  0  0  0
    0.3533    0.5818  -10.4133 C   0  0  0  0  0  0  0  0  0  0  0  0
   -0.9779    1.0950  -10.0904 C   0  0  0  0  0  0  0  0  0  0  0  0
   -1.3190    1.7377   -9.1103 O   0  0  0  0  0  0  0  0  0  0  0  0
   -1.8558    0.7038  -11.2090 C   0  0  0  0  0  0  0  0  0  0  0  0
   -3.2168    0.9649  -11.3379 C   0  0  0  0  0  0  0  0  0  0  0  0
   -3.7740    0.4702  -12.4930 C   0  0  0  0  0  0  0  0  0  0  0  0
   -3.0298   -0.2324  -13.4484 C   0  0  0  0  0  0  0  0  0  0  0  0
   -1.6857   -0.4990  -13.3306 C   0  0  0  0  0  0  0  0  0  0  0  0
   -1.0995   -0.0034  -12.1637 C   0  0  0  0  0  0  0  0  0  0  0  0
    0.2770   -0.1110  -11.6758 C   0  0  0  0  0  0  0  0  0  0  0  0
    1.2876   -0.7945  -12.3114 C   0  0  0  0  0  0  0  0  0  0  0  0
    2.5701   -1.0414  -11.7873 C   0  0  0  0  0  0  0  0  0  0  0  0
    3.6216   -1.3342  -11.4236 N   0  0  0  0  0  0  0  0  0  0  0  0
    1.1732   -1.3881  -13.5835 C   0  0  0  0  0  0  0  0  0  0  0  0
    1.1667   -1.8775  -14.6233 N   0  0  0  0  0  0  0  0  0  0  0  0
   -4.2221   -0.4255  -14.3521 C   0  0  0  0  0  0  0  0  0  0  0  0
   -4.3333    0.4784  -15.6046 C   0  0  0  0  0  0  0  0  0  0  0  0
   -3.5889    1.7503  -15.2831 C   0  0  0  0  0  0  0  0  0  0  0  0
   -4.2946    2.4149  -14.3779 C   0  0  0  0  0  0  0  0  0  0  0  0
   -5.5291    1.6040  -14.0709 C   0  0  0  0  0  0  0  0  0  0  0  0
   -5.7825    0.9653  -15.4458 C   0  0  0  0  0  0  0  0  0  0  0  0
   -5.0523    0.3569  -13.2862 C   0  0  0  0  0  0  0  0  0  0  0  0
    1.6981    1.3741   -8.4416 C   0  0  0  0  0  0  0  0  0  0  0  0
    2.9662    1.4555   -7.8051 C   0  0  0  0  0  0  0  0  0  0  0  0
    4.1732    1.2217   -8.4053 N   0  0  0  0  0  0  0  0  0  0  0  0
    4.4312    1.5734   -9.7444 C   0  0  0  0  0  0  0  0  0  0  0  0
    5.2832    0.7860  -10.5150 C   0  0  0  0  0  0  0  0  0  0  0  0
    5.5459    1.1327  -11.8249 C   0  0  0  0  0  0  0  0  0  0  0  0
    4.9664    2.2569  -12.4016 C   0  0  0  0  0  0  0  0  0  0  0  0
    5.2370    2.5958  -13.8350 C   0  0  0  0  0  0  0  0  0  0  0  0
    4.1298    3.0439  -11.6189 C   0  0  0  0  0  0  0  0  0  0  0  0
    3.8682    2.7177  -10.3031 C   0  0  0  0  0  0  0  0  0  0  0  0
    5.2436    0.7451   -7.6233 C   0  0  0  0  0  0  0  0  0  0  0  0
    6.5100    1.3091   -7.7382 C   0  0  0  0  0  0  0  0  0  0  0  0
    7.5521    0.8310   -6.9681 C   0  0  0  0  0  0  0  0  0  0  0  0
    7.3600   -0.2063   -6.0633 C   0  0  0  0  0  0  0  0  0  0  0  0
    8.4814   -0.6977   -5.2015 C   0  0  0  0  0  0  0  0  0  0  0  0
    6.0923   -0.7682   -5.9620 C   0  0  0  0  0  0  0  0  0  0  0  0
    5.0450   -0.3077   -6.7338 C   0  0  0  0  0  0  0  0  0  0  0  0
    2.8210    1.8079   -6.4532 C   0  0  0  0  0  0  0  0  0  0  0  0
    3.9269    2.0296   -5.1347 S   0  0  0  0  0  0  0  0  0  0  0  0
    2.5983    2.4438   -4.0641 C   0  0  0  0  0  0  0  0  0  0  0  0
    1.3805    2.4886   -4.7300 C   0  0  0  0  0  0  0  0  0  0  0  0
    0.1868    2.9126   -4.1726 N   0  0  0  0  0  0  0  0  0  0  0  0
    0.1416    3.9698   -3.2585 C   0  0  0  0  0  0  0  0  0  0  0  0
   -0.8724    4.0152   -2.3035 C   0  0  0  0  0  0  0  0  0  0  0  0
   -0.9075    5.0325   -1.3701 C   0  0  0  0  0  0  0  0  0  0  0  0
    0.0676    6.0216   -1.3465 C   0  0  0  0  0  0  0  0  0  0  0  0
    0.0665    7.0896   -0.2959 C   0  0  0  0  0  0  0  0  0  0  0  0
    1.0618    5.9831   -2.3168 C   0  0  0  0  0  0  0  0  0  0  0  0
    1.1011    4.9814   -3.2646 C   0  0  0  0  0  0  0  0  0  0  0  0
   -1.0030    2.3658   -4.6892 C   0  0  0  0  0  0  0  0  0  0  0  0
   -1.1074    0.9903   -4.8743 C   0  0  0  0  0  0  0  0  0  0  0  0
   -2.2403    0.4531   -5.4513 C   0  0  0  0  0  0  0  0  0  0  0  0
   -3.2948    1.2656   -5.8478 C   0  0  0  0  0  0  0  0  0  0  0  0
   -4.4917    0.6803   -6.5313 C   0  0  0  0  0  0  0  0  0  0  0  0
   -3.1947    2.6338   -5.6282 C   0  0  0  0  0  0  0  0  0  0  0  0
   -2.0649    3.1846   -5.0580 C   0  0  0  0  0  0  0  0  0  0  0  0
    1.5129    2.0916   -6.0814 C   0  0  0  0  0  0  0  0  0  0  0  0
    0.3912    1.9120   -7.3808 S   0  0  0  0  0  0  0  0  0  0  0  0
    2.7769    2.6068   -2.6533 C   0  0  0  0  0  0  0  0  0  0  0  0
    3.7092    3.3232   -1.9362 C   0  0  0  0  0  0  0  0  0  0  0  0
    4.8120    4.1083   -2.5019 C   0  0  0  0  0  0  0  0  0  0  0  0
    4.8747    5.4764   -2.2563 C   0  0  0  0  0  0  0  0  0  0  0  0
    5.9092    6.2226   -2.7867 C   0  0  0  0  0  0  0  0  0  0  0  0
    6.8849    5.6143   -3.5582 C   0  0  0  0  0  0  0  0  0  0  0  0
    6.8480    4.2467   -3.7935 C   0  0  0  0  0  0  0  0  0  0  0  0
    7.9232    3.5629   -4.5872 C   0  0  0  0  0  0  0  0  0  0  0  0
    9.0051    3.0056   -3.6608 C   0  0  0  0  0  0  0  0  0  0  0  0
    5.8128    3.5012   -3.2478 C   0  0  0  0  0  0  0  0  0  0  0  0
    3.4512    3.2622   -0.5507 C   0  0  0  0  0  0  0  0  0  0  0  0
    4.2636    3.9523    0.8338 S   0  0  0  0  0  0  0  0  0  0  0  0
    3.1366    3.1413    1.8716 C   0  0  0  0  0  0  0  0  0  0  0  0
    2.8620    2.9829    3.2434 C   0  0  0  0  0  0  0  0  0  0  0  0
    3.4254    3.5760    4.3940 C   0  0  0  0  0  0  0  0  0  0  0  0
    2.8842    3.2474    5.6850 C   0  0  0  0  0  0  0  0  0  0  0  0
    3.4760    3.9122    6.6648 N   0  0  0  0  0  0  0  0  0  0  0  0
    4.6171    4.8657    6.0227 S   0  0  0  0  0  0  0  0  0  0  0  0
    4.4014    4.4672    4.4679 N   0  0  0  0  0  0  0  0  0  0  0  0
    1.8896    2.2494    5.7765 C   0  0  0  0  0  0  0  0  0  0  0  0
    1.3319    1.5859    6.8831 C   0  0  0  0  0  0  0  0  0  0  0  0
    1.4126    1.6185    8.6126 S   0  0  0  0  0  0  0  0  0  0  0  0
    0.3850    0.2048    8.6676 C   0  0  0  0  0  0  0  0  0  0  0  0
   -0.1498   -0.5548    9.7340 C   0  0  0  0  0  0  0  0  0  0  0  0
    0.0372   -0.2224   11.1481 C   0  0  0  0  0  0  0  0  0  0  0  0
   -1.0204   -0.3039   12.0496 C   0  0  0  0  0  0  0  0  0  0  0  0
   -0.8206    0.0225   13.3764 C   0  0  0  0  0  0  0  0  0  0  0  0
    0.4242    0.4396   13.8156 C   0  0  0  0  0  0  0  0  0  0  0  0
    1.4873    0.5383   12.9284 C   0  0  0  0  0  0  0  0  0  0  0  0
    2.8290    1.0444   13.3735 C   0  0  0  0  0  0  0  0  0  0  0  0
    2.9753    2.5286   13.0319 C   0  0  0  0  0  0  0  0  0  0  0  0
    1.2810    0.2061   11.5983 C   0  0  0  0  0  0  0  0  0  0  0  0
   -0.9107   -1.6021    9.2612 C   0  0  0  0  0  0  0  0  0  0  0  0
   -1.0215   -1.6334    7.5156 S   0  0  0  0  0  0  0  0  0  0  0  0
    0.0024   -0.2451    7.4051 C   0  0  0  0  0  0  0  0  0  0  0  0
    0.5383    0.5526    6.3831 C   0  0  0  0  0  0  0  0  0  0  0  0
    0.5569    0.5697    5.0142 N   0  0  0  0  0  0  0  0  0  0  0  0
    1.3691    1.6144    4.6154 C   0  0  0  0  0  0  0  0  0  0  0  0
    1.7646    2.0844    3.3377 C   0  0  0  0  0  0  0  0  0  0  0  0
    1.3475    1.7524    2.0571 N   0  0  0  0  0  0  0  0  0  0  0  0
    2.1872    2.3903    1.1787 C   0  0  0  0  0  0  0  0  0  0  0  0
    2.3569    2.4709   -0.2084 C   0  0  0  0  0  0  0  0  0  0  0  0
    1.5962    1.8118   -1.6078 S   0  0  0  0  0  0  0  0  0  0  0  0
    0.0145    1.4276    1.5980 C   0  0  0  0  0  0  0  0  0  0  0  0
   -0.7930    2.6969    1.3300 C   0  0  0  0  0  0  0  0  0  0  0  0
    0.0684   -0.5695    4.2722 C   0  0  0  0  0  0  0  0  0  0  0  0
   -1.4582   -0.5803    4.1775 C   0  0  0  0  0  0  0  0  0  0  0  0
   -1.6383   -2.6078   10.0065 C   0  0  0  0  0  0  0  0  0  0  0  0
   -2.9794   -2.8689    9.6423 C   0  0  0  0  0  0  0  0  0  0  0  0
   -3.7324   -2.3440    8.6676 N   0  0  0  0  0  0  0  0  0  0  0  0
   -4.9001   -2.9036    8.8321 N   0  0  0  0  0  0  0  0  0  0  0  0
   -6.0134   -2.5869    7.9859 C   0  0  0  0  0  0  0  0  0  0  0  0
   -6.7711   -1.3777    8.5265 C   0  0  0  0  0  0  0  0  0  0  0  0
   -5.0131   -3.7411    9.8284 N   0  0  0  0  0  0  0  0  0  0  0  0
   -3.7926   -3.7657   10.3777 C   0  0  0  0  0  0  0  0  0  0  0  0
   -3.3145   -4.4529   11.5224 C   0  0  0  0  0  0  0  0  0  0  0  0
   -1.9852   -4.2169   11.8549 C   0  0  0  0  0  0  0  0  0  0  0  0
   -1.1510   -3.3320   11.0808 C   0  0  0  0  0  0  0  0  0  0  0  0
    0.1394   -3.3010   11.5153 O   0  0  0  0  0  0  0  0  0  0  0  0
    1.1777   -3.2952   10.5580 C   0  0  0  0  0  0  0  0  0  0  0  0
   -1.2697   -4.8332   12.8187 O   0  0  0  0  0  0  0  0  0  0  0  0
   -1.8314   -5.7896   13.6818 C   0  0  0  0  0  0  0  0  0  0  0  0
   -4.2601   -5.2815   12.2349 C   0  0  0  0  0  0  0  0  0  0  0  0
   -5.1318   -6.1189   11.6213 C   0  0  0  0  0  0  0  0  0  0  0  0
   -5.0748   -6.5142   10.1864 C   0  0  0  0  0  0  0  0  0  0  0  0
   -4.1531   -6.3709    9.4138 O   0  0  0  0  0  0  0  0  0  0  0  0
   -6.3386   -7.2313    9.9361 C   0  0  0  0  0  0  0  0  0  0  0  0
   -6.8385   -7.7267    8.7495 C   0  0  0  0  0  0  0  0  0  0  0  0
   -8.0629   -8.3869    8.7431 C   0  0  0  0  0  0  0  0  0  0  0  0
   -8.6165   -8.9218    7.4611 C   0  0  0  0  0  0  0  0  0  0  0  0
   -8.7706   -8.5487    9.9447 C   0  0  0  0  0  0  0  0  0  0  0  0
  -10.0865   -9.2598    9.9516 C   0  0  0  0  0  0  0  0  0  0  0  0
   -8.2562   -8.0546   11.1393 C   0  0  0  0  0  0  0  0  0  0  0  0
   -7.0383   -7.3939   11.1438 C   0  0  0  0  0  0  0  0  0  0  0  0
   -6.2687   -6.7926   12.2259 C   0  0  0  0  0  0  0  0  0  0  0  0
   -6.5541   -6.8886   13.5627 C   0  0  0  0  0  0  0  0  0  0  0  0
   -5.7424   -6.3793   14.5964 C   0  0  0  0  0  0  0  0  0  0  0  0
   -5.1156   -6.0074   15.4849 N   0  0  0  0  0  0  0  0  0  0  0  0
   -7.6795   -7.5591   14.0850 C   0  0  0  0  0  0  0  0  0  0  0  0
   -8.5748   -8.0892   14.5706 N   0  0  0  0  0  0  0  0  0  0  0  0
    2.4171    0.4080  -10.1393 H   0  0  0  0  0  0  0  0  0  0  0  0
   -3.7509    1.5101  -10.5751 H   0  0  0  0  0  0  0  0  0  0  0  0
   -1.1300   -1.0442  -14.0751 H   0  0  0  0  0  0  0  0  0  0  0  0
   -4.5017   -1.4567  -14.5595 H   0  0  0  0  0  0  0  0  0  0  0  0
   -4.0680   -0.0099  -16.5385 H   0  0  0  0  0  0  0  0  0  0  0  0
   -2.6264    1.9996  -15.6900 H   0  0  0  0  0  0  0  0  0  0  0  0
   -4.0395    3.3306  -13.8772 H   0  0  0  0  0  0  0  0  0  0  0  0
   -6.3538    2.1408  -13.6088 H   0  0  0  0  0  0  0  0  0  0  0  0
   -6.5116    0.1564  -15.4207 H   0  0  0  0  0  0  0  0  0  0  0  0
   -6.0679    1.6942  -16.2031 H   0  0  0  0  0  0  0  0  0  0  0  0
   -5.8735   -0.1649  -12.7980 H   0  0  0  0  0  0  0  0  0  0  0  0
    5.7248   -0.1001  -10.0876 H   0  0  0  0  0  0  0  0  0  0  0  0
    6.1983    0.5077  -12.4154 H   0  0  0  0  0  0  0  0  0  0  0  0
    4.8310    3.5715  -14.0898 H   0  0  0  0  0  0  0  0  0  0  0  0
    6.3076    2.5976  -14.0325 H   0  0  0  0  0  0  0  0  0  0  0  0
    4.7812    1.8508  -14.4870 H   0  0  0  0  0  0  0  0  0  0  0  0
    3.6811    3.9316  -12.0410 H   0  0  0  0  0  0  0  0  0  0  0  0
    3.2229    3.3450   -9.7057 H   0  0  0  0  0  0  0  0  0  0  0  0
    6.6707    2.1237   -8.4286 H   0  0  0  0  0  0  0  0  0  0  0  0
    8.5316    1.2755   -7.0703 H   0  0  0  0  0  0  0  0  0  0  0  0
    9.4447   -0.3987   -5.6069 H   0  0  0  0  0  0  0  0  0  0  0  0
    8.4556   -1.7819   -5.1149 H   0  0  0  0  0  0  0  0  0  0  0  0
    8.3900   -0.2803   -4.1984 H   0  0  0  0  0  0  0  0  0  0  0  0
    5.9256   -1.5841   -5.2738 H   0  0  0  0  0  0  0  0  0  0  0  0
    4.0690   -0.7643   -6.6592 H   0  0  0  0  0  0  0  0  0  0  0  0
   -1.6258    3.2416   -2.2947 H   0  0  0  0  0  0  0  0  0  0  0  0
   -1.7051    5.0535   -0.6409 H   0  0  0  0  0  0  0  0  0  0  0  0
    0.3593    8.0484   -0.7186 H   0  0  0  0  0  0  0  0  0  0  0  0
    0.7802    6.8400    0.4908 H   0  0  0  0  0  0  0  0  0  0  0  0
   -0.9167    7.1894    0.1576 H   0  0  0  0  0  0  0  0  0  0  0  0
    1.8146    6.7579   -2.3383 H   0  0  0  0  0  0  0  0  0  0  0  0
    1.8764    4.9863   -4.0165 H   0  0  0  0  0  0  0  0  0  0  0  0
   -0.2900    0.3511   -4.5721 H   0  0  0  0  0  0  0  0  0  0  0  0
   -2.3040   -0.6149   -5.6033 H   0  0  0  0  0  0  0  0  0  0  0  0
   -4.7360   -0.2981   -6.1223 H   0  0  0  0  0  0  0  0  0  0  0  0
   -5.3566    1.3321   -6.4337 H   0  0  0  0  0  0  0  0  0  0  0  0
   -4.2759    0.5562   -7.5930 H   0  0  0  0  0  0  0  0  0  0  0  0
   -4.0052    3.2824   -5.9277 H   0  0  0  0  0  0  0  0  0  0  0  0
   -1.9895    4.2523   -4.9126 H   0  0  0  0  0  0  0  0  0  0  0  0
    4.1077    5.9448   -1.6584 H   0  0  0  0  0  0  0  0  0  0  0  0
    5.9548    7.2857   -2.6006 H   0  0  0  0  0  0  0  0  0  0  0  0
    7.6861    6.2064   -3.9770 H   0  0  0  0  0  0  0  0  0  0  0  0
    7.4840    2.7455   -5.1631 H   0  0  0  0  0  0  0  0  0  0  0  0
    8.3757    4.2711   -5.2842 H   0  0  0  0  0  0  0  0  0  0  0  0
    9.7773    2.5011   -4.2371 H   0  0  0  0  0  0  0  0  0  0  0  0
    8.5726    2.2952   -2.9601 H   0  0  0  0  0  0  0  0  0  0  0  0
    9.4662    3.8084   -3.0896 H   0  0  0  0  0  0  0  0  0  0  0  0
    5.7965    2.4303   -3.3907 H   0  0  0  0  0  0  0  0  0  0  0  0
   -1.9975   -0.6089   11.7052 H   0  0  0  0  0  0  0  0  0  0  0  0
   -1.6430   -0.0445   14.0736 H   0  0  0  0  0  0  0  0  0  0  0  0
    0.5707    0.6922   14.8560 H   0  0  0  0  0  0  0  0  0  0  0  0
    3.6202    0.4821   12.8731 H   0  0  0  0  0  0  0  0  0  0  0  0
    2.9401    0.9065   14.4506 H   0  0  0  0  0  0  0  0  0  0  0  0
    2.2048    3.1091   13.5345 H   0  0  0  0  0  0  0  0  0  0  0  0
    3.9489    2.8975   13.3462 H   0  0  0  0  0  0  0  0  0  0  0  0
    2.8739    2.6821   11.9599 H   0  0  0  0  0  0  0  0  0  0  0  0
    2.1071    0.2703   10.9041 H   0  0  0  0  0  0  0  0  0  0  0  0
   -0.5036    0.8290    2.3365 H   0  0  0  0  0  0  0  0  0  0  0  0
    0.1148    0.8512    0.6731 H   0  0  0  0  0  0  0  0  0  0  0  0
   -0.8789    3.2870    2.2404 H   0  0  0  0  0  0  0  0  0  0  0  0
   -0.3127    3.3024    0.5656 H   0  0  0  0  0  0  0  0  0  0  0  0
   -1.7894    2.4325    0.9863 H   0  0  0  0  0  0  0  0  0  0  0  0
    0.3864   -1.4731    4.8049 H   0  0  0  0  0  0  0  0  0  0  0  0
    0.5420   -0.5833    3.2897 H   0  0  0  0  0  0  0  0  0  0  0  0
   -1.7802   -1.3731    3.5079 H   0  0  0  0  0  0  0  0  0  0  0  0
   -1.8446    0.3695    3.8140 H   0  0  0  0  0  0  0  0  0  0  0  0
   -1.8891   -0.7624    5.1581 H   0  0  0  0  0  0  0  0  0  0  0  0
   -6.6610   -3.4653    7.9569 H   0  0  0  0  0  0  0  0  0  0  0  0
   -5.6193   -2.3763    6.9898 H   0  0  0  0  0  0  0  0  0  0  0  0
   -7.1476   -1.5869    9.5248 H   0  0  0  0  0  0  0  0  0  0  0  0
   -6.1118   -0.5145    8.5730 H   0  0  0  0  0  0  0  0  0  0  0  0
   -7.6099   -1.1448    7.8768 H   0  0  0  0  0  0  0  0  0  0  0  0
    1.9890   -3.8800   10.9932 H   0  0  0  0  0  0  0  0  0  0  0  0
    1.5365   -2.2824   10.3599 H   0  0  0  0  0  0  0  0  0  0  0  0
    0.8615   -3.7568    9.6194 H   0  0  0  0  0  0  0  0  0  0  0  0
   -2.4424   -6.5166   13.1369 H   0  0  0  0  0  0  0  0  0  0  0  0
   -0.9819   -6.2991   14.1372 H   0  0  0  0  0  0  0  0  0  0  0  0
   -2.4292   -5.3275   14.4718 H   0  0  0  0  0  0  0  0  0  0  0  0
   -4.3457   -5.1293   13.3008 H   0  0  0  0  0  0  0  0  0  0  0  0
   -6.2756   -7.5951    7.8372 H   0  0  0  0  0  0  0  0  0  0  0  0
   -9.5908   -8.4821    7.2501 H   0  0  0  0  0  0  0  0  0  0  0  0
   -8.7504  -10.0013    7.5232 H   0  0  0  0  0  0  0  0  0  0  0  0
   -7.9488   -8.7026    6.6323 H   0  0  0  0  0  0  0  0  0  0  0  0
  -10.4952   -9.3041   10.9572 H   0  0  0  0  0  0  0  0  0  0  0  0
  -10.8016   -8.7494    9.3071 H   0  0  0  0  0  0  0  0  0  0  0  0
   -9.9737  -10.2766    9.5771 H   0  0  0  0  0  0  0  0  0  0  0  0
   -8.8177   -8.1914   12.0497 H   0  0  0  0  0  0  0  0  0  0  0  0
  1  2  2  0  0  0  0
  2  3  1  0  0  0  0
  3  4  2  0  0  0  0
  3  5  1  0  0  0  0
  5  6  2  0  0  0  0
  6  7  1  0  0  0  0
  7  8  2  0  0  0  0
  8  9  1  0  0  0  0
  9 10  2  0  0  0  0
 10 11  1  0  0  0  0
 11 12  2  0  0  0  0
 12 13  1  0  0  0  0
 13 14  3  0  0  0  0
 12 15  1  0  0  0  0
 15 16  3  0  0  0  0
  8 17  1  0  0  0  0
 17 18  1  0  0  0  0
 18 19  1  0  0  0  0
 19 20  2  0  0  0  0
 20 21  1  0  0  0  0
 21 22  1  0  0  0  0
 21 23  1  0  0  0  0
  1 24  1  0  0  0  0
 24 25  2  0  0  0  0
 25 26  1  0  0  0  0
 26 27  1  0  0  0  0
 27 28  2  0  0  0  0
 28 29  1  0  0  0  0
 29 30  2  0  0  0  0
 30 31  1  0  0  0  0
 30 32  1  0  0  0  0
 32 33  2  0  0  0  0
 26 34  1  0  0  0  0
 34 35  2  0  0  0  0
 35 36  1  0  0  0  0
 36 37  2  0  0  0  0
 37 38  1  0  0  0  0
 37 39  1  0  0  0  0
 39 40  2  0  0  0  0
 25 41  1  0  0  0  0
 41 42  1  0  0  0  0
 42 43  1  0  0  0  0
 43 44  2  0  0  0  0
 44 45  1  0  0  0  0
 45 46  1  0  0  0  0
 46 47  2  0  0  0  0
 47 48  1  0  0  0  0
 48 49  2  0  0  0  0
 49 50  1  0  0  0  0
 49 51  1  0  0  0  0
 51 52  2  0  0  0  0
 45 53  1  0  0  0  0
 53 54  2  0  0  0  0
 54 55  1  0  0  0  0
 55 56  2  0  0  0  0
 56 57  1  0  0  0  0
 56 58  1  0  0  0  0
 58 59  2  0  0  0  0
 44 60  1  0  0  0  0
 60 61  1  0  0  0  0
 43 62  1  0  0  0  0
 62 63  2  0  0  0  0
 63 64  1  0  0  0  0
 64 65  2  0  0  0  0
 65 66  1  0  0  0  0
 66 67  2  0  0  0  0
 67 68  1  0  0  0  0
 68 69  1  0  0  0  0
 69 70  1  0  0  0  0
 68 71  2  0  0  0  0
 63 72  1  0  0  0  0
 72 73  1  0  0  0  0
 73 74  1  0  0  0  0
 74 75  1  0  0  0  0
 75 76  1  0  0  0  0
 76 77  1  0  0  0  0
 77 78  2  0  0  0  0
 78 79  1  0  0  0  0
 79 80  1  0  0  0  0
 77 81  1  0  0  0  0
 81 82  1  0  0  0  0
 82 83  1  0  0  0  0
 83 84  1  0  0  0  0
 84 85  1  0  0  0  0
 85 86  1  0  0  0  0
 86 87  2  0  0  0  0
 87 88  1  0  0  0  0
 88 89  2  0  0  0  0
 89 90  1  0  0  0  0
 90 91  1  0  0  0  0
 91 92  1  0  0  0  0
 90 93  2  0  0  0  0
 85 94  2  0  0  0  0
 94 95  1  0  0  0  0
 95 96  1  0  0  0  0
 96 97  1  0  0  0  0
 97 98  1  0  0  0  0
 98 99  1  0  0  0  0
 99100  1  0  0  0  0
100101  1  0  0  0  0
101102  1  0  0  0  0
102103  1  0  0  0  0
103104  1  0  0  0  0
101105  1  0  0  0  0
105106  1  0  0  0  0
 98107  1  0  0  0  0
107108  1  0  0  0  0
 94109  1  0  0  0  0
109110  1  0  0  0  0
110111  2  0  0  0  0
111112  1  0  0  0  0
112113  1  0  0  0  0
113114  1  0  0  0  0
112115  1  0  0  0  0
115116  2  0  0  0  0
116117  1  0  0  0  0
117118  2  0  0  0  0
118119  1  0  0  0  0
119120  1  0  0  0  0
120121  1  0  0  0  0
118122  1  0  0  0  0
122123  1  0  0  0  0
117124  1  0  0  0  0
124125  2  0  0  0  0
125126  1  0  0  0  0
126127  2  0  0  0  0
126128  1  0  0  0  0
128129  2  0  0  0  0
129130  1  0  0  0  0
130131  1  0  0  0  0
130132  2  0  0  0  0
132133  1  0  0  0  0
132134  1  0  0  0  0
134135  2  0  0  0  0
135136  1  0  0  0  0
136137  2  0  0  0  0
137138  1  0  0  0  0
138139  3  0  0  0  0
137140  1  0  0  0  0
140141  3  0  0  0  0
 11  2  1  0  0  0  0
 23 17  1  0  0  0  0
 61 24  1  0  0  0  0
104 62  1  0  0  0  0
119109  2  0  0  0  0
136125  1  0  0  0  0
 10  5  1  0  0  0  0
 22 18  1  0  0  0  0
 33 27  1  0  0  0  0
 40 34  1  0  0  0  0
 60 41  2  0  0  0  0
 71 64  1  0  0  0  0
103 72  2  0  0  0  0
116110  1  0  0  0  0
135128  1  0  0  0  0
 23  7  1  0  0  0  0
 52 46  1  0  0  0  0
 59 53  1  0  0  0  0
102 74  2  0  0  0  0
100 75  2  0  0  0  0
 80 76  2  0  0  0  0
 99 81  2  0  0  0  0
 97 82  2  0  0  0  0
 96 84  2  0  0  0  0
 93 86  1  0  0  0  0
  1142  1  0  0  0  0
  6143  1  0  0  0  0
  9144  1  0  0  0  0
 17145  1  0  0  0  0
 18146  1  0  0  0  0
 19147  1  0  0  0  0
 20148  1  0  0  0  0
 21149  1  0  0  0  0
 22150  1  0  0  0  0
 22151  1  0  0  0  0
 23152  1  0  0  0  0
 28153  1  0  0  0  0
 29154  1  0  0  0  0
 31155  1  0  0  0  0
 31156  1  0  0  0  0
 31157  1  0  0  0  0
 32158  1  0  0  0  0
 33159  1  0  0  0  0
 35160  1  0  0  0  0
 36161  1  0  0  0  0
 38162  1  0  0  0  0
 38163  1  0  0  0  0
 38164  1  0  0  0  0
 39165  1  0  0  0  0
 40166  1  0  0  0  0
 47167  1  0  0  0  0
 48168  1  0  0  0  0
 50169  1  0  0  0  0
 50170  1  0  0  0  0
 50171  1  0  0  0  0
 51172  1  0  0  0  0
 52173  1  0  0  0  0
 54174  1  0  0  0  0
 55175  1  0  0  0  0
 57176  1  0  0  0  0
 57177  1  0  0  0  0
 57178  1  0  0  0  0
 58179  1  0  0  0  0
 59180  1  0  0  0  0
 65181  1  0  0  0  0
 66182  1  0  0  0  0
 67183  1  0  0  0  0
 69184  1  0  0  0  0
 69185  1  0  0  0  0
 70186  1  0  0  0  0
 70187  1  0  0  0  0
 70188  1  0  0  0  0
 71189  1  0  0  0  0
 87190  1  0  0  0  0
 88191  1  0  0  0  0
 89192  1  0  0  0  0
 91193  1  0  0  0  0
 91194  1  0  0  0  0
 92195  1  0  0  0  0
 92196  1  0  0  0  0
 92197  1  0  0  0  0
 93198  1  0  0  0  0
105199  1  0  0  0  0
105200  1  0  0  0  0
106201  1  0  0  0  0
106202  1  0  0  0  0
106203  1  0  0  0  0
107204  1  0  0  0  0
107205  1  0  0  0  0
108206  1  0  0  0  0
108207  1  0  0  0  0
108208  1  0  0  0  0
113209  1  0  0  0  0
113210  1  0  0  0  0
114211  1  0  0  0  0
114212  1  0  0  0  0
114213  1  0  0  0  0
121214  1  0  0  0  0
121215  1  0  0  0  0
121216  1  0  0  0  0
123217  1  0  0  0  0
123218  1  0  0  0  0
123219  1  0  0  0  0
124220  1  0  0  0  0
129221  1  0  0  0  0
131222  1  0  0  0  0
131223  1  0  0  0  0
131224  1  0  0  0  0
133225  1  0  0  0  0
133226  1  0  0  0  0
133227  1  0  0  0  0
134228  1  0  0  0  0
M  END
