245

C         -5.13570       -8.31300        4.81680
C         -6.45250       -8.12070        4.46740
C         -6.95000       -7.49940        3.23740
O         -6.34060       -7.29010        2.20210
C         -8.36440       -7.16410        3.49290
C         -9.23890       -6.50070        2.63720
C        -10.49670       -6.31100        3.15790
C        -10.85910       -6.75180        4.43660
C        -10.00630       -7.41200        5.29010
C         -8.72120       -7.61140        4.78060
C         -7.56030       -8.26920        5.37980
C         -7.54400       -8.90460        6.59880
C         -8.59820       -8.87190        7.53020
N         -9.39300       -8.84840        8.36010
C         -6.48390       -9.69270        7.08570
N         -5.68460      -10.38630        7.53540
C        -12.26830       -6.22980        4.30420
C        -13.39350       -7.25240        4.01150
C        -12.74340       -8.41090        3.29670
C        -12.39960       -7.99710        2.08450
C        -12.81120       -6.55120        1.95760
C        -14.07900       -6.55330        2.82660
C        -11.86470       -5.74090        2.87740
C         -3.96450       -8.00050        4.12740
C         -2.68450       -7.94380        4.73450
N         -2.42880       -8.07630        6.07630
C         -3.33950       -7.63580        7.05750
C         -3.54190       -8.38630        8.21200
C         -4.47420       -7.97910        9.14640
C         -5.23220       -6.83110        8.95330
C         -6.29930       -6.44380        9.92940
C         -4.99230       -6.06600        7.81600
C         -4.05020       -6.44950        6.88370
C         -1.19760       -8.61180        6.49490
C         -0.63980       -9.70210        5.83360
C          0.54250      -10.25600        6.28410
C          1.19180       -9.75060        7.40190
C          2.43710      -10.38760        7.93620
C          0.63750       -8.64750        8.04380
C         -0.53760       -8.07870        7.59950
C         -1.69470       -7.65000        3.78320
S          0.01620       -7.36750        3.87710
C          0.04680       -6.93880        2.16860
C         -1.19130       -7.10050        1.55660
N         -1.43550       -6.93060        0.20480
C         -2.70430       -6.44990       -0.17090
C         -3.24710       -5.35140        0.48850
C         -4.52150       -4.91870        0.18150
C         -5.27790       -5.55950       -0.79030
C         -6.68550       -5.13540       -1.07170
C         -4.71350       -6.63400       -1.46770
C         -3.44360       -7.08110       -1.16560
C         -0.53680       -7.39050       -0.76170
C         -0.46040       -6.75520       -1.99980
C          0.45660       -7.17510       -2.94320
C          1.32780       -8.22440       -2.68300
C          2.34540       -8.66480       -3.69040
C          1.23480       -8.86480       -1.45160
C          0.31450       -8.46430       -0.50600
C         -2.18230       -7.48000        2.49220
S         -3.89830       -7.63260        2.40260
C          1.19990       -6.31590        1.61750
C          2.50140       -6.35620        2.08790
C          2.98650       -7.31940        3.07580
C          2.69330       -8.67470        2.94010
C          3.17830       -9.57860        3.86290
C          3.94570       -9.14240        4.92930
C          4.24450       -7.79580        5.08160
C          5.03170       -7.30160        6.26110
C          4.11320       -6.59170        7.25760
C          3.76940       -6.89380        4.14110
C          3.30440       -5.38250        1.46340
S          4.97320       -4.89640        1.66140
C          4.73820       -3.66000        0.46820
C          5.43570       -2.59030       -0.12500
C          6.76730       -2.13350       -0.00990
C          7.17290       -0.96330       -0.74290
N          8.45130       -0.67320       -0.56190
S          9.09150       -1.77030        0.44240
N          7.76060       -2.65830        0.68990
C          6.20200       -0.23290       -1.46440
C          6.22950        1.04930       -2.04000
S          7.33630        2.36270       -2.26700
C          6.01510        3.34840       -2.84950
C          5.93830        4.69120       -3.27150
C          7.09350        5.58860       -3.33660
C          7.95220        5.69750       -2.24770
C          9.03650        6.55200       -2.31160
C          9.27310        7.29620       -3.45370
C          8.43470        7.18680       -4.55630
C          8.71730        7.95450       -5.81520
C          9.63180        7.14880       -6.73990
C          7.35350        6.32230       -4.48980
C          4.64580        5.03490       -3.62140
S          3.52730        3.68350       -3.46400
C          4.79810        2.66550       -2.88950
C          4.92070        1.34970       -2.42920
N          4.09320        0.29550       -2.14720
C          4.85920       -0.69100       -1.55690
C          4.51510       -1.94180       -0.99160
N          3.31750       -2.63940       -0.98350
C          3.45060       -3.65580       -0.07220
C          2.63070       -4.63320        0.49880
S          0.97630       -5.09820        0.36340
C          2.37470       -2.78010       -2.07350
C          2.58150       -4.09330       -2.82870
C          2.65900        0.47540       -2.16090
C          2.08940        0.45440       -3.57920
C          4.08020        6.29680       -3.96430
C          2.83270        6.49040       -4.49070
C          2.47240        7.84940       -4.63320
C          1.26790        8.37170       -5.13880
C          0.23790        7.49560       -5.70970
C          0.57570        6.55330       -6.68170
C         -0.38610        5.73330       -7.22800
C         -1.71480        5.83330       -6.81900
S         -2.85490        4.74570       -7.61650
C         -4.36130        4.79990       -6.58530
C         -4.16130        4.12610       -5.24110
C         -2.06200        6.77660       -5.86170
C         -1.09210        7.59510       -5.31490
C          1.12070        9.74830       -5.08100
C          2.14090       10.61000       -4.59930
C          3.37400       10.08960       -4.15630
C          4.44240       10.99850       -3.72850
C          4.83550       12.04690       -4.56150
C          5.78880       12.95180       -4.14950
C          6.36330       12.83390       -2.88790
S          7.55600       14.04450       -2.40880
C          7.14820       14.33330       -0.63950
C          6.98040       15.81940       -0.38880
C          6.01450       11.76490       -2.07130
C          5.06180       10.85710       -2.48990
C          3.49250        8.71260       -4.15440
S          4.88820        7.81310       -3.61020
C          1.74030       11.95980       -4.59340
C          0.47400       12.16700       -5.08130
S         -0.27800       10.65870       -5.58590
C         -0.25580       13.37230       -5.18860
C          0.10950       14.59820       -4.73460
S          1.57730       15.02560       -3.88210
C          1.03800       16.68310       -3.69740
C          1.82260       17.57580       -3.01070
C          3.03910       17.13190       -2.45370
N          4.02560       16.77450       -1.98930
C          1.54240       18.93220       -2.77390
N          1.38250       20.04770       -2.55100
N         -0.17080       16.88180       -4.27820
C         -0.86450       18.15490       -4.34560
C         -0.33320       19.02360       -5.47930
C         -0.75030       15.76790       -4.88060
O         -1.82930       15.79940       -5.42680
H         -4.97020       -8.69770        5.81450
H         -8.91910       -6.17590        1.65930
H        -10.29990       -7.74500        6.27170
H        -12.56900       -5.47970        5.03320
H        -14.01020       -7.50320        4.87040
H        -12.55330       -9.36490        3.75250
H        -11.86430       -8.53660        1.32520
H        -12.89880       -6.16390        0.94570
H        -14.88440       -7.14630        2.39580
H        -14.44380       -5.55470        3.06410
H        -11.90530       -4.67200        2.67500
H         -2.98730       -9.29980        8.35950
H         -4.63560       -8.58290       10.02650
H         -7.24140       -6.92310        9.65790
H         -6.45680       -5.36760        9.93040
H         -6.04080       -6.76690       10.93490
H         -5.55040       -5.15370        7.66010
H         -3.87490       -5.84520        6.00550
H         -1.14960      -10.12770        4.98190
H          0.95440      -11.11040        5.76790
H          2.77270      -11.19050        7.28540
H          3.23490       -9.65320        8.03200
H          2.24910      -10.80240        8.92660
H          1.13170       -8.23250        8.91070
H         -0.95720       -7.22430        8.10960
H         -2.66570       -4.84990        1.24910
H         -4.93820       -4.07520        0.71260
H         -7.36320       -5.73220       -0.46110
H         -6.94310       -5.29520       -2.11640
H         -6.83720       -4.08750       -0.82290
H         -5.28650       -7.14310       -2.22920
H         -3.02440       -7.93180       -1.68280
H         -1.11680       -5.92380       -2.20890
H          0.50270       -6.66790       -3.89640
H          2.21850       -9.72100       -3.92430
H          3.35220       -8.53180       -3.29500
H          2.25630       -8.09190       -4.60990
H          1.89190       -9.69490       -1.23460
H          0.24460       -8.98660        0.43680
H          2.10530       -9.01060        2.09890
H          2.96300      -10.63080        3.74790
H          4.32630       -9.85730        5.64350
H          5.80230       -6.60470        5.92410
H          5.52560       -8.14130        6.75430
H          3.66800       -5.71040        6.80270
H          4.67230       -6.28260        8.13800
H          3.30580       -7.25220        7.56670
H          4.00080       -5.84340        4.24160
H          7.75790        5.12690       -1.35210
H          9.69870        6.64070       -1.46320
H         10.11740        7.96910       -3.49270
H          9.19800        8.90290       -5.56790
H          7.78070        8.17260       -6.33230
H          9.83530        7.70420       -7.65250
H          9.16410        6.20310       -7.00500
H         10.57650        6.93500       -6.24510
H          6.70460        6.21020       -5.34740
H          1.35760       -2.74590       -1.66870
H          2.52160       -1.96050       -2.76930
H          2.35920       -4.95130       -2.20060
H          3.60990       -4.16950       -3.17590
H          1.91870       -4.12070       -3.68930
H          2.19860       -0.28320       -1.52850
H          2.44310        1.45460       -1.71760
H          2.44950        1.31330       -4.13870
H          1.00490        0.50010       -3.53920
H          2.38290       -0.44330       -4.11850
H          2.18120        5.67490       -4.75170
H          1.59800        6.48170       -7.02240
H         -0.12430        5.00760       -7.98310
H         -5.10080        4.26560       -7.18180
H         -4.67860        5.83750       -6.48860
H         -3.38470        4.62610       -4.66600
H         -3.86840        3.08830       -5.38240
H         -5.08850        4.15280       -4.67180
H         -3.08300        6.89220       -5.53470
H         -1.37390        8.31050       -4.55670
H          4.39200       12.14210       -5.54220
H          6.08800       13.76720       -4.78960
H          7.95950       13.91570       -0.04190
H          6.22300       13.79910       -0.43430
H          6.15760       16.21150       -0.98070
H          6.76760       15.99170        0.66460
H          7.88880       16.35590       -0.65290
H          6.48570       11.63660       -1.10850
H          4.77910       10.04230       -1.84000
H          2.37570       12.74490       -4.22740
H         -1.22650       13.32580       -5.66750
H         -0.77330       18.66660       -3.38600
H         -1.91440       17.90970       -4.52880
H         -0.44120       18.50660       -6.43020
H          0.71420       19.27240       -5.32540
H         -0.90090       19.94830       -5.51770
