272

C          4.70250       10.14570       -2.75610
C          6.03150       10.01030       -2.45040
C          6.95890       11.15270       -2.60700
O          6.76070       12.17890       -3.22260
C          8.14760       10.80120       -1.79690
C          9.24520       11.60740       -1.50430
C         10.17270       11.01500       -0.67970
C         10.01830        9.72030       -0.16800
C          8.94630        8.90870       -0.45460
C          8.00190        9.48820       -1.30420
C          6.76660        8.92770       -1.84510
C          6.50440        7.58560       -1.98670
C          7.29410        6.56080       -1.43720
N          7.88960        5.68260       -0.99600
C          5.43790        7.09050       -2.76180
N          4.60900        6.65030       -3.42560
C         11.31930        9.77820        0.59340
C         12.50900        9.01230       -0.02260
C         13.71930        9.62800        0.64120
C         13.87010       10.85130        0.14980
C         12.76390       11.08290       -0.85430
C         12.60970        9.66100       -1.40920
C         11.49660       11.21920        0.01620
C          3.65340        9.36770       -2.24060
C          2.36970        9.13390       -2.76150
N          1.87030        9.59740       -3.94920
C          2.12540       10.88790       -4.42380
C          2.21960       11.96080       -3.53800
C          2.47470       13.23090       -4.01280
C          2.63160       13.47070       -5.37380
C          2.94090       14.84830       -5.87030
C          2.51740       12.39830       -6.25020
C          2.26950       11.12060       -5.78880
C          1.08200        8.70500       -4.71040
C          1.50510        7.38760       -4.87810
C          0.70260        6.48960       -5.55010
C         -0.52300        6.87920       -6.08140
C         -1.38910        5.87560       -6.77860
C         -0.91180        8.20540       -5.94590
C         -0.12350        9.11520       -5.26520
C          1.67420        8.18940       -1.96890
S          0.12790        7.42460       -2.08600
C          0.51200        6.37220       -0.72370
C          1.78860        6.61090       -0.21770
N          2.48210        5.82430        0.68520
C          2.40540        4.42120        0.62260
C          2.50210        3.68450        1.80240
C          2.33010        2.31640        1.78130
C          2.07150        1.64330        0.59130
C          1.83700        0.16360        0.59650
C          2.04280        2.37860       -0.58630
C          2.20660        3.75070       -0.58000
C          3.57810        6.40450        1.35150
C          4.83640        5.81100        1.29480
C          5.91970        6.43010        1.88350
C          5.78040        7.64540        2.54430
C          6.97360        8.34460        3.12040
C          4.51420        8.21120        2.62940
C          3.42090        7.60310        2.04270
C          2.39040        7.69950       -0.89040
S          3.91540        8.48310       -0.73430
C         -0.41950        5.34370       -0.42720
C         -1.32270        4.80120       -1.32810
C         -1.94840        3.66920       -0.82230
C         -2.81890        2.56470       -1.38550
C         -2.29720        2.29000       -2.77750
C         -3.04070        2.54570       -3.91850
C         -2.47200        2.38690       -5.17120
C         -1.15120        1.98700       -5.31440
C         -0.55340        1.77280       -6.67490
C         -0.71070        0.31040       -7.09650
C         -0.40620        1.74300       -4.16630
C         -0.97000        1.89440       -2.91540
C         -4.28740        2.97090       -1.36230
C         -4.66610        4.29090       -1.15190
C         -6.00260        4.64620       -1.13360
C         -6.99870        3.69900       -1.32450
C         -8.44860        4.08400       -1.25750
C         -8.94420        4.05090        0.18960
C         -6.61580        2.38190       -1.53880
C         -5.28170        2.02050       -1.55970
C         -2.60020        1.47580       -0.33060
C         -1.96320        2.04200        0.76450
C         -1.54410        3.35810        0.46710
S         -0.46070        4.51670        1.11930
S         -1.72180        0.99750        2.10650
C         -2.47710       -0.28760        1.19340
C         -2.59260       -1.55530        1.73130
O         -2.20730       -1.76440        3.03360
C         -3.28540       -1.74990        3.96340
C         -3.92710       -0.38140        4.15980
C         -3.07240       -2.57800        0.89730
C         -3.52640       -2.20000       -0.39940
C         -3.41740       -0.92640       -0.93380
C         -2.88030        0.09640       -0.12250
O         -3.84950       -0.71310       -2.22470
C         -2.85310       -0.79480       -3.23960
C         -2.55440       -2.20710       -3.72700
S         -4.18140       -3.55190       -1.30420
C         -3.67140       -4.61740       -0.04600
C         -3.58250       -6.02150        0.09850
C         -2.92380       -6.29550        1.30070
C         -2.55150       -5.01160        2.02320
C         -3.11020       -3.98610        1.05110
C         -1.03800       -4.95860        2.14580
C         -0.26220       -4.01870        1.48450
C          1.11620       -4.02540        1.61090
C          1.76140       -4.97500        2.38790
C          3.25930       -5.00770        2.48660
C          3.84570       -5.91570        1.40380
C          0.98470       -5.92940        3.03260
C         -0.39060       -5.92240        2.91420
C         -3.27850       -4.96710        3.35730
C         -4.65730       -5.15640        3.35800
C         -5.37450       -5.12240        4.53750
C         -4.73500       -4.90930        5.75230
C         -5.51940       -4.80940        7.02830
C         -5.92710       -3.35650        7.28300
C         -3.36000       -4.72660        5.74730
C         -2.63720       -4.74860        4.56700
C         -2.75840       -7.64800        1.50410
C         -3.28160       -8.42140        0.46400
S         -4.02570       -7.42560       -0.77590
C         -3.13370       -9.82340        0.41280
S         -2.13780      -10.55880        1.64160
C         -2.35510      -12.14710        0.96120
C         -3.15300      -12.08710       -0.18610
C         -3.46500      -13.25850       -1.02300
O         -2.86790      -14.32020       -0.94180
C         -4.54550      -13.01840       -1.97550
C         -5.15720      -13.99440       -2.72200
C         -4.93630      -15.46320       -2.69710
C         -5.57800      -16.09980       -1.45990
S         -6.37680      -13.31010       -3.74150
C         -6.04530      -11.70210       -3.19220
C         -6.77970      -10.54800       -3.77110
C         -5.98290       -9.92210       -4.91980
C         -5.04600      -11.70550       -2.25100
C         -4.52640      -10.51280       -1.58700
O         -4.85970       -9.37860       -1.91640
C         -3.61110      -10.78690       -0.48890
C         -1.88680      -13.34520        1.53120
C         -1.03200      -13.54110        2.57820
C         -0.22920      -12.51920        3.26930
O         -0.35250      -11.30930        3.20750
C          0.77750      -13.25670        4.05150
C          1.81710      -12.71350        4.80300
C          2.61380      -13.65060        5.41490
C          2.39800      -15.02940        5.28500
C          1.37510      -15.57930        4.54900
C          0.54750      -14.64280        3.92400
C         -0.63070      -14.84080        3.08450
C         -1.29680      -16.02160        2.89020
C         -2.53040      -16.15420        2.21390
N         -3.55680      -16.34460        1.73560
C         -0.87790      -17.26170        3.41510
N         -0.58650      -18.29940        3.81060
C          3.57440      -15.37650        6.16240
C          3.28210      -15.82110        7.61670
C          1.96760      -15.18870        8.00170
C          2.16780      -13.88370        8.12770
C          3.62140      -13.61000        7.83030
C          4.25620      -14.90140        8.37040
C          3.81210      -13.84060        6.31050
H          4.45130       10.98460       -3.39570
H          9.32460       12.60520       -1.90660
H          8.82570        7.91640       -0.05160
H         11.24610        9.65560        1.67270
H         12.42380        7.92990        0.01900
H         14.28930        9.14750        1.41480
H         14.59100       11.59660        0.43110
H         12.91370       11.88670       -1.57020
H         11.72690        9.51970       -2.02970
H         13.49380        9.33340       -1.95370
H         11.54600       12.05620        0.71060
H          2.08990       11.78940       -2.47920
H          2.55250       14.05200       -3.31540
H          2.35990       15.59380       -5.33110
H          3.99680       15.06800       -5.71020
H          2.73170       14.93680       -6.93340
H          2.63530       12.56250       -7.31140
H          2.19630       10.29390       -6.47960
H          2.45650        7.07570       -4.47270
H          1.02790        5.46560       -5.66210
H         -2.33210        6.31960       -7.08710
H         -1.59630        5.03420       -6.11750
H         -0.88210        5.48710       -7.66140
H         -1.85400        8.53160       -6.36220
H         -0.44490       10.13970       -5.14770
H          2.68380        4.20160        2.73260
H          2.37670        1.75930        2.70540
H          2.73580       -0.36080        0.92000
H          1.56600       -0.19320       -0.39470
H          1.03740       -0.09170        1.29150
H          1.89440        1.87360       -1.53000
H          2.17380        4.30340       -1.50740
H          4.96470        4.87960        0.76350
H          6.89350        5.96950        1.80580
H          7.38320        9.04140        2.38690
H          7.75310        7.63220        3.37970
H          6.70210        8.91230        4.00760
H          4.38220        9.14630        3.15430
H          2.44170        8.05530        2.10530
H         -1.44050        5.18080       -2.32780
H         -4.06610        2.87240       -3.83390
H         -3.06660        2.58590       -6.05210
H         -1.05180        2.41290       -7.40560
H          0.50750        2.03060       -6.66020
H         -0.28630        0.15060       -8.08490
H         -1.76310        0.03540       -7.12110
H         -0.20330       -0.34350       -6.39060
H          0.62740        1.43980       -4.25740
H         -0.38230        1.71430       -2.02590
H         -3.91850        5.05550       -1.00640
H         -6.27300        5.68030       -0.97220
H         -9.04360        3.39260       -1.85760
H         -8.58330        5.09030       -1.66020
H         -8.82860        3.05230        0.60540
H         -9.99440        4.32930        0.23970
H         -8.37090        4.74370        0.80160
H         -7.37080        1.62480       -1.69690
H         -5.01660        0.99470       -1.75100
H         -2.83650       -2.09100        4.89740
H         -4.05190       -2.47150        3.65470
H         -3.18520        0.34660        4.47710
H         -4.69470       -0.46160        4.92520
H         -4.39130       -0.03310        3.23930
H         -1.92900       -0.32590       -2.88680
H         -3.25550       -0.19820       -4.06190
H         -1.90890       -2.14180       -4.59950
H         -3.47310       -2.71630       -4.00460
H         -2.04530       -2.78950       -2.96310
H         -0.71970       -3.26460        0.86480
H          1.69630       -3.27440        1.09340
H          3.55750       -5.38100        3.46860
H          3.66070       -3.99930        2.36780
H          3.56990       -5.55210        0.41640
H          3.46460       -6.92850        1.51280
H          4.93080       -5.94230        1.47410
H          1.46130       -6.68740        3.63780
H         -0.96730       -6.67020        3.43640
H         -5.17400       -5.32650        2.42380
H         -6.44550       -5.26630        4.51520
H         -6.41580       -5.42930        6.96440
H         -4.91550       -5.16570        7.86510
H         -6.53990       -2.98710        6.46360
H         -6.49590       -3.27580        8.20640
H         -5.04490       -2.72460        7.36080
H         -2.84260       -4.55800        6.68140
H         -1.57310       -4.57360        4.59410
H         -2.27890       -8.10190        2.35190
H         -3.86220      -15.65670       -2.66960
H         -5.35850      -15.90690       -3.60100
H         -6.63830      -15.86050       -1.41080
H         -5.46500      -17.17910       -1.50490
H         -5.09050      -15.74550       -0.55610
H         -6.92170       -9.79270       -2.99560
H         -7.75330      -10.88050       -4.13640
H         -5.04010       -9.53410       -4.54400
H         -6.54600       -9.10130       -5.35490
H         -5.78190      -10.66010       -5.69360
H         -2.24430      -14.23040        1.01760
H          1.95170      -11.64530        4.87180
H          1.22480      -16.64170        4.45220
H          4.35760      -15.97090        5.69600
H          3.36840      -16.89070        7.78760
H          1.04390      -15.73110        8.08330
H          1.44430      -13.11720        8.33560
H          4.01720      -12.66630        8.19680
H          4.16990      -14.99260        9.45210
H          5.29540      -15.03200        8.07180
H          4.75200      -13.43210        5.94390
