246

C          5.24800       -2.21790      -10.33560
C          6.43560       -1.53650      -10.36440
C          7.54070       -1.99390      -11.23650
O          7.48380       -2.85040      -12.09430
C          8.72610       -1.22020      -10.80840
C         10.04090       -1.37060      -11.24090
C         10.93260       -0.51930      -10.63200
C         10.54990        0.41000       -9.65670
C          9.25530        0.57410       -9.22380
C          8.33410       -0.27360       -9.84020
C          6.88520       -0.36280       -9.66320
C          6.09660        0.65520       -9.18070
C          4.69150        0.67000       -9.24090
N          3.54840        0.77090       -9.31140
C          6.60040        1.88230       -8.71530
N          6.94510        2.91490       -8.34620
C         11.95910        0.91230       -9.46610
C         12.73520        0.43470       -8.21420
C         12.15080       -0.90250       -7.83250
C         12.51420       -1.78160       -8.75670
C         13.35040       -1.05460       -9.78020
C         14.04410       -0.02110       -8.87830
C         12.38650       -0.12190      -10.55470
C          4.28960       -2.18660       -9.31000
C          2.89770       -2.34680       -9.39920
N          2.17830       -2.60920      -10.53260
C          2.65280       -3.45920      -11.54010
C          2.37680       -3.18180      -12.87600
C          2.84300       -4.02230      -13.86760
C          3.59270       -5.15140      -13.56010
C          4.13320       -6.03970      -14.63650
C          3.85260       -5.42760      -12.22220
C          3.38790       -4.59980      -11.22060
C          0.89020       -2.04440      -10.65740
C         -0.18380       -2.82770      -11.06430
C         -1.44700       -2.27440      -11.14560
C         -1.66760       -0.94090      -10.82390
C         -3.03780       -0.34230      -10.91380
C         -0.58160       -0.16350      -10.43690
C          0.68780       -0.70000      -10.35600
C          2.29060       -2.08350       -8.15080
S          0.65720       -2.01440       -7.60190
C          1.17090       -1.57020       -5.98110
C          2.55990       -1.60150       -5.86150
N          3.30900       -1.38560       -4.70480
C          3.20090       -2.25180       -3.61560
C          2.63520       -3.51890       -3.75210
C          2.48810       -4.33970       -2.65190
C          2.90580       -3.93570       -1.39040
C          2.71780       -4.82860       -0.20130
C          3.48020       -2.67640       -1.26300
C          3.62490       -1.84180       -2.35090
C          4.42340       -0.53450       -4.83940
C          4.27080        0.69460       -5.47610
C          5.35040        1.54410       -5.61420
C          6.60560        1.19390       -5.12940
C          7.76130        2.13920       -5.24070
C          6.75250       -0.04510       -4.51720
C          5.68160       -0.90440       -4.37390
C          3.17180       -1.83680       -7.11190
S          4.81040       -1.85260       -7.65060
C          0.19210       -1.15040       -5.03510
C         -1.06270       -0.60620       -5.27270
C         -1.75330       -0.39960       -6.58300
C         -2.60400       -1.61240       -6.96270
C         -1.67480       -0.20150       -4.07560
S         -3.18690        0.61770       -3.75370
C         -2.78650        0.64520       -2.07060
C         -3.27550        1.19260       -0.87340
C         -4.35560        2.08210       -0.64850
N         -5.26650        2.33200       -1.58570
C         -6.17880        3.26240       -1.35380
C         -7.24260        3.33280       -2.33020
C         -7.14790        2.99050       -3.65120
C         -8.37640        3.07030       -4.33140
C         -9.41430        3.44670       -3.53300
C        -10.85420        3.58980       -3.88830
C        -11.67630        2.41670       -3.35000
S         -8.88290        3.72080       -1.90730
C         -6.09280        4.07560       -0.18390
C         -6.81290        5.31260        0.01740
C         -7.15150        5.85880        1.22520
C         -7.75630        7.12320        1.10920
C         -7.85890        7.55840       -0.17790
C         -8.39200        8.85670       -0.67820
C         -7.25800        9.79760       -1.09130
S         -7.21010        6.39400       -1.28370
N         -5.27220        3.74070        0.79910
C         -4.44100        2.71760        0.61810
C         -3.60130        2.24810        1.65780
C         -3.56240        2.58520        3.02230
S         -4.30280        3.70220        4.11360
C         -3.38530        2.99910        5.42350
C         -3.33060        3.27350        6.80420
C         -4.12620        4.35330        7.46360
C         -3.70300        5.73160        6.95600
C         -2.48920        2.39790        7.44620
S         -1.76130        1.22340        6.36120
C         -2.57100        1.94150        5.01640
C         -2.64860        1.72640        3.63420
N         -2.07420        0.90270        2.69730
C         -1.51760       -0.36020        3.12810
C         -2.61620       -1.30970        3.60620
C         -2.63510        1.22410        1.47060
C         -2.35970        0.81360        0.14640
N         -1.31990        0.10990       -0.42950
C         -1.57250        0.02140       -1.77300
C         -0.92470       -0.44130       -2.92430
S          0.59020       -1.16250       -3.31820
C         -0.01240       -0.21290        0.09220
C          0.20040       -1.72250        0.20990
C         -2.24420        2.27640        8.85720
S         -2.76790        0.86090        9.70230
C         -2.22990        1.51510       11.22600
C         -1.67070        2.78480       11.05340
C         -1.16950        3.63250       12.14700
O         -1.39480        3.41150       13.32680
C         -0.39580        4.78120       11.68190
C          0.34680        5.58880       12.50760
C          0.50250        5.52320       13.98260
C         -0.63000        6.28320       14.67970
S          1.14240        6.83020       11.60270
C          0.47830        6.26760       10.10500
C          0.76320        7.00060        8.84500
C         -0.27750        8.10120        8.61620
C         -0.31750        5.16750       10.30320
C         -0.99230        4.42770        9.23550
O         -0.94970        4.74660        8.05900
C         -1.66870        3.21030        9.70720
C         -2.27660        0.84230       12.46580
C         -2.95060       -0.28920       12.81400
C         -3.95010       -1.00210       11.99870
O         -4.13260       -0.90540       10.79950
C         -4.70440       -1.84880       12.93790
C         -5.83100       -2.61920       12.65400
C         -6.34060       -3.28610       13.74180
C         -5.77470       -3.19400       15.02130
C         -4.66240       -2.44180       15.31550
C         -4.12530       -1.75660       14.22150
C         -2.97070       -0.86770       14.14730
C         -2.02720       -0.67830       15.11950
C         -2.07280       -1.28060       16.39430
N         -2.05920       -1.73770       17.44710
C         -0.84380        0.07710       14.95650
N          0.16340        0.62330       14.88970
C         -6.80380       -4.11280       15.63010
C         -6.35450       -5.56230       15.91160
C         -7.65380       -6.32450       16.03920
C         -8.19060       -6.41230       14.82900
C         -7.26250       -5.71210       13.86260
C         -5.91190       -6.02730       14.51820
C         -7.43420       -4.21670       14.20410
H          5.07790       -2.88760      -11.17220
H         10.29820       -2.10070      -11.99240
H          8.97000        1.28290       -8.46380
H         12.12000        1.96810       -9.67570
H         12.80750        1.17230       -7.41900
H         11.50330       -1.05540       -6.98900
H         12.23110       -2.81480       -8.83850
H         13.98380       -1.67390      -10.41020
H         14.73900       -0.47540       -8.17330
H         14.54720        0.77000       -9.43270
H         12.82780        0.25980      -11.47350
H          1.80500       -2.30130      -13.12830
H          2.62900       -3.78980      -14.90050
H          4.05530       -7.08660      -14.35010
H          5.18750       -5.81600      -14.80140
H          3.60190       -5.88750      -15.57250
H          4.42730       -6.30430      -11.96160
H          3.58930       -4.83080      -10.18450
H         -0.02480       -3.86870      -11.30470
H         -2.27700       -2.89390      -11.45330
H         -3.15690        0.17570      -11.86600
H         -3.19510        0.38320      -10.11850
H         -3.80420       -1.11130      -10.85040
H         -0.73150        0.87920      -10.19760
H          1.52560       -0.08720      -10.05850
H          2.30970       -3.85860       -4.72460
H          2.04400       -5.31690       -2.77750
H          3.34090       -4.50640        0.62960
H          2.96840       -5.85820       -0.44890
H          1.67670       -4.80780        0.12380
H          3.81570       -2.33870       -0.29250
H          4.05460       -0.85900       -2.22900
H          3.30150        0.97890       -5.85990
H          5.21700        2.49730       -6.10410
H          8.70630        1.59980       -5.24080
H          7.76300        2.82410       -4.39190
H          7.68550        2.73260       -6.14910
H          7.72350       -0.34660       -4.15040
H          5.81650       -1.86880       -3.90650
H         -1.03260       -0.19400       -7.37530
H         -2.40680        0.46990       -6.47750
H         -3.36220       -1.78960       -6.20360
H         -3.09480       -1.43850       -7.91610
H         -1.98590       -2.50230       -7.05300
H         -6.21550        2.70420       -4.10210
H         -8.49050        2.85580       -5.37960
H        -10.94570        3.63480       -4.97570
H        -11.24520        4.52120       -3.47160
H        -12.72280        2.53210       -3.62080
H        -11.31040        1.47890       -3.76180
H        -11.59890        2.37130       -2.26610
H         -6.97200        5.34890        2.15380
H         -8.10420        7.69520        1.95150
H         -9.04190        8.68070       -1.53870
H         -8.98570        9.32140        0.11190
H         -6.60390        9.99490       -0.24510
H         -7.66120       10.74200       -1.44850
H         -6.66780        9.34700       -1.88590
H         -3.99040        4.29880        8.54520
H         -5.18490        4.19330        7.24010
H         -3.92260        5.83120        5.89640
H         -4.23530        6.50990        7.49760
H         -2.63400        5.86200        7.10270
H         -0.82380       -0.15430        3.94900
H         -0.97520       -0.82660        2.31330
H         -3.15140       -0.88300        4.45040
H         -3.32600       -1.49800        2.80310
H         -2.17740       -2.25380        3.91700
H          0.73440        0.18620       -0.60390
H          0.12180        0.29500        1.04840
H          1.13750       -1.92390        0.72070
H          0.25190       -2.16910       -0.77960
H         -0.61210       -2.19810        0.75560
H          1.46420        5.95350       14.26870
H          0.46560        4.47810       14.29710
H         -0.65050        7.32240       14.35730
H         -1.58380        5.81900       14.44440
H         -0.48590        6.25220       15.75590
H          0.72410        6.29690        8.01200
H          1.75870        7.44600        8.89730
H         -0.05550        8.63510        7.69640
H         -1.26940        7.66460        8.53260
H         -0.27300        8.80910        9.44260
H         -1.74200        1.36330       13.25280
H         -6.24050       -2.65570       11.65670
H         -4.24430       -2.37010       16.30580
H         -7.40100       -3.68840       16.43480
H         -5.64240       -5.66760       16.72530
H         -8.06250       -6.66090       16.97390
H         -9.13740       -6.83680       14.55070
H         -7.37840       -5.95530       12.80980
H         -5.68100       -7.09090       14.49350
H         -5.07630       -5.46390       14.10690
H         -8.45230       -3.86080       14.05740
