
  xtb     02132206123D
 energy: -309.300809372406 gnorm: 0.000486276841 xtb: 6.4.1 (unknown)
192214  0     0  0            999 V2000
    1.3923    1.3577    9.1549 C   0  0  0  0  0  0  0  0  0  0  0  0
    1.2106    0.7546   10.3731 C   0  0  0  0  0  0  0  0  0  0  0  0
    0.3946   -0.4337   10.6341 C   0  0  0  0  0  0  0  0  0  0  0  0
   -0.1695   -1.1447    9.8193 O   0  0  0  0  0  0  0  0  0  0  0  0
    0.3773   -0.6068   12.0978 C   0  0  0  0  0  0  0  0  0  0  0  0
   -0.3083   -1.5811   12.8194 C   0  0  0  0  0  0  0  0  0  0  0  0
   -0.1521   -1.4815   14.1811 C   0  0  0  0  0  0  0  0  0  0  0  0
    0.6324   -0.4881   14.7810 C   0  0  0  0  0  0  0  0  0  0  0  0
    1.3203    0.4743   14.0803 C   0  0  0  0  0  0  0  0  0  0  0  0
    1.1723    0.3935   12.6926 C   0  0  0  0  0  0  0  0  0  0  0  0
    1.7447    1.2242   11.6330 C   0  0  0  0  0  0  0  0  0  0  0  0
    2.6633    2.2272   11.8166 C   0  0  0  0  0  0  0  0  0  0  0  0
    3.2976    2.9673   10.7968 C   0  0  0  0  0  0  0  0  0  0  0  0
    3.8882    3.6051   10.0449 N   0  0  0  0  0  0  0  0  0  0  0  0
    3.1472    2.6431   13.0739 C   0  0  0  0  0  0  0  0  0  0  0  0
    3.5815    3.0394   14.0608 N   0  0  0  0  0  0  0  0  0  0  0  0
    0.3310   -0.9788   16.1754 C   0  0  0  0  0  0  0  0  0  0  0  0
   -0.7031   -0.1667   16.9834 C   0  0  0  0  0  0  0  0  0  0  0  0
   -1.1449   -1.1214   18.0689 C   0  0  0  0  0  0  0  0  0  0  0  0
   -1.8888   -2.0620   17.5009 C   0  0  0  0  0  0  0  0  0  0  0  0
   -1.9621   -1.7587   16.0217 C   0  0  0  0  0  0  0  0  0  0  0  0
   -1.9306   -0.2255   16.0649 C   0  0  0  0  0  0  0  0  0  0  0  0
   -0.5445   -2.0866   15.5064 C   0  0  0  0  0  0  0  0  0  0  0  0
    0.9289    0.9942    7.8853 C   0  0  0  0  0  0  0  0  0  0  0  0
    1.2304    1.7592    6.7447 C   0  0  0  0  0  0  0  0  0  0  0  0
    2.0105    3.0081    6.8190 C   0  0  0  0  0  0  0  0  0  0  0  0
    3.3807    2.9929    6.5564 C   0  0  0  0  0  0  0  0  0  0  0  0
    4.1019    4.1710    6.6731 C   0  0  0  0  0  0  0  0  0  0  0  0
    3.4931    5.3612    7.0368 C   0  0  0  0  0  0  0  0  0  0  0  0
    4.2998    6.6114    7.2303 C   0  0  0  0  0  0  0  0  0  0  0  0
    4.6758    6.7631    8.7055 C   0  0  0  0  0  0  0  0  0  0  0  0
    2.1278    5.3588    7.2798 C   0  0  0  0  0  0  0  0  0  0  0  0
    1.3767    4.1990    7.1835 C   0  0  0  0  0  0  0  0  0  0  0  0
   -0.1073    4.2505    7.4266 C   0  0  0  0  0  0  0  0  0  0  0  0
   -0.8659    4.4552    6.1141 C   0  0  0  0  0  0  0  0  0  0  0  0
    4.0984    1.7169    6.2120 C   0  0  0  0  0  0  0  0  0  0  0  0
    4.6120    1.0251    7.4765 C   0  0  0  0  0  0  0  0  0  0  0  0
    0.7102    1.2155    5.5822 C   0  0  0  0  0  0  0  0  0  0  0  0
   -0.0152    0.0504    5.7977 C   0  0  0  0  0  0  0  0  0  0  0  0
   -0.0372   -0.4033    7.4707 S   0  0  0  0  0  0  0  0  0  0  0  0
   -0.6370   -0.7224    4.7852 C   0  0  0  0  0  0  0  0  0  0  0  0
   -1.4868   -1.8085    4.9025 C   0  0  0  0  0  0  0  0  0  0  0  0
   -2.0402   -2.3164    6.1634 C   0  0  0  0  0  0  0  0  0  0  0  0
   -1.8093   -3.6308    6.5493 C   0  0  0  0  0  0  0  0  0  0  0  0
   -2.3485   -4.1004    7.7323 C   0  0  0  0  0  0  0  0  0  0  0  0
   -3.1271   -3.2734    8.5211 C   0  0  0  0  0  0  0  0  0  0  0  0
   -3.3880   -1.9647    8.1356 C   0  0  0  0  0  0  0  0  0  0  0  0
   -4.2139   -1.0546    8.9984 C   0  0  0  0  0  0  0  0  0  0  0  0
   -3.3085   -0.2127    9.8982 C   0  0  0  0  0  0  0  0  0  0  0  0
   -2.8362   -1.4956    6.9543 C   0  0  0  0  0  0  0  0  0  0  0  0
   -1.8070   -2.3507    3.6461 C   0  0  0  0  0  0  0  0  0  0  0  0
   -2.8236   -3.6886    3.1653 S   0  0  0  0  0  0  0  0  0  0  0  0
   -2.4639   -3.3305    1.5090 C   0  0  0  0  0  0  0  0  0  0  0  0
   -2.7553   -3.8174    0.2253 C   0  0  0  0  0  0  0  0  0  0  0  0
   -3.4878   -4.9505   -0.1904 C   0  0  0  0  0  0  0  0  0  0  0  0
   -3.5476   -5.2630   -1.5887 C   0  0  0  0  0  0  0  0  0  0  0  0
   -4.2266   -6.3735   -1.8307 N   0  0  0  0  0  0  0  0  0  0  0  0
   -4.7494   -6.9718   -0.4202 S   0  0  0  0  0  0  0  0  0  0  0  0
   -4.1288   -5.8377    0.5544 N   0  0  0  0  0  0  0  0  0  0  0  0
   -2.9552   -4.3747   -2.5123 C   0  0  0  0  0  0  0  0  0  0  0  0
   -2.9637   -4.3674   -3.9157 C   0  0  0  0  0  0  0  0  0  0  0  0
   -3.5442   -5.3289   -5.2340 S   0  0  0  0  0  0  0  0  0  0  0  0
   -2.9419   -4.1213   -6.3469 C   0  0  0  0  0  0  0  0  0  0  0  0
   -2.9436   -4.0379   -7.7512 C   0  0  0  0  0  0  0  0  0  0  0  0
   -3.4751   -5.1051   -8.6033 C   0  0  0  0  0  0  0  0  0  0  0  0
   -4.7596   -5.5913   -8.3846 C   0  0  0  0  0  0  0  0  0  0  0  0
   -5.2487   -6.6186   -9.1704 C   0  0  0  0  0  0  0  0  0  0  0  0
   -4.4585   -7.1776  -10.1580 C   0  0  0  0  0  0  0  0  0  0  0  0
   -3.1638   -6.7185  -10.3752 C   0  0  0  0  0  0  0  0  0  0  0  0
   -2.2857   -7.3807  -11.3977 C   0  0  0  0  0  0  0  0  0  0  0  0
   -1.6449   -8.6405  -10.8120 C   0  0  0  0  0  0  0  0  0  0  0  0
   -2.6840   -5.6790   -9.5945 C   0  0  0  0  0  0  0  0  0  0  0  0
   -2.3363   -2.8690   -8.1851 C   0  0  0  0  0  0  0  0  0  0  0  0
   -1.7329   -1.8917   -6.8528 S   0  0  0  0  0  0  0  0  0  0  0  0
   -2.3211   -3.0431   -5.7095 C   0  0  0  0  0  0  0  0  0  0  0  0
   -2.3326   -3.1877   -4.3176 C   0  0  0  0  0  0  0  0  0  0  0  0
   -1.9084   -2.4822   -3.2244 N   0  0  0  0  0  0  0  0  0  0  0  0
   -2.2749   -3.1948   -2.0936 C   0  0  0  0  0  0  0  0  0  0  0  0
   -2.0875   -2.9692   -0.7040 C   0  0  0  0  0  0  0  0  0  0  0  0
   -1.3798   -2.0151    0.0114 N   0  0  0  0  0  0  0  0  0  0  0  0
   -1.6085   -2.2383    1.3425 C   0  0  0  0  0  0  0  0  0  0  0  0
   -1.2275   -1.6780    2.5666 C   0  0  0  0  0  0  0  0  0  0  0  0
   -0.2549   -0.3557    3.1020 S   0  0  0  0  0  0  0  0  0  0  0  0
   -0.2556   -1.1961   -0.3845 C   0  0  0  0  0  0  0  0  0  0  0  0
    0.8736   -2.0394   -0.9711 C   0  0  0  0  0  0  0  0  0  0  0  0
   -1.5488   -1.0904   -3.3783 C   0  0  0  0  0  0  0  0  0  0  0  0
   -2.6244   -0.1679   -2.8104 C   0  0  0  0  0  0  0  0  0  0  0  0
   -2.2034   -2.3352   -9.4934 C   0  0  0  0  0  0  0  0  0  0  0  0
   -2.8761   -2.6969  -10.6505 C   0  0  0  0  0  0  0  0  0  0  0  0
   -2.5168   -1.9170  -11.7380 C   0  0  0  0  0  0  0  0  0  0  0  0
   -3.2316   -2.1539  -13.3405 S   0  0  0  0  0  0  0  0  0  0  0  0
   -1.8323   -2.9756  -14.1944 C   0  0  0  0  0  0  0  0  0  0  0  0
   -1.5215   -4.3238  -13.5790 C   0  0  0  0  0  0  0  0  0  0  0  0
   -1.5800   -0.9129  -11.4465 C   0  0  0  0  0  0  0  0  0  0  0  0
   -1.1277   -0.9984   -9.7628 S   0  0  0  0  0  0  0  0  0  0  0  0
   -1.1244    0.0141  -12.3913 C   0  0  0  0  0  0  0  0  0  0  0  0
   -0.2734    1.0792  -12.2416 C   0  0  0  0  0  0  0  0  0  0  0  0
    0.2847    1.5646  -10.9751 C   0  0  0  0  0  0  0  0  0  0  0  0
    0.2344    1.0244   -9.8829 O   0  0  0  0  0  0  0  0  0  0  0  0
    0.9145    2.8624  -11.2729 C   0  0  0  0  0  0  0  0  0  0  0  0
    1.5207    3.7285  -10.3657 C   0  0  0  0  0  0  0  0  0  0  0  0
    2.0082    4.8807  -10.9343 C   0  0  0  0  0  0  0  0  0  0  0  0
    1.8960    5.1546  -12.3037 C   0  0  0  0  0  0  0  0  0  0  0  0
    1.3003    4.3087  -13.2096 C   0  0  0  0  0  0  0  0  0  0  0  0
    0.8037    3.1266  -12.6529 C   0  0  0  0  0  0  0  0  0  0  0  0
    0.1334    1.9934  -13.2886 C   0  0  0  0  0  0  0  0  0  0  0  0
    0.0101    1.7980  -14.6407 C   0  0  0  0  0  0  0  0  0  0  0  0
    0.4377    2.7163  -15.6212 C   0  0  0  0  0  0  0  0  0  0  0  0
    0.7585    3.4188  -16.4710 N   0  0  0  0  0  0  0  0  0  0  0  0
   -0.4862    0.6241  -15.2433 C   0  0  0  0  0  0  0  0  0  0  0  0
   -0.8282   -0.3182  -15.8049 N   0  0  0  0  0  0  0  0  0  0  0  0
    2.6026    6.4814  -12.1780 C   0  0  0  0  0  0  0  0  0  0  0  0
    4.0744    6.5238  -12.6405 C   0  0  0  0  0  0  0  0  0  0  0  0
    4.6284    7.7601  -11.9699 C   0  0  0  0  0  0  0  0  0  0  0  0
    4.7351    7.5019  -10.6727 C   0  0  0  0  0  0  0  0  0  0  0  0
    4.2553    6.0865  -10.4449 C   0  0  0  0  0  0  0  0  0  0  0  0
    4.7088    5.4395  -11.7598 C   0  0  0  0  0  0  0  0  0  0  0  0
    2.7283    6.1758  -10.6508 C   0  0  0  0  0  0  0  0  0  0  0  0
    1.9759    2.2718    9.1425 H   0  0  0  0  0  0  0  0  0  0  0  0
   -0.8959   -2.3331   12.3158 H   0  0  0  0  0  0  0  0  0  0  0  0
    1.9216    1.2295   14.5578 H   0  0  0  0  0  0  0  0  0  0  0  0
    1.1917   -1.2821   16.7684 H   0  0  0  0  0  0  0  0  0  0  0  0
   -0.3622    0.8142   17.3029 H   0  0  0  0  0  0  0  0  0  0  0  0
   -0.8349   -1.0484   19.0948 H   0  0  0  0  0  0  0  0  0  0  0  0
   -2.3240   -2.9316   17.9574 H   0  0  0  0  0  0  0  0  0  0  0  0
   -2.7693   -2.2280   15.4656 H   0  0  0  0  0  0  0  0  0  0  0  0
   -2.8186    0.1912   16.5375 H   0  0  0  0  0  0  0  0  0  0  0  0
   -1.7809    0.2428   15.0938 H   0  0  0  0  0  0  0  0  0  0  0  0
   -0.2680   -3.1288   15.6546 H   0  0  0  0  0  0  0  0  0  0  0  0
    5.1658    4.1544    6.4841 H   0  0  0  0  0  0  0  0  0  0  0  0
    5.2091    6.5639    6.6278 H   0  0  0  0  0  0  0  0  0  0  0  0
    3.7227    7.4825    6.9111 H   0  0  0  0  0  0  0  0  0  0  0  0
    3.7807    6.8652    9.3145 H   0  0  0  0  0  0  0  0  0  0  0  0
    5.3015    7.6405    8.8534 H   0  0  0  0  0  0  0  0  0  0  0  0
    5.2129    5.8825    9.0476 H   0  0  0  0  0  0  0  0  0  0  0  0
    1.6372    6.2801    7.5620 H   0  0  0  0  0  0  0  0  0  0  0  0
   -0.3326    5.0784    8.1021 H   0  0  0  0  0  0  0  0  0  0  0  0
   -0.4499    3.3276    7.8991 H   0  0  0  0  0  0  0  0  0  0  0  0
   -0.5296    5.3653    5.6225 H   0  0  0  0  0  0  0  0  0  0  0  0
   -1.9345    4.5354    6.3015 H   0  0  0  0  0  0  0  0  0  0  0  0
   -0.6942    3.6179    5.4418 H   0  0  0  0  0  0  0  0  0  0  0  0
    4.9473    1.9478    5.5649 H   0  0  0  0  0  0  0  0  0  0  0  0
    3.4345    1.0381    5.6728 H   0  0  0  0  0  0  0  0  0  0  0  0
    5.2296    0.1682    7.2163 H   0  0  0  0  0  0  0  0  0  0  0  0
    3.7820    0.6781    8.0880 H   0  0  0  0  0  0  0  0  0  0  0  0
    5.2031    1.7180    8.0705 H   0  0  0  0  0  0  0  0  0  0  0  0
    0.8467    1.6490    4.6054 H   0  0  0  0  0  0  0  0  0  0  0  0
   -1.1996   -4.2724    5.9306 H   0  0  0  0  0  0  0  0  0  0  0  0
   -2.1606   -5.1188    8.0388 H   0  0  0  0  0  0  0  0  0  0  0  0
   -3.5446   -3.6488    9.4444 H   0  0  0  0  0  0  0  0  0  0  0  0
   -4.8156   -0.3932    8.3708 H   0  0  0  0  0  0  0  0  0  0  0  0
   -4.8910   -1.6455    9.6185 H   0  0  0  0  0  0  0  0  0  0  0  0
   -2.6481    0.4072    9.2962 H   0  0  0  0  0  0  0  0  0  0  0  0
   -3.9006    0.4305   10.5461 H   0  0  0  0  0  0  0  0  0  0  0  0
   -2.6877   -0.8586   10.5136 H   0  0  0  0  0  0  0  0  0  0  0  0
   -3.0315   -0.4808    6.6356 H   0  0  0  0  0  0  0  0  0  0  0  0
   -5.3741   -5.1530   -7.6130 H   0  0  0  0  0  0  0  0  0  0  0  0
   -6.2509   -6.9863   -9.0082 H   0  0  0  0  0  0  0  0  0  0  0  0
   -4.8457   -7.9818  -10.7668 H   0  0  0  0  0  0  0  0  0  0  0  0
   -1.5002   -6.6938  -11.7167 H   0  0  0  0  0  0  0  0  0  0  0  0
   -2.8790   -7.6538  -12.2729 H   0  0  0  0  0  0  0  0  0  0  0  0
   -2.4108   -9.3460  -10.4982 H   0  0  0  0  0  0  0  0  0  0  0  0
   -1.0101   -9.1224  -11.5518 H   0  0  0  0  0  0  0  0  0  0  0  0
   -1.0386   -8.3874   -9.9451 H   0  0  0  0  0  0  0  0  0  0  0  0
   -1.6781   -5.3125   -9.7448 H   0  0  0  0  0  0  0  0  0  0  0  0
   -0.5718   -0.4113   -1.0722 H   0  0  0  0  0  0  0  0  0  0  0  0
    0.1002   -0.7009    0.5223 H   0  0  0  0  0  0  0  0  0  0  0  0
    1.2344   -2.7449   -0.2262 H   0  0  0  0  0  0  0  0  0  0  0  0
    0.5361   -2.6047   -1.8365 H   0  0  0  0  0  0  0  0  0  0  0  0
    1.6989   -1.3981   -1.2686 H   0  0  0  0  0  0  0  0  0  0  0  0
   -1.4538   -0.9120   -4.4522 H   0  0  0  0  0  0  0  0  0  0  0  0
   -0.5727   -0.8928   -2.9353 H   0  0  0  0  0  0  0  0  0  0  0  0
   -3.5622   -0.3245   -3.3383 H   0  0  0  0  0  0  0  0  0  0  0  0
   -2.7943   -0.3621   -1.7540 H   0  0  0  0  0  0  0  0  0  0  0  0
   -2.3264    0.8695   -2.9356 H   0  0  0  0  0  0  0  0  0  0  0  0
   -3.6061   -3.4830  -10.7058 H   0  0  0  0  0  0  0  0  0  0  0  0
   -2.1747   -3.0720  -15.2231 H   0  0  0  0  0  0  0  0  0  0  0  0
   -0.9725   -2.3083  -14.1707 H   0  0  0  0  0  0  0  0  0  0  0  0
   -0.7360   -4.8164  -14.1488 H   0  0  0  0  0  0  0  0  0  0  0  0
   -1.1841   -4.2053  -12.5503 H   0  0  0  0  0  0  0  0  0  0  0  0
   -2.4070   -4.9557  -13.5813 H   0  0  0  0  0  0  0  0  0  0  0  0
   -1.5613   -0.1307  -13.3735 H   0  0  0  0  0  0  0  0  0  0  0  0
    1.5795    3.4803   -9.3174 H   0  0  0  0  0  0  0  0  0  0  0  0
    1.2136    4.5388  -14.2583 H   0  0  0  0  0  0  0  0  0  0  0  0
    2.0330    7.3548  -12.4897 H   0  0  0  0  0  0  0  0  0  0  0  0
    4.2160    6.4437  -13.7147 H   0  0  0  0  0  0  0  0  0  0  0  0
    4.8265    8.6830  -12.4825 H   0  0  0  0  0  0  0  0  0  0  0  0
    5.0401    8.1662   -9.8854 H   0  0  0  0  0  0  0  0  0  0  0  0
    4.5632    5.6088   -9.5185 H   0  0  0  0  0  0  0  0  0  0  0  0
    5.7932    5.4154  -11.8541 H   0  0  0  0  0  0  0  0  0  0  0  0
    4.3069    4.4416  -11.9255 H   0  0  0  0  0  0  0  0  0  0  0  0
    2.2416    6.8453   -9.9439 H   0  0  0  0  0  0  0  0  0  0  0  0
  1  2  2  0  0  0  0
  2  3  1  0  0  0  0
  3  4  2  0  0  0  0
  3  5  1  0  0  0  0
  5  6  2  0  0  0  0
  6  7  1  0  0  0  0
  7  8  2  0  0  0  0
  8  9  1  0  0  0  0
  9 10  2  0  0  0  0
 10 11  1  0  0  0  0
 11 12  2  0  0  0  0
 12 13  1  0  0  0  0
 13 14  3  0  0  0  0
 12 15  1  0  0  0  0
 15 16  3  0  0  0  0
  8 17  1  0  0  0  0
 17 18  1  0  0  0  0
 18 19  1  0  0  0  0
 19 20  2  0  0  0  0
 20 21  1  0  0  0  0
 21 22  1  0  0  0  0
 21 23  1  0  0  0  0
  1 24  1  0  0  0  0
 24 25  2  0  0  0  0
 25 26  1  0  0  0  0
 26 27  2  0  0  0  0
 27 28  1  0  0  0  0
 28 29  2  0  0  0  0
 29 30  1  0  0  0  0
 30 31  1  0  0  0  0
 29 32  1  0  0  0  0
 32 33  2  0  0  0  0
 33 34  1  0  0  0  0
 34 35  1  0  0  0  0
 27 36  1  0  0  0  0
 36 37  1  0  0  0  0
 25 38  1  0  0  0  0
 38 39  2  0  0  0  0
 39 40  1  0  0  0  0
 39 41  1  0  0  0  0
 41 42  2  0  0  0  0
 42 43  1  0  0  0  0
 43 44  2  0  0  0  0
 44 45  1  0  0  0  0
 45 46  2  0  0  0  0
 46 47  1  0  0  0  0
 47 48  1  0  0  0  0
 48 49  1  0  0  0  0
 47 50  2  0  0  0  0
 42 51  1  0  0  0  0
 51 52  1  0  0  0  0
 52 53  1  0  0  0  0
 53 54  1  0  0  0  0
 54 55  1  0  0  0  0
 55 56  1  0  0  0  0
 56 57  2  0  0  0  0
 57 58  1  0  0  0  0
 58 59  1  0  0  0  0
 56 60  1  0  0  0  0
 60 61  1  0  0  0  0
 61 62  1  0  0  0  0
 62 63  1  0  0  0  0
 63 64  1  0  0  0  0
 64 65  1  0  0  0  0
 65 66  2  0  0  0  0
 66 67  1  0  0  0  0
 67 68  2  0  0  0  0
 68 69  1  0  0  0  0
 69 70  1  0  0  0  0
 70 71  1  0  0  0  0
 69 72  2  0  0  0  0
 64 73  2  0  0  0  0
 73 74  1  0  0  0  0
 74 75  1  0  0  0  0
 75 76  1  0  0  0  0
 76 77  1  0  0  0  0
 77 78  1  0  0  0  0
 78 79  1  0  0  0  0
 79 80  1  0  0  0  0
 80 81  1  0  0  0  0
 81 82  1  0  0  0  0
 82 83  1  0  0  0  0
 80 84  1  0  0  0  0
 84 85  1  0  0  0  0
 77 86  1  0  0  0  0
 86 87  1  0  0  0  0
 73 88  1  0  0  0  0
 88 89  2  0  0  0  0
 89 90  1  0  0  0  0
 90 91  1  0  0  0  0
 91 92  1  0  0  0  0
 92 93  1  0  0  0  0
 90 94  2  0  0  0  0
 94 95  1  0  0  0  0
 94 96  1  0  0  0  0
 96 97  2  0  0  0  0
 97 98  1  0  0  0  0
 98 99  2  0  0  0  0
 98100  1  0  0  0  0
100101  2  0  0  0  0
101102  1  0  0  0  0
102103  2  0  0  0  0
103104  1  0  0  0  0
104105  2  0  0  0  0
105106  1  0  0  0  0
106107  2  0  0  0  0
107108  1  0  0  0  0
108109  3  0  0  0  0
107110  1  0  0  0  0
110111  3  0  0  0  0
103112  1  0  0  0  0
112113  1  0  0  0  0
113114  1  0  0  0  0
114115  2  0  0  0  0
115116  1  0  0  0  0
116117  1  0  0  0  0
116118  1  0  0  0  0
 11  2  1  0  0  0  0
 23 17  1  0  0  0  0
 40 24  1  0  0  0  0
 83 41  1  0  0  0  0
 95 88  1  0  0  0  0
106 97  1  0  0  0  0
118112  1  0  0  0  0
 10  5  1  0  0  0  0
 22 18  1  0  0  0  0
 33 26  1  0  0  0  0
 50 43  1  0  0  0  0
 82 51  2  0  0  0  0
105100  1  0  0  0  0
117113  1  0  0  0  0
 23  7  1  0  0  0  0
 81 53  2  0  0  0  0
118102  1  0  0  0  0
 79 54  2  0  0  0  0
 59 55  2  0  0  0  0
 78 60  2  0  0  0  0
 76 61  2  0  0  0  0
 75 63  2  0  0  0  0
 72 65  1  0  0  0  0
  1119  1  0  0  0  0
  6120  1  0  0  0  0
  9121  1  0  0  0  0
 17122  1  0  0  0  0
 18123  1  0  0  0  0
 19124  1  0  0  0  0
 20125  1  0  0  0  0
 21126  1  0  0  0  0
 22127  1  0  0  0  0
 22128  1  0  0  0  0
 23129  1  0  0  0  0
 28130  1  0  0  0  0
 30131  1  0  0  0  0
 30132  1  0  0  0  0
 31133  1  0  0  0  0
 31134  1  0  0  0  0
 31135  1  0  0  0  0
 32136  1  0  0  0  0
 34137  1  0  0  0  0
 34138  1  0  0  0  0
 35139  1  0  0  0  0
 35140  1  0  0  0  0
 35141  1  0  0  0  0
 36142  1  0  0  0  0
 36143  1  0  0  0  0
 37144  1  0  0  0  0
 37145  1  0  0  0  0
 37146  1  0  0  0  0
 38147  1  0  0  0  0
 44148  1  0  0  0  0
 45149  1  0  0  0  0
 46150  1  0  0  0  0
 48151  1  0  0  0  0
 48152  1  0  0  0  0
 49153  1  0  0  0  0
 49154  1  0  0  0  0
 49155  1  0  0  0  0
 50156  1  0  0  0  0
 66157  1  0  0  0  0
 67158  1  0  0  0  0
 68159  1  0  0  0  0
 70160  1  0  0  0  0
 70161  1  0  0  0  0
 71162  1  0  0  0  0
 71163  1  0  0  0  0
 71164  1  0  0  0  0
 72165  1  0  0  0  0
 84166  1  0  0  0  0
 84167  1  0  0  0  0
 85168  1  0  0  0  0
 85169  1  0  0  0  0
 85170  1  0  0  0  0
 86171  1  0  0  0  0
 86172  1  0  0  0  0
 87173  1  0  0  0  0
 87174  1  0  0  0  0
 87175  1  0  0  0  0
 89176  1  0  0  0  0
 92177  1  0  0  0  0
 92178  1  0  0  0  0
 93179  1  0  0  0  0
 93180  1  0  0  0  0
 93181  1  0  0  0  0
 96182  1  0  0  0  0
101183  1  0  0  0  0
104184  1  0  0  0  0
112185  1  0  0  0  0
113186  1  0  0  0  0
114187  1  0  0  0  0
115188  1  0  0  0  0
116189  1  0  0  0  0
117190  1  0  0  0  0
117191  1  0  0  0  0
118192  1  0  0  0  0
M  END
