
  xtb     02232217113D
 energy: -410.367935649568 gnorm: 0.000320174604 xtb: 6.4.1 (unknown)
257284  0     0  0            999 V2000
    2.1115    9.0093    5.9564 C   0  0  0  0  0  0  0  0  0  0  0  0
    1.4143   10.1363    5.5772 C   0  0  0  0  0  0  0  0  0  0  0  0
    0.2405   10.1093    4.6913 C   0  0  0  0  0  0  0  0  0  0  0  0
   -0.3076    9.1314    4.2152 O   0  0  0  0  0  0  0  0  0  0  0  0
   -0.0593   11.5232    4.3809 C   0  0  0  0  0  0  0  0  0  0  0  0
   -1.0751   12.0048    3.5612 C   0  0  0  0  0  0  0  0  0  0  0  0
   -1.1160   13.3761    3.4684 C   0  0  0  0  0  0  0  0  0  0  0  0
   -0.2033   14.2070    4.1281 C   0  0  0  0  0  0  0  0  0  0  0  0
    0.8108   13.7430    4.9332 C   0  0  0  0  0  0  0  0  0  0  0  0
    0.8598   12.3525    5.0511 C   0  0  0  0  0  0  0  0  0  0  0  0
    1.7664   11.5051    5.8236 C   0  0  0  0  0  0  0  0  0  0  0  0
    2.6818   11.9393    6.7523 C   0  0  0  0  0  0  0  0  0  0  0  0
    2.9172   13.2891    7.0676 C   0  0  0  0  0  0  0  0  0  0  0  0
    3.1418   14.3709    7.3849 N   0  0  0  0  0  0  0  0  0  0  0  0
    3.4373   11.0779    7.5715 C   0  0  0  0  0  0  0  0  0  0  0  0
    4.0630   10.4380    8.2921 N   0  0  0  0  0  0  0  0  0  0  0  0
   -0.8368   15.4666    3.5891 C   0  0  0  0  0  0  0  0  0  0  0  0
   -1.7313   16.2587    4.5656 C   0  0  0  0  0  0  0  0  0  0  0  0
   -2.5762   17.1267    3.6614 C   0  0  0  0  0  0  0  0  0  0  0  0
   -3.4446   16.3381    3.0413 C   0  0  0  0  0  0  0  0  0  0  0  0
   -3.2008   14.9237    3.5156 C   0  0  0  0  0  0  0  0  0  0  0  0
   -2.7689   15.2004    4.9613 C   0  0  0  0  0  0  0  0  0  0  0  0
   -1.8589   14.5389    2.8571 C   0  0  0  0  0  0  0  0  0  0  0  0
    1.5879    7.7159    6.0230 C   0  0  0  0  0  0  0  0  0  0  0  0
    0.2680    7.2557    6.2149 C   0  0  0  0  0  0  0  0  0  0  0  0
   -0.8139    8.0003    6.5821 N   0  0  0  0  0  0  0  0  0  0  0  0
   -2.1140    7.5036    6.3340 C   0  0  0  0  0  0  0  0  0  0  0  0
   -2.4624    7.0232    5.0755 C   0  0  0  0  0  0  0  0  0  0  0  0
   -3.7293    6.5188    4.8612 C   0  0  0  0  0  0  0  0  0  0  0  0
   -4.6722    6.4865    5.8834 C   0  0  0  0  0  0  0  0  0  0  0  0
   -6.0283    5.8968    5.6454 C   0  0  0  0  0  0  0  0  0  0  0  0
   -4.3222    7.0017    7.1250 C   0  0  0  0  0  0  0  0  0  0  0  0
   -3.0575    7.5084    7.3545 C   0  0  0  0  0  0  0  0  0  0  0  0
   -0.7173    9.2499    7.2114 C   0  0  0  0  0  0  0  0  0  0  0  0
   -1.5880   10.2724    6.8413 C   0  0  0  0  0  0  0  0  0  0  0  0
   -1.4821   11.5220    7.4226 C   0  0  0  0  0  0  0  0  0  0  0  0
   -0.5188   11.7858    8.3862 C   0  0  0  0  0  0  0  0  0  0  0  0
   -0.3691   13.1477    8.9877 C   0  0  0  0  0  0  0  0  0  0  0  0
    0.3154   10.7434    8.7855 C   0  0  0  0  0  0  0  0  0  0  0  0
    0.2231    9.4932    8.2114 C   0  0  0  0  0  0  0  0  0  0  0  0
    0.2182    5.8483    6.0764 C   0  0  0  0  0  0  0  0  0  0  0  0
   -1.0531    4.6778    6.1750 S   0  0  0  0  0  0  0  0  0  0  0  0
    0.0712    3.3796    5.8319 C   0  0  0  0  0  0  0  0  0  0  0  0
    1.3786    3.8323    5.7220 C   0  0  0  0  0  0  0  0  0  0  0  0
    2.4804    3.0148    5.5380 N   0  0  0  0  0  0  0  0  0  0  0  0
    2.5077    1.7316    6.1050 C   0  0  0  0  0  0  0  0  0  0  0  0
    1.9818    1.5040    7.3732 C   0  0  0  0  0  0  0  0  0  0  0  0
    1.9428    0.2246    7.8905 C   0  0  0  0  0  0  0  0  0  0  0  0
    2.4069   -0.8613    7.1594 C   0  0  0  0  0  0  0  0  0  0  0  0
    2.2791   -2.2566    7.6885 C   0  0  0  0  0  0  0  0  0  0  0  0
    2.9653   -0.6210    5.9092 C   0  0  0  0  0  0  0  0  0  0  0  0
    3.0269    0.6552    5.3880 C   0  0  0  0  0  0  0  0  0  0  0  0
    3.5437    3.4626    4.7410 C   0  0  0  0  0  0  0  0  0  0  0  0
    4.8577    3.1574    5.0862 C   0  0  0  0  0  0  0  0  0  0  0  0
    5.9011    3.6088    4.3045 C   0  0  0  0  0  0  0  0  0  0  0  0
    5.6699    4.3787    3.1699 C   0  0  0  0  0  0  0  0  0  0  0  0
    6.8118    4.8944    2.3488 C   0  0  0  0  0  0  0  0  0  0  0  0
    4.3560    4.6751    2.8313 C   0  0  0  0  0  0  0  0  0  0  0  0
    3.3016    4.2203    3.5984 C   0  0  0  0  0  0  0  0  0  0  0  0
    1.4462    5.2386    5.8611 C   0  0  0  0  0  0  0  0  0  0  0  0
    2.7377    6.3793    5.8435 S   0  0  0  0  0  0  0  0  0  0  0  0
   -0.3463    2.0367    5.5344 C   0  0  0  0  0  0  0  0  0  0  0  0
   -1.0402    1.0938    6.2590 C   0  0  0  0  0  0  0  0  0  0  0  0
   -1.6628    1.2958    7.5682 C   0  0  0  0  0  0  0  0  0  0  0  0
   -1.4432    0.3705    8.5854 C   0  0  0  0  0  0  0  0  0  0  0  0
   -2.0248    0.5574    9.8243 C   0  0  0  0  0  0  0  0  0  0  0  0
   -2.8279    1.6597   10.0609 C   0  0  0  0  0  0  0  0  0  0  0  0
   -3.0818    2.5762    9.0488 C   0  0  0  0  0  0  0  0  0  0  0  0
   -3.9144    3.7983    9.3073 C   0  0  0  0  0  0  0  0  0  0  0  0
   -3.0242    4.9332    9.8164 C   0  0  0  0  0  0  0  0  0  0  0  0
   -2.5037    2.3765    7.8045 C   0  0  0  0  0  0  0  0  0  0  0  0
   -1.0509   -0.1545    5.5940 C   0  0  0  0  0  0  0  0  0  0  0  0
   -1.7504   -1.7034    6.0011 S   0  0  0  0  0  0  0  0  0  0  0  0
   -1.1961   -2.3322    4.4842 C   0  0  0  0  0  0  0  0  0  0  0  0
   -1.3204   -3.4920    3.6984 C   0  0  0  0  0  0  0  0  0  0  0  0
   -2.0994   -4.6595    3.8608 C   0  0  0  0  0  0  0  0  0  0  0  0
   -2.2686   -5.5480    2.7413 C   0  0  0  0  0  0  0  0  0  0  0  0
   -3.0974   -6.5442    3.0095 N   0  0  0  0  0  0  0  0  0  0  0  0
   -3.6133   -6.3883    4.5367 S   0  0  0  0  0  0  0  0  0  0  0  0
   -2.8036   -5.0375    4.9155 N   0  0  0  0  0  0  0  0  0  0  0  0
   -1.5444   -5.3026    1.5539 C   0  0  0  0  0  0  0  0  0  0  0  0
   -1.4866   -5.9737    0.3171 C   0  0  0  0  0  0  0  0  0  0  0  0
   -2.2734   -7.2748   -0.5150 S   0  0  0  0  0  0  0  0  0  0  0  0
   -1.2937   -6.9377   -1.9213 C   0  0  0  0  0  0  0  0  0  0  0  0
   -1.2764   -7.4824   -3.2221 C   0  0  0  0  0  0  0  0  0  0  0  0
   -2.1705   -8.5687   -3.6382 C   0  0  0  0  0  0  0  0  0  0  0  0
   -2.1352   -9.7880   -2.9698 C   0  0  0  0  0  0  0  0  0  0  0  0
   -2.9780  -10.8102   -3.3618 C   0  0  0  0  0  0  0  0  0  0  0  0
   -3.8593  -10.6249   -4.4136 C   0  0  0  0  0  0  0  0  0  0  0  0
   -3.9231   -9.4059   -5.0745 C   0  0  0  0  0  0  0  0  0  0  0  0
   -4.9067   -9.1684   -6.1836 C   0  0  0  0  0  0  0  0  0  0  0  0
   -6.1767   -8.5090   -5.6438 C   0  0  0  0  0  0  0  0  0  0  0  0
   -3.0827   -8.3798   -4.6675 C   0  0  0  0  0  0  0  0  0  0  0  0
   -0.3145   -6.8844   -4.0053 C   0  0  0  0  0  0  0  0  0  0  0  0
    0.5434   -5.6017   -3.1473 S   0  0  0  0  0  0  0  0  0  0  0  0
   -0.3885   -5.8970   -1.7264 C   0  0  0  0  0  0  0  0  0  0  0  0
   -0.5121   -5.3335   -0.4505 C   0  0  0  0  0  0  0  0  0  0  0  0
    0.0271   -4.2818    0.2473 N   0  0  0  0  0  0  0  0  0  0  0  0
   -0.6269   -4.2223    1.4676 C   0  0  0  0  0  0  0  0  0  0  0  0
   -0.6253   -3.2366    2.4851 C   0  0  0  0  0  0  0  0  0  0  0  0
   -0.1255   -1.9496    2.5245 N   0  0  0  0  0  0  0  0  0  0  0  0
   -0.4815   -1.4018    3.7271 C   0  0  0  0  0  0  0  0  0  0  0  0
   -0.4070   -0.1541    4.3601 C   0  0  0  0  0  0  0  0  0  0  0  0
    0.2368    1.4018    3.9950 S   0  0  0  0  0  0  0  0  0  0  0  0
    0.3632   -1.1027    1.4606 C   0  0  0  0  0  0  0  0  0  0  0  0
    1.8284   -0.7181    1.6659 C   0  0  0  0  0  0  0  0  0  0  0  0
    1.3783   -3.8588   -0.0509 C   0  0  0  0  0  0  0  0  0  0  0  0
    2.3654   -5.0121    0.1235 C   0  0  0  0  0  0  0  0  0  0  0  0
    0.1022   -7.1637   -5.3469 C   0  0  0  0  0  0  0  0  0  0  0  0
    1.4155   -7.2421   -5.7892 C   0  0  0  0  0  0  0  0  0  0  0  0
    2.5289   -7.2686   -4.9688 N   0  0  0  0  0  0  0  0  0  0  0  0
    2.5064   -7.9134   -3.7273 C   0  0  0  0  0  0  0  0  0  0  0  0
    1.6758   -9.0075   -3.4888 C   0  0  0  0  0  0  0  0  0  0  0  0
    1.6332   -9.5879   -2.2378 C   0  0  0  0  0  0  0  0  0  0  0  0
    2.4169   -9.1125   -1.1931 C   0  0  0  0  0  0  0  0  0  0  0  0
    2.3190   -9.7204    0.1726 C   0  0  0  0  0  0  0  0  0  0  0  0
    3.2729   -8.0490   -1.4492 C   0  0  0  0  0  0  0  0  0  0  0  0
    3.3167   -7.4498   -2.6928 C   0  0  0  0  0  0  0  0  0  0  0  0
    3.7387   -6.7631   -5.4802 C   0  0  0  0  0  0  0  0  0  0  0  0
    3.7565   -5.5424   -6.1466 C   0  0  0  0  0  0  0  0  0  0  0  0
    4.9312   -5.0721   -6.7016 C   0  0  0  0  0  0  0  0  0  0  0  0
    6.1100   -5.7964   -6.5989 C   0  0  0  0  0  0  0  0  0  0  0  0
    7.3780   -5.3155   -7.2343 C   0  0  0  0  0  0  0  0  0  0  0  0
    6.0872   -7.0032   -5.9078 C   0  0  0  0  0  0  0  0  0  0  0  0
    4.9205   -7.4874   -5.3551 C   0  0  0  0  0  0  0  0  0  0  0  0
    1.4813   -7.3502   -7.1997 C   0  0  0  0  0  0  0  0  0  0  0  0
    2.7834   -7.4480   -8.3273 S   0  0  0  0  0  0  0  0  0  0  0  0
    1.6318   -7.5164   -9.6629 C   0  0  0  0  0  0  0  0  0  0  0  0
    0.2933   -7.5506   -9.2100 C   0  0  0  0  0  0  0  0  0  0  0  0
   -0.8134   -7.6993  -10.0110 N   0  0  0  0  0  0  0  0  0  0  0  0
   -0.7975   -8.5313  -11.1462 C   0  0  0  0  0  0  0  0  0  0  0  0
   -1.4956   -8.1550  -12.2903 C   0  0  0  0  0  0  0  0  0  0  0  0
   -1.4756   -8.9624  -13.4106 C   0  0  0  0  0  0  0  0  0  0  0  0
   -0.7641  -10.1559  -13.4225 C   0  0  0  0  0  0  0  0  0  0  0  0
   -0.7100  -11.0066  -14.6531 C   0  0  0  0  0  0  0  0  0  0  0  0
   -0.0834  -10.5303  -12.2689 C   0  0  0  0  0  0  0  0  0  0  0  0
   -0.1012   -9.7375  -11.1397 C   0  0  0  0  0  0  0  0  0  0  0  0
   -2.0377   -7.1372   -9.6057 C   0  0  0  0  0  0  0  0  0  0  0  0
   -3.2196   -7.8638   -9.7142 C   0  0  0  0  0  0  0  0  0  0  0  0
   -4.4154   -7.3044   -9.3096 C   0  0  0  0  0  0  0  0  0  0  0  0
   -4.4664   -6.0193   -8.7820 C   0  0  0  0  0  0  0  0  0  0  0  0
   -5.7590   -5.4350   -8.3024 C   0  0  0  0  0  0  0  0  0  0  0  0
   -3.2824   -5.2975   -8.6883 C   0  0  0  0  0  0  0  0  0  0  0  0
   -2.0816   -5.8406   -9.0991 C   0  0  0  0  0  0  0  0  0  0  0  0
    0.2364   -7.4078   -7.8132 C   0  0  0  0  0  0  0  0  0  0  0  0
   -1.0537   -7.3369   -6.6585 S   0  0  0  0  0  0  0  0  0  0  0  0
    1.9977   -7.4254  -11.0096 C   0  0  0  0  0  0  0  0  0  0  0  0
    3.2374   -7.3512  -11.5831 C   0  0  0  0  0  0  0  0  0  0  0  0
    3.3953   -7.1723  -13.3257 S   0  0  0  0  0  0  0  0  0  0  0  0
    5.1453   -7.1419  -13.2218 C   0  0  0  0  0  0  0  0  0  0  0  0
    6.1468   -6.9850  -14.5033 S   0  0  0  0  0  0  0  0  0  0  0  0
    5.5351   -7.2771  -11.9303 N   0  0  0  0  0  0  0  0  0  0  0  0
    6.9288   -7.2504  -11.5357 C   0  0  0  0  0  0  0  0  0  0  0  0
    7.4209   -5.8183  -11.3655 C   0  0  0  0  0  0  0  0  0  0  0  0
    4.5417   -7.3996  -10.9699 C   0  0  0  0  0  0  0  0  0  0  0  0
    4.8032   -7.5396   -9.7865 O   0  0  0  0  0  0  0  0  0  0  0  0
    3.1687    9.1013    6.1757 H   0  0  0  0  0  0  0  0  0  0  0  0
   -1.7542   11.3303    3.0630 H   0  0  0  0  0  0  0  0  0  0  0  0
    1.5160   14.3922    5.4252 H   0  0  0  0  0  0  0  0  0  0  0  0
   -0.1916   16.1051    2.9887 H   0  0  0  0  0  0  0  0  0  0  0  0
   -1.1967   16.7610    5.3672 H   0  0  0  0  0  0  0  0  0  0  0  0
   -2.4225   18.1813    3.5271 H   0  0  0  0  0  0  0  0  0  0  0  0
   -4.1609   16.6024    2.2854 H   0  0  0  0  0  0  0  0  0  0  0  0
   -4.0061   14.2103    3.3608 H   0  0  0  0  0  0  0  0  0  0  0  0
   -2.3443   14.3357    5.4682 H   0  0  0  0  0  0  0  0  0  0  0  0
   -3.5768   15.6175    5.5608 H   0  0  0  0  0  0  0  0  0  0  0  0
   -1.8967   14.5620    1.7694 H   0  0  0  0  0  0  0  0  0  0  0  0
   -1.7396    7.0748    4.2764 H   0  0  0  0  0  0  0  0  0  0  0  0
   -3.9941    6.1452    3.8828 H   0  0  0  0  0  0  0  0  0  0  0  0
   -6.4364    6.2377    4.6959 H   0  0  0  0  0  0  0  0  0  0  0  0
   -6.7173    6.1659    6.4420 H   0  0  0  0  0  0  0  0  0  0  0  0
   -5.9594    4.8093    5.6054 H   0  0  0  0  0  0  0  0  0  0  0  0
   -5.0464    7.0015    7.9266 H   0  0  0  0  0  0  0  0  0  0  0  0
   -2.7919    7.9039    8.3240 H   0  0  0  0  0  0  0  0  0  0  0  0
   -2.3355   10.0847    6.0852 H   0  0  0  0  0  0  0  0  0  0  0  0
   -2.1547   12.3075    7.1092 H   0  0  0  0  0  0  0  0  0  0  0  0
    0.6255   13.5451    8.7864 H   0  0  0  0  0  0  0  0  0  0  0  0
   -1.1047   13.8366    8.5801 H   0  0  0  0  0  0  0  0  0  0  0  0
   -0.4923   13.1023   10.0689 H   0  0  0  0  0  0  0  0  0  0  0  0
    1.0551   10.9192    9.5529 H   0  0  0  0  0  0  0  0  0  0  0  0
    0.8848    8.7030    8.5331 H   0  0  0  0  0  0  0  0  0  0  0  0
    1.5959    2.3318    7.9500 H   0  0  0  0  0  0  0  0  0  0  0  0
    1.5385    0.0713    8.8802 H   0  0  0  0  0  0  0  0  0  0  0  0
    3.1081   -2.8777    7.3565 H   0  0  0  0  0  0  0  0  0  0  0  0
    2.2482   -2.2591    8.7755 H   0  0  0  0  0  0  0  0  0  0  0  0
    1.3548   -2.7076    7.3232 H   0  0  0  0  0  0  0  0  0  0  0  0
    3.3462   -1.4490    5.3283 H   0  0  0  0  0  0  0  0  0  0  0  0
    3.4574    0.8279    4.4121 H   0  0  0  0  0  0  0  0  0  0  0  0
    5.0516    2.5693    5.9711 H   0  0  0  0  0  0  0  0  0  0  0  0
    6.9161    3.3679    4.5860 H   0  0  0  0  0  0  0  0  0  0  0  0
    7.1614    5.8444    2.7545 H   0  0  0  0  0  0  0  0  0  0  0  0
    6.5063    5.0608    1.3184 H   0  0  0  0  0  0  0  0  0  0  0  0
    7.6465    4.1971    2.3626 H   0  0  0  0  0  0  0  0  0  0  0  0
    4.1522    5.2657    1.9498 H   0  0  0  0  0  0  0  0  0  0  0  0
    2.2845    4.4439    3.3107 H   0  0  0  0  0  0  0  0  0  0  0  0
   -0.8124   -0.4850    8.4011 H   0  0  0  0  0  0  0  0  0  0  0  0
   -1.8498   -0.1605   10.6122 H   0  0  0  0  0  0  0  0  0  0  0  0
   -3.2725    1.8035   11.0353 H   0  0  0  0  0  0  0  0  0  0  0  0
   -4.6814    3.5765   10.0521 H   0  0  0  0  0  0  0  0  0  0  0  0
   -4.4056    4.1171    8.3860 H   0  0  0  0  0  0  0  0  0  0  0  0
   -2.5002    4.6276   10.7194 H   0  0  0  0  0  0  0  0  0  0  0  0
   -3.6200    5.8142   10.0418 H   0  0  0  0  0  0  0  0  0  0  0  0
   -2.2875    5.1960    9.0604 H   0  0  0  0  0  0  0  0  0  0  0  0
   -2.7344    3.0577    6.9991 H   0  0  0  0  0  0  0  0  0  0  0  0
   -1.4431   -9.9269   -2.1533 H   0  0  0  0  0  0  0  0  0  0  0  0
   -2.9469  -11.7590   -2.8463 H   0  0  0  0  0  0  0  0  0  0  0  0
   -4.5085  -11.4328   -4.7199 H   0  0  0  0  0  0  0  0  0  0  0  0
   -5.1665  -10.1167   -6.6580 H   0  0  0  0  0  0  0  0  0  0  0  0
   -4.4541   -8.5194   -6.9367 H   0  0  0  0  0  0  0  0  0  0  0  0
   -6.8824   -8.3233   -6.4502 H   0  0  0  0  0  0  0  0  0  0  0  0
   -6.6530   -9.1509   -4.9059 H   0  0  0  0  0  0  0  0  0  0  0  0
   -5.9360   -7.5624   -5.1651 H   0  0  0  0  0  0  0  0  0  0  0  0
   -3.1526   -7.4139   -5.1469 H   0  0  0  0  0  0  0  0  0  0  0  0
   -0.2368   -0.1853    1.4653 H   0  0  0  0  0  0  0  0  0  0  0  0
    0.2012   -1.5994    0.5038 H   0  0  0  0  0  0  0  0  0  0  0  0
    1.9282   -0.1056    2.5577 H   0  0  0  0  0  0  0  0  0  0  0  0
    2.4621   -1.5938    1.7889 H   0  0  0  0  0  0  0  0  0  0  0  0
    2.1819   -0.1459    0.8127 H   0  0  0  0  0  0  0  0  0  0  0  0
    1.6611   -3.0572    0.6222 H   0  0  0  0  0  0  0  0  0  0  0  0
    1.4083   -3.4999   -1.0847 H   0  0  0  0  0  0  0  0  0  0  0  0
    3.3744   -4.6616   -0.0767 H   0  0  0  0  0  0  0  0  0  0  0  0
    2.1396   -5.8237   -0.5626 H   0  0  0  0  0  0  0  0  0  0  0  0
    2.3208   -5.3932    1.1419 H   0  0  0  0  0  0  0  0  0  0  0  0
    1.0657   -9.4060   -4.2859 H   0  0  0  0  0  0  0  0  0  0  0  0
    0.9837  -10.4352   -2.0718 H   0  0  0  0  0  0  0  0  0  0  0  0
    2.2329  -10.8032    0.1091 H   0  0  0  0  0  0  0  0  0  0  0  0
    1.4320   -9.3449    0.6849 H   0  0  0  0  0  0  0  0  0  0  0  0
    3.1898   -9.4704    0.7738 H   0  0  0  0  0  0  0  0  0  0  0  0
    3.9102   -7.6759   -0.6600 H   0  0  0  0  0  0  0  0  0  0  0  0
    3.9716   -6.6094   -2.8698 H   0  0  0  0  0  0  0  0  0  0  0  0
    2.8437   -4.9702   -6.2312 H   0  0  0  0  0  0  0  0  0  0  0  0
    4.9275   -4.1269   -7.2255 H   0  0  0  0  0  0  0  0  0  0  0  0
    7.5966   -5.9186   -8.1152 H   0  0  0  0  0  0  0  0  0  0  0  0
    7.2929   -4.2761   -7.5418 H   0  0  0  0  0  0  0  0  0  0  0  0
    8.2168   -5.4124   -6.5472 H   0  0  0  0  0  0  0  0  0  0  0  0
    6.9963   -7.5802   -5.8179 H   0  0  0  0  0  0  0  0  0  0  0  0
    4.9114   -8.4350   -4.8366 H   0  0  0  0  0  0  0  0  0  0  0  0
   -2.0451   -7.2250  -12.2958 H   0  0  0  0  0  0  0  0  0  0  0  0
   -2.0150   -8.6541  -14.2942 H   0  0  0  0  0  0  0  0  0  0  0  0
   -1.5944  -10.8586  -15.2680 H   0  0  0  0  0  0  0  0  0  0  0  0
   -0.6296  -12.0598  -14.3941 H   0  0  0  0  0  0  0  0  0  0  0  0
    0.1637  -10.7396  -15.2487 H   0  0  0  0  0  0  0  0  0  0  0  0
    0.4638  -11.4616  -12.2528 H   0  0  0  0  0  0  0  0  0  0  0  0
    0.4278  -10.0431  -10.2493 H   0  0  0  0  0  0  0  0  0  0  0  0
   -3.1938   -8.8684  -10.1094 H   0  0  0  0  0  0  0  0  0  0  0  0
   -5.3252   -7.8804   -9.3991 H   0  0  0  0  0  0  0  0  0  0  0  0
   -5.7908   -4.3627   -8.4820 H   0  0  0  0  0  0  0  0  0  0  0  0
   -6.6058   -5.9023   -8.7989 H   0  0  0  0  0  0  0  0  0  0  0  0
   -5.8639   -5.5985   -7.2294 H   0  0  0  0  0  0  0  0  0  0  0  0
   -3.3015   -4.2922   -8.2931 H   0  0  0  0  0  0  0  0  0  0  0  0
   -1.1711   -5.2632   -9.0341 H   0  0  0  0  0  0  0  0  0  0  0  0
    1.1712   -7.3758  -11.7082 H   0  0  0  0  0  0  0  0  0  0  0  0
    6.9904   -7.7922  -10.5885 H   0  0  0  0  0  0  0  0  0  0  0  0
    7.5095   -7.7657  -12.3042 H   0  0  0  0  0  0  0  0  0  0  0  0
    7.3480   -5.2821  -12.3087 H   0  0  0  0  0  0  0  0  0  0  0  0
    8.4596   -5.8234  -11.0475 H   0  0  0  0  0  0  0  0  0  0  0  0
    6.8236   -5.3037  -10.6160 H   0  0  0  0  0  0  0  0  0  0  0  0
  1  2  2  0  0  0  0
  2  3  1  0  0  0  0
  3  4  2  0  0  0  0
  3  5  1  0  0  0  0
  5  6  2  0  0  0  0
  6  7  1  0  0  0  0
  7  8  2  0  0  0  0
  8  9  1  0  0  0  0
  9 10  2  0  0  0  0
 10 11  1  0  0  0  0
 11 12  2  0  0  0  0
 12 13  1  0  0  0  0
 13 14  3  0  0  0  0
 12 15  1  0  0  0  0
 15 16  3  0  0  0  0
  8 17  1  0  0  0  0
 17 18  1  0  0  0  0
 18 19  1  0  0  0  0
 19 20  2  0  0  0  0
 20 21  1  0  0  0  0
 21 22  1  0  0  0  0
 21 23  1  0  0  0  0
  1 24  1  0  0  0  0
 24 25  2  0  0  0  0
 25 26  1  0  0  0  0
 26 27  1  0  0  0  0
 27 28  2  0  0  0  0
 28 29  1  0  0  0  0
 29 30  2  0  0  0  0
 30 31  1  0  0  0  0
 30 32  1  0  0  0  0
 32 33  2  0  0  0  0
 26 34  1  0  0  0  0
 34 35  2  0  0  0  0
 35 36  1  0  0  0  0
 36 37  2  0  0  0  0
 37 38  1  0  0  0  0
 37 39  1  0  0  0  0
 39 40  2  0  0  0  0
 25 41  1  0  0  0  0
 41 42  1  0  0  0  0
 42 43  1  0  0  0  0
 43 44  2  0  0  0  0
 44 45  1  0  0  0  0
 45 46  1  0  0  0  0
 46 47  2  0  0  0  0
 47 48  1  0  0  0  0
 48 49  2  0  0  0  0
 49 50  1  0  0  0  0
 49 51  1  0  0  0  0
 51 52  2  0  0  0  0
 45 53  1  0  0  0  0
 53 54  2  0  0  0  0
 54 55  1  0  0  0  0
 55 56  2  0  0  0  0
 56 57  1  0  0  0  0
 56 58  1  0  0  0  0
 58 59  2  0  0  0  0
 44 60  1  0  0  0  0
 60 61  1  0  0  0  0
 43 62  1  0  0  0  0
 62 63  2  0  0  0  0
 63 64  1  0  0  0  0
 64 65  2  0  0  0  0
 65 66  1  0  0  0  0
 66 67  2  0  0  0  0
 67 68  1  0  0  0  0
 68 69  1  0  0  0  0
 69 70  1  0  0  0  0
 68 71  2  0  0  0  0
 63 72  1  0  0  0  0
 72 73  1  0  0  0  0
 73 74  1  0  0  0  0
 74 75  1  0  0  0  0
 75 76  1  0  0  0  0
 76 77  1  0  0  0  0
 77 78  2  0  0  0  0
 78 79  1  0  0  0  0
 79 80  1  0  0  0  0
 77 81  1  0  0  0  0
 81 82  1  0  0  0  0
 82 83  1  0  0  0  0
 83 84  1  0  0  0  0
 84 85  1  0  0  0  0
 85 86  1  0  0  0  0
 86 87  2  0  0  0  0
 87 88  1  0  0  0  0
 88 89  2  0  0  0  0
 89 90  1  0  0  0  0
 90 91  1  0  0  0  0
 91 92  1  0  0  0  0
 90 93  2  0  0  0  0
 85 94  2  0  0  0  0
 94 95  1  0  0  0  0
 95 96  1  0  0  0  0
 96 97  1  0  0  0  0
 97 98  1  0  0  0  0
 98 99  1  0  0  0  0
 99100  1  0  0  0  0
100101  1  0  0  0  0
101102  1  0  0  0  0
102103  1  0  0  0  0
103104  1  0  0  0  0
101105  1  0  0  0  0
105106  1  0  0  0  0
 98107  1  0  0  0  0
107108  1  0  0  0  0
 94109  1  0  0  0  0
109110  2  0  0  0  0
110111  1  0  0  0  0
111112  1  0  0  0  0
112113  2  0  0  0  0
113114  1  0  0  0  0
114115  2  0  0  0  0
115116  1  0  0  0  0
115117  1  0  0  0  0
117118  2  0  0  0  0
111119  1  0  0  0  0
119120  2  0  0  0  0
120121  1  0  0  0  0
121122  2  0  0  0  0
122123  1  0  0  0  0
122124  1  0  0  0  0
124125  2  0  0  0  0
110126  1  0  0  0  0
126127  1  0  0  0  0
127128  1  0  0  0  0
128129  2  0  0  0  0
129130  1  0  0  0  0
130131  1  0  0  0  0
131132  2  0  0  0  0
132133  1  0  0  0  0
133134  2  0  0  0  0
134135  1  0  0  0  0
134136  1  0  0  0  0
136137  2  0  0  0  0
130138  1  0  0  0  0
138139  2  0  0  0  0
139140  1  0  0  0  0
140141  2  0  0  0  0
141142  1  0  0  0  0
141143  1  0  0  0  0
143144  2  0  0  0  0
129145  1  0  0  0  0
145146  1  0  0  0  0
128147  1  0  0  0  0
147148  2  0  0  0  0
148149  1  0  0  0  0
149150  1  0  0  0  0
150151  2  0  0  0  0
150152  1  0  0  0  0
152153  1  0  0  0  0
153154  1  0  0  0  0
152155  1  0  0  0  0
155156  2  0  0  0  0
 11  2  1  0  0  0  0
 23 17  1  0  0  0  0
 61 24  1  0  0  0  0
104 62  1  0  0  0  0
146109  1  0  0  0  0
155148  1  0  0  0  0
 10  5  1  0  0  0  0
 22 18  1  0  0  0  0
 33 27  1  0  0  0  0
 40 34  1  0  0  0  0
 60 41  2  0  0  0  0
 71 64  1  0  0  0  0
103 72  2  0  0  0  0
118112  1  0  0  0  0
125119  1  0  0  0  0
145126  2  0  0  0  0
 23  7  1  0  0  0  0
 52 46  1  0  0  0  0
 59 53  1  0  0  0  0
102 74  2  0  0  0  0
137131  1  0  0  0  0
144138  1  0  0  0  0
100 75  2  0  0  0  0
 80 76  2  0  0  0  0
 99 81  2  0  0  0  0
 97 82  2  0  0  0  0
 96 84  2  0  0  0  0
 93 86  1  0  0  0  0
  1157  1  0  0  0  0
  6158  1  0  0  0  0
  9159  1  0  0  0  0
 17160  1  0  0  0  0
 18161  1  0  0  0  0
 19162  1  0  0  0  0
 20163  1  0  0  0  0
 21164  1  0  0  0  0
 22165  1  0  0  0  0
 22166  1  0  0  0  0
 23167  1  0  0  0  0
 28168  1  0  0  0  0
 29169  1  0  0  0  0
 31170  1  0  0  0  0
 31171  1  0  0  0  0
 31172  1  0  0  0  0
 32173  1  0  0  0  0
 33174  1  0  0  0  0
 35175  1  0  0  0  0
 36176  1  0  0  0  0
 38177  1  0  0  0  0
 38178  1  0  0  0  0
 38179  1  0  0  0  0
 39180  1  0  0  0  0
 40181  1  0  0  0  0
 47182  1  0  0  0  0
 48183  1  0  0  0  0
 50184  1  0  0  0  0
 50185  1  0  0  0  0
 50186  1  0  0  0  0
 51187  1  0  0  0  0
 52188  1  0  0  0  0
 54189  1  0  0  0  0
 55190  1  0  0  0  0
 57191  1  0  0  0  0
 57192  1  0  0  0  0
 57193  1  0  0  0  0
 58194  1  0  0  0  0
 59195  1  0  0  0  0
 65196  1  0  0  0  0
 66197  1  0  0  0  0
 67198  1  0  0  0  0
 69199  1  0  0  0  0
 69200  1  0  0  0  0
 70201  1  0  0  0  0
 70202  1  0  0  0  0
 70203  1  0  0  0  0
 71204  1  0  0  0  0
 87205  1  0  0  0  0
 88206  1  0  0  0  0
 89207  1  0  0  0  0
 91208  1  0  0  0  0
 91209  1  0  0  0  0
 92210  1  0  0  0  0
 92211  1  0  0  0  0
 92212  1  0  0  0  0
 93213  1  0  0  0  0
105214  1  0  0  0  0
105215  1  0  0  0  0
106216  1  0  0  0  0
106217  1  0  0  0  0
106218  1  0  0  0  0
107219  1  0  0  0  0
107220  1  0  0  0  0
108221  1  0  0  0  0
108222  1  0  0  0  0
108223  1  0  0  0  0
113224  1  0  0  0  0
114225  1  0  0  0  0
116226  1  0  0  0  0
116227  1  0  0  0  0
116228  1  0  0  0  0
117229  1  0  0  0  0
118230  1  0  0  0  0
120231  1  0  0  0  0
121232  1  0  0  0  0
123233  1  0  0  0  0
123234  1  0  0  0  0
123235  1  0  0  0  0
124236  1  0  0  0  0
125237  1  0  0  0  0
132238  1  0  0  0  0
133239  1  0  0  0  0
135240  1  0  0  0  0
135241  1  0  0  0  0
135242  1  0  0  0  0
136243  1  0  0  0  0
137244  1  0  0  0  0
139245  1  0  0  0  0
140246  1  0  0  0  0
142247  1  0  0  0  0
142248  1  0  0  0  0
142249  1  0  0  0  0
143250  1  0  0  0  0
144251  1  0  0  0  0
147252  1  0  0  0  0
153253  1  0  0  0  0
153254  1  0  0  0  0
154255  1  0  0  0  0
154256  1  0  0  0  0
154257  1  0  0  0  0
M  END
