266

C        -10.79110       -4.55280        2.44080
C        -11.65660       -3.64590        1.86970
C        -11.29650       -2.53380        0.98820
O        -10.18100       -2.13410        0.69680
C        -12.56590       -1.98380        0.47700
C        -12.72310       -0.91560       -0.40240
C        -14.03270       -0.62670       -0.70270
C        -15.10660       -1.34740       -0.16600
C        -14.96490       -2.39860        0.70940
C        -13.63990       -2.71020        1.02670
C        -13.09630       -3.72620        1.92930
C        -13.84650       -4.56680        2.71740
C        -13.33800       -5.43100        3.70530
N        -13.01670       -6.13250        4.55810
C        -15.25140       -4.65730        2.67690
N        -16.39110       -4.80400        2.68470
C        -16.13320       -0.51900       -0.89880
C        -16.77240       -1.15780       -2.14990
C        -17.34370        0.02040       -2.90510
C        -16.32710        0.70620       -3.41190
C        -15.05150        0.00250       -3.00810
C        -15.53910       -1.45200       -3.01360
C        -14.93510        0.28670       -1.49570
C         -9.39780       -4.58240        2.45930
C         -8.64410       -5.62880        3.05050
N         -9.15880       -6.79450        3.56440
C        -10.20290       -7.48310        2.92210
C        -10.26390       -7.51720        1.53070
C        -11.30240       -8.17100        0.89840
C        -12.29190       -8.81960        1.62760
C        -13.43250       -9.51300        0.94850
C        -12.20580       -8.80450        3.01510
C        -11.18130       -8.14370        3.66220
C         -8.62390       -7.29970        4.76210
C         -8.24750       -6.42660        5.78060
C         -7.79080       -6.92010        6.98470
C         -7.71190       -8.28850        7.21560
C         -7.31590       -8.80610        8.56370
C         -8.05460       -9.15180        6.18240
C         -8.49690       -8.67050        4.96590
C         -7.27560       -5.31840        3.05940
S         -5.84980       -6.14960        3.59590
C         -4.84300       -4.82940        3.01670
C         -5.59340       -3.77460        2.50650
N         -5.10880       -2.53530        2.11480
C         -4.06890       -1.89380        2.79270
C         -3.84530       -2.10700        4.15200
C         -2.73540       -1.56250        4.76790
C         -1.82740       -0.78260        4.06370
C         -0.60760       -0.22570        4.73200
C         -2.09140       -0.52060        2.72420
C         -3.19090       -1.06380        2.09300
C         -5.77880       -1.88400        1.06220
C         -6.12660       -0.54140        1.16270
C         -6.84430        0.06290        0.14990
C         -7.23440       -0.64870       -0.97720
C         -8.07480       -0.01510       -2.04180
C         -6.85680       -1.98160       -1.08190
C         -6.13380       -2.59600       -0.08020
C         -6.97440       -4.08400        2.49850
S         -8.36600       -3.27230        1.88110
C         -3.41770       -4.83540        3.13430
C         -2.63550       -5.10050        4.24110
C         -3.07920       -5.80620        5.44520
C         -2.94820       -5.23010        6.70410
C         -3.32080       -5.94610        7.82550
C         -3.80680       -7.23700        7.70270
C         -3.93770       -7.82880        6.45420
C         -4.40320       -9.24720        6.30050
C         -3.21870      -10.17800        6.03450
C         -3.57220       -7.10030        5.33220
C         -1.33240       -4.58750        4.07920
S          0.01180       -4.40630        5.18020
C          0.84350       -3.46970        3.98220
C          2.01700       -2.70170        3.84820
C          3.16830       -2.52590        4.64880
C          4.25240       -1.70930        4.15870
N          5.28600       -1.69820        4.98480
S          4.93190       -2.61810        6.26930
N          3.44330       -3.07200        5.82240
C          4.08010       -0.97740        2.96160
C          4.83040        0.03370        2.32810
S          6.35320        0.84450        2.48710
C          5.94710        1.85610        1.12170
C          6.62300        2.90100        0.45320
C          7.88780        3.49420        0.88090
C          8.86100        2.72430        1.51270
C         10.05690        3.29850        1.89970
C         10.29560        4.64210        1.67430
C          9.32410        5.43550        1.07580
C          9.54510        6.91080        0.89290
C          9.10590        7.67320        2.14410
C          8.12680        4.85410        0.69290
C          5.88680        3.34870       -0.62930
S          4.32250        2.56250       -0.76710
C          4.69290        1.56250        0.58790
C          4.05430        0.52480        1.27600
N          2.86120       -0.15240        1.20720
C          2.87670       -1.09340        2.22220
C          1.93220       -2.07870        2.57680
N          0.79760       -2.51580        1.92100
C          0.12980       -3.34360        2.78640
C         -1.10730       -3.99170        2.83960
S         -2.48620       -4.12780        1.81440
C          0.61080       -2.62040        0.48910
C          0.78560       -4.06150        0.01130
C          1.68800        0.50090        0.66290
C          1.38010        1.80070        1.40660
C          6.31700        4.21910       -1.67820
C          7.53330        4.17630       -2.35160
N          8.48690        3.19070       -2.22010
C          8.12850        1.87350       -1.88780
C          6.93280        1.30960       -2.32430
C          6.55120        0.05930       -1.87890
C          7.35540       -0.67080       -1.01350
C          6.90140       -1.98590       -0.45890
C          8.58930       -0.13840       -0.65780
C          8.97750        1.11450       -1.08800
C          9.79480        3.44330       -2.67890
C         10.48570        4.57430       -2.25720
C         11.73520        4.85410       -2.78000
C         12.32040        4.02010       -3.72280
C         13.65780        4.33400       -4.31880
C         11.63830        2.86910       -4.10500
C         10.39170        2.57850       -3.59230
C          7.61270        5.23550       -3.28660
S          8.85770        5.81630       -4.32450
C          7.76910        7.02020       -5.01840
C          6.51440        7.01060       -4.38080
N          5.45390        7.83080       -4.66350
C          5.63260        9.18900       -4.97650
C          4.87340        9.78600       -5.97780
C          5.06960       11.11680       -6.29090
C          6.01940       11.88000       -5.62280
C          6.27240       13.30390       -6.00540
C          6.75700       11.27940       -4.60830
C          6.56640        9.95330       -4.27960
C          4.15250        7.30050       -4.60370
C          3.10970        8.04360       -4.06110
C          1.83770        7.50790       -4.00370
C          1.57580        6.22790       -4.47500
C          0.20400        5.63330       -4.38580
C          2.62400        5.49740       -5.02470
C          3.89730        6.02270       -5.09770
C          6.45080        5.98200       -3.41370
S          5.23070        5.44960       -2.30870
C          8.20540        7.87400       -6.04020
C          9.36180        7.82170       -6.77220
C          9.87200        9.07590       -7.38440
O          9.24920       10.10280       -7.54440
C         11.29300        8.80120       -7.67650
C         12.28140        9.66950       -8.14670
O         11.92160       10.93680       -8.41600
C         12.88460       11.83410       -8.91320
C         13.57250        9.14930       -8.29880
C         13.84830        7.82950       -7.98860
C         12.86580        6.96130       -7.53260
C         11.58370        7.45720       -7.38370
C         10.34490        6.79390       -6.97440
C         10.10600        5.44250       -7.05850
C          8.80360        4.90390       -7.02460
N          7.74920        4.45080       -7.08090
C         11.10260        4.47650       -7.27390
N         11.88630        3.64760       -7.41440
H        -11.25550       -5.38400        2.95600
H        -11.86670       -0.38220       -0.78460
H        -15.80310       -2.93650        1.11940
H        -16.85380        0.00520       -0.27390
H        -17.44910       -1.98270       -1.94440
H        -18.39060        0.25790       -2.94390
H        -16.35520        1.63070       -3.95850
H        -14.16080        0.23500       -3.58600
H        -15.80770       -1.79250       -4.01240
H        -14.84080       -2.15540       -2.56400
H        -14.85700        1.34800       -1.26640
H         -9.49940       -7.02140        0.95030
H        -11.33950       -8.18190       -0.18150
H        -13.30040       -9.51860       -0.13050
H        -13.51690      -10.54120        1.29700
H        -14.36980       -9.00740        1.18020
H        -12.96530       -9.30020        3.60070
H        -11.14590       -8.12050        4.73960
H         -8.34150       -5.36080        5.63230
H         -7.51350       -6.23120        7.76900
H         -7.02480       -9.85250        8.51440
H         -8.15930       -8.72340        9.25050
H         -6.49600       -8.22200        8.97530
H         -7.98020      -10.21930        6.33190
H         -8.76080       -9.35440        4.17290
H         -4.53520       -2.71270        4.72110
H         -2.56740       -1.75390        5.81790
H         -0.30550       -0.85040        5.56900
H          0.22250       -0.16160        4.03130
H         -0.80810        0.77680        5.11190
H         -1.41180        0.10440        2.16150
H         -3.36420       -0.87970        1.04290
H         -5.84770        0.01610        2.04510
H         -7.12420        1.10190        0.24870
H         -9.10550       -0.35190       -1.93140
H         -8.05730        1.06920       -1.96320
H         -7.73250       -0.30480       -3.03370
H         -7.14090       -2.54800       -1.95700
H         -5.84740       -3.63430       -0.16840
H         -2.56010       -4.22720        6.79620
H         -3.22260       -5.49860        8.80390
H         -4.07470       -7.79500        8.58860
H         -5.11010       -9.30860        5.47000
H         -4.91430       -9.56890        7.20760
H         -3.56000      -11.20460        5.92260
H         -2.51180      -10.13500        6.86030
H         -2.69870       -9.88470        5.12570
H         -3.64140       -7.55630        4.35470
H          8.68780        1.67350        1.68180
H         10.81060        2.69090        2.37850
H         11.23720        5.08190        1.96990
H          8.97270        7.27000        0.03420
H         10.60330        7.10590        0.70480
H          9.26840        8.74120        2.01730
H          8.04930        7.50230        2.33810
H          9.67080        7.33530        3.00990
H          7.35910        5.47290        0.25080
H          1.35640       -2.00050       -0.00780
H         -0.39540       -2.26880        0.23530
H          0.70980       -4.09620       -1.07200
H          0.01870       -4.70600        0.43110
H          1.76210       -4.43970        0.30670
H          1.86970        0.71450       -0.39520
H          0.83140       -0.16260        0.75880
H          1.24610        1.60440        2.46860
H          0.46600        2.23760        1.01340
H          2.18510        2.51970        1.28500
H          6.29950        1.85600       -3.00790
H          5.60740       -0.35250       -2.20750
H          6.10620       -2.41210       -1.06610
H          6.51950       -1.84880        0.55420
H          7.72700       -2.69250       -0.40960
H          9.24650       -0.70560       -0.01470
H          9.92950        1.52800       -0.79030
H         10.03560        5.22960       -1.52680
H         12.25630        5.74380       -2.45620
H         13.68260        4.02750       -5.36230
H         14.44290        3.79200       -3.79060
H         13.87390        5.39800       -4.25260
H         12.07970        2.21010       -4.83720
H          9.85930        1.69510       -3.91290
H          4.14460        9.19740       -6.51510
H          4.48450       11.56550       -7.08010
H          5.40850       13.73460       -6.50570
H          6.51460       13.90510       -5.13160
H          7.12010       13.34770       -6.68960
H          7.49240       11.85920       -4.07030
H          7.14700        9.49490       -3.49210
H          3.30270        9.03650       -3.68240
H          1.03690        8.09420       -3.57660
H         -0.05650        5.12600       -5.31260
H          0.16910        4.89770       -3.58180
H         -0.54070        6.39840       -4.18150
H          2.43740        4.50530       -5.40890
H          4.69890        5.45330       -5.54540
H          7.60610        8.75810       -6.22740
H         12.35610       12.77390       -9.06340
H         13.29620       11.49420       -9.86890
H         13.69950       11.98770       -8.19830
H         14.37240        9.77650       -8.65940
H         14.85820        7.46640       -8.10900
H         13.10680        5.93890       -7.29510
