
  xtb     02142220083D
 energy: -369.019459566714 gnorm: 0.000382460978 xtb: 6.4.1 (unknown)
221245  0     0  0            999 V2000
    5.9920   -7.4687    3.9157 C   0  0  0  0  0  0  0  0  0  0  0  0
    5.7321   -8.6578    3.2659 C   0  0  0  0  0  0  0  0  0  0  0  0
    4.4501   -9.0756    2.7016 C   0  0  0  0  0  0  0  0  0  0  0  0
    3.4027   -8.4488    2.6667 O   0  0  0  0  0  0  0  0  0  0  0  0
    4.6495  -10.4431    2.1864 C   0  0  0  0  0  0  0  0  0  0  0  0
    3.7067  -11.2460    1.5498 C   0  0  0  0  0  0  0  0  0  0  0  0
    4.1868  -12.4758    1.1675 C   0  0  0  0  0  0  0  0  0  0  0  0
    5.5062  -12.8780    1.4075 C   0  0  0  0  0  0  0  0  0  0  0  0
    6.4446  -12.0966    2.0404 C   0  0  0  0  0  0  0  0  0  0  0  0
    5.9783  -10.8391    2.4326 C   0  0  0  0  0  0  0  0  0  0  0  0
    6.6764   -9.7328    3.0916 C   0  0  0  0  0  0  0  0  0  0  0  0
    8.0080   -9.7356    3.4381 C   0  0  0  0  0  0  0  0  0  0  0  0
    8.7308   -8.6386    3.9432 C   0  0  0  0  0  0  0  0  0  0  0  0
    9.4137   -7.7917    4.3177 N   0  0  0  0  0  0  0  0  0  0  0  0
    8.8653  -10.8449    3.3032 C   0  0  0  0  0  0  0  0  0  0  0  0
    9.6228  -11.7070    3.2413 N   0  0  0  0  0  0  0  0  0  0  0  0
    5.3024  -14.2199    0.7482 C   0  0  0  0  0  0  0  0  0  0  0  0
    5.8747  -14.3815   -0.6760 C   0  0  0  0  0  0  0  0  0  0  0  0
    5.1279  -15.5719   -1.2326 C   0  0  0  0  0  0  0  0  0  0  0  0
    3.8767  -15.1930   -1.4596 C   0  0  0  0  0  0  0  0  0  0  0  0
    3.7571  -13.7399   -1.0605 C   0  0  0  0  0  0  0  0  0  0  0  0
    5.1634  -13.2489   -1.4276 C   0  0  0  0  0  0  0  0  0  0  0  0
    3.8298  -13.7716    0.4808 C   0  0  0  0  0  0  0  0  0  0  0  0
    5.1978   -6.3389    4.0754 C   0  0  0  0  0  0  0  0  0  0  0  0
    5.6549   -5.1544    4.7157 C   0  0  0  0  0  0  0  0  0  0  0  0
    6.7657   -5.0502    5.5033 N   0  0  0  0  0  0  0  0  0  0  0  0
    7.2165   -6.0941    6.3340 C   0  0  0  0  0  0  0  0  0  0  0  0
    8.5804   -6.2411    6.5723 C   0  0  0  0  0  0  0  0  0  0  0  0
    9.0325   -7.2538    7.3939 C   0  0  0  0  0  0  0  0  0  0  0  0
    8.1481   -8.1458    7.9888 C   0  0  0  0  0  0  0  0  0  0  0  0
    8.6602   -9.2629    8.8446 C   0  0  0  0  0  0  0  0  0  0  0  0
    6.7875   -7.9798    7.7577 C   0  0  0  0  0  0  0  0  0  0  0  0
    6.3193   -6.9631    6.9496 C   0  0  0  0  0  0  0  0  0  0  0  0
    7.3875   -3.7895    5.6318 C   0  0  0  0  0  0  0  0  0  0  0  0
    7.6665   -3.2648    6.8891 C   0  0  0  0  0  0  0  0  0  0  0  0
    8.2749   -2.0309    7.0014 C   0  0  0  0  0  0  0  0  0  0  0  0
    8.6182   -1.2944    5.8742 C   0  0  0  0  0  0  0  0  0  0  0  0
    9.3140    0.0250    5.9970 C   0  0  0  0  0  0  0  0  0  0  0  0
    8.3340   -1.8280    4.6229 C   0  0  0  0  0  0  0  0  0  0  0  0
    7.7278   -3.0616    4.4957 C   0  0  0  0  0  0  0  0  0  0  0  0
    4.7943   -4.0797    4.4415 C   0  0  0  0  0  0  0  0  0  0  0  0
    4.8074   -2.3921    4.8447 S   0  0  0  0  0  0  0  0  0  0  0  0
    3.2550   -2.1699    4.0412 C   0  0  0  0  0  0  0  0  0  0  0  0
    2.7395   -3.3697    3.5542 C   0  0  0  0  0  0  0  0  0  0  0  0
    1.5016   -3.5446    2.9549 N   0  0  0  0  0  0  0  0  0  0  0  0
    1.4266   -4.5614    1.9780 C   0  0  0  0  0  0  0  0  0  0  0  0
    2.3454   -4.5709    0.9337 C   0  0  0  0  0  0  0  0  0  0  0  0
    2.3501   -5.6107    0.0254 C   0  0  0  0  0  0  0  0  0  0  0  0
    1.4415   -6.6557    0.1315 C   0  0  0  0  0  0  0  0  0  0  0  0
    1.5003   -7.8206   -0.8069 C   0  0  0  0  0  0  0  0  0  0  0  0
    0.5045   -6.6175    1.1569 C   0  0  0  0  0  0  0  0  0  0  0  0
    0.4920   -5.5866    2.0740 C   0  0  0  0  0  0  0  0  0  0  0  0
    0.3307   -3.0055    3.4905 C   0  0  0  0  0  0  0  0  0  0  0  0
    0.2450   -2.6122    4.8250 C   0  0  0  0  0  0  0  0  0  0  0  0
   -0.9146   -2.0433    5.3110 C   0  0  0  0  0  0  0  0  0  0  0  0
   -2.0261   -1.8621    4.4965 C   0  0  0  0  0  0  0  0  0  0  0  0
   -3.2701   -1.2180    5.0281 C   0  0  0  0  0  0  0  0  0  0  0  0
   -1.9415   -2.2758    3.1726 C   0  0  0  0  0  0  0  0  0  0  0  0
   -0.7838   -2.8318    2.6694 C   0  0  0  0  0  0  0  0  0  0  0  0
    3.6463   -4.4378    3.7478 C   0  0  0  0  0  0  0  0  0  0  0  0
    3.6072   -6.1158    3.3377 S   0  0  0  0  0  0  0  0  0  0  0  0
    2.7512   -0.8568    3.8402 C   0  0  0  0  0  0  0  0  0  0  0  0
    3.1799    0.3293    4.4196 C   0  0  0  0  0  0  0  0  0  0  0  0
    4.1223    0.4422    5.5350 C   0  0  0  0  0  0  0  0  0  0  0  0
    5.1999    1.3168    5.4408 C   0  0  0  0  0  0  0  0  0  0  0  0
    6.0901    1.4287    6.4914 C   0  0  0  0  0  0  0  0  0  0  0  0
    5.9192    0.6690    7.6340 C   0  0  0  0  0  0  0  0  0  0  0  0
    4.8409   -0.1989    7.7520 C   0  0  0  0  0  0  0  0  0  0  0  0
    4.6285   -0.9853    9.0134 C   0  0  0  0  0  0  0  0  0  0  0  0
    3.8664   -0.1515   10.0451 C   0  0  0  0  0  0  0  0  0  0  0  0
    3.9401   -0.2917    6.7036 C   0  0  0  0  0  0  0  0  0  0  0  0
    2.5799    1.4459    3.8095 C   0  0  0  0  0  0  0  0  0  0  0  0
    2.7021    3.1669    4.0988 S   0  0  0  0  0  0  0  0  0  0  0  0
    1.5423    3.4396    2.8398 C   0  0  0  0  0  0  0  0  0  0  0  0
    0.8682    4.5037    2.2147 C   0  0  0  0  0  0  0  0  0  0  0  0
    0.8603    5.8934    2.4656 C   0  0  0  0  0  0  0  0  0  0  0  0
    0.0043    6.7393    1.6799 C   0  0  0  0  0  0  0  0  0  0  0  0
    0.0628    8.0069    2.0563 N   0  0  0  0  0  0  0  0  0  0  0  0
    1.1069    8.1288    3.2884 S   0  0  0  0  0  0  0  0  0  0  0  0
    1.5257    6.5685    3.3894 N   0  0  0  0  0  0  0  0  0  0  0  0
   -0.7097    6.1757    0.5996 C   0  0  0  0  0  0  0  0  0  0  0  0
   -1.4426    6.7666   -0.4416 C   0  0  0  0  0  0  0  0  0  0  0  0
   -1.9674    8.3355   -0.9472 S   0  0  0  0  0  0  0  0  0  0  0  0
   -2.6303    7.6252   -2.4003 C   0  0  0  0  0  0  0  0  0  0  0  0
   -3.2716    8.1771   -3.5276 C   0  0  0  0  0  0  0  0  0  0  0  0
   -3.4484    9.6109   -3.7491 C   0  0  0  0  0  0  0  0  0  0  0  0
   -3.7782   10.4521   -2.6874 C   0  0  0  0  0  0  0  0  0  0  0  0
   -3.9742   11.8003   -2.9110 C   0  0  0  0  0  0  0  0  0  0  0  0
   -3.8362   12.3265   -4.1841 C   0  0  0  0  0  0  0  0  0  0  0  0
   -3.4703   11.5117   -5.2476 C   0  0  0  0  0  0  0  0  0  0  0  0
   -3.3218   12.0669   -6.6355 C   0  0  0  0  0  0  0  0  0  0  0  0
   -4.5194   11.6831   -7.5057 C   0  0  0  0  0  0  0  0  0  0  0  0
   -3.2745   10.1586   -5.0166 C   0  0  0  0  0  0  0  0  0  0  0  0
   -3.6038    7.1874   -4.4407 C   0  0  0  0  0  0  0  0  0  0  0  0
   -3.0627    5.5931   -3.9411 S   0  0  0  0  0  0  0  0  0  0  0  0
   -2.4410    6.2410   -2.4676 C   0  0  0  0  0  0  0  0  0  0  0  0
   -1.7721    5.7484   -1.3413 C   0  0  0  0  0  0  0  0  0  0  0  0
   -1.2932    4.5489   -0.8837 N   0  0  0  0  0  0  0  0  0  0  0  0
   -0.6499    4.7822    0.3165 C   0  0  0  0  0  0  0  0  0  0  0  0
    0.0388    3.9283    1.2127 C   0  0  0  0  0  0  0  0  0  0  0  0
    0.1669    2.5474    1.2642 N   0  0  0  0  0  0  0  0  0  0  0  0
    1.0882    2.2633    2.2402 C   0  0  0  0  0  0  0  0  0  0  0  0
    1.6817    1.1235    2.7918 C   0  0  0  0  0  0  0  0  0  0  0  0
    1.5928   -0.5799    2.5411 S   0  0  0  0  0  0  0  0  0  0  0  0
   -0.8324    1.5434    0.9637 C   0  0  0  0  0  0  0  0  0  0  0  0
   -1.6929    1.2368    2.1897 C   0  0  0  0  0  0  0  0  0  0  0  0
   -1.2231    3.4073   -1.7680 C   0  0  0  0  0  0  0  0  0  0  0  0
   -2.5819    2.7276   -1.9407 C   0  0  0  0  0  0  0  0  0  0  0  0
   -4.2719    7.2866   -5.6946 C   0  0  0  0  0  0  0  0  0  0  0  0
   -3.6695    6.3907   -7.0544 S   0  0  0  0  0  0  0  0  0  0  0  0
   -4.8895    7.0101   -8.1491 C   0  0  0  0  0  0  0  0  0  0  0  0
   -5.7037    7.8885   -7.4515 C   0  0  0  0  0  0  0  0  0  0  0  0
   -7.0153    8.9109   -7.9308 S   0  0  0  0  0  0  0  0  0  0  0  0
   -7.2103    9.4537   -6.2783 C   0  0  0  0  0  0  0  0  0  0  0  0
   -8.2696   10.4416   -6.0785 C   0  0  0  0  0  0  0  0  0  0  0  0
   -8.9226   10.8787   -6.9971 O   0  0  0  0  0  0  0  0  0  0  0  0
   -8.4094   10.8038   -4.8017 O   0  0  0  0  0  0  0  0  0  0  0  0
   -9.3796   11.8151   -4.5264 C   0  0  0  0  0  0  0  0  0  0  0  0
   -8.8075   13.2046   -4.7671 C   0  0  0  0  0  0  0  0  0  0  0  0
   -6.3167    8.8849   -5.4115 C   0  0  0  0  0  0  0  0  0  0  0  0
   -5.3854    8.0326   -6.0712 C   0  0  0  0  0  0  0  0  0  0  0  0
   -6.3909    9.0871   -3.7267 Cl  0  0  0  0  0  0  0  0  0  0  0  0
   -4.8574    6.6226   -9.5025 C   0  0  0  0  0  0  0  0  0  0  0  0
   -5.8369    6.7035  -10.4482 C   0  0  0  0  0  0  0  0  0  0  0  0
   -5.4594    6.6607  -11.8921 C   0  0  0  0  0  0  0  0  0  0  0  0
   -4.3779    6.3606  -12.3449 O   0  0  0  0  0  0  0  0  0  0  0  0
   -6.6651    7.1011  -12.6147 C   0  0  0  0  0  0  0  0  0  0  0  0
   -6.8427    7.3415  -13.9619 C   0  0  0  0  0  0  0  0  0  0  0  0
   -8.0828    7.7731  -14.4227 C   0  0  0  0  0  0  0  0  0  0  0  0
   -8.2869    8.0320  -15.8815 C   0  0  0  0  0  0  0  0  0  0  0  0
   -9.1348    7.9654  -13.5141 C   0  0  0  0  0  0  0  0  0  0  0  0
  -10.4681    8.4402  -13.9967 C   0  0  0  0  0  0  0  0  0  0  0  0
   -8.9512    7.7136  -12.1566 C   0  0  0  0  0  0  0  0  0  0  0  0
   -7.7211    7.2753  -11.7028 C   0  0  0  0  0  0  0  0  0  0  0  0
   -7.2617    6.8954  -10.3704 C   0  0  0  0  0  0  0  0  0  0  0  0
   -8.0744    6.5445   -9.3198 C   0  0  0  0  0  0  0  0  0  0  0  0
   -9.4785    6.6660   -9.3362 C   0  0  0  0  0  0  0  0  0  0  0  0
  -10.6233    6.7382   -9.2912 N   0  0  0  0  0  0  0  0  0  0  0  0
   -7.6093    5.8849   -8.1660 C   0  0  0  0  0  0  0  0  0  0  0  0
   -7.2702    5.3131   -7.2296 N   0  0  0  0  0  0  0  0  0  0  0  0
    6.9808   -7.3755    4.3459 H   0  0  0  0  0  0  0  0  0  0  0  0
    2.6981  -10.8966    1.3910 H   0  0  0  0  0  0  0  0  0  0  0  0
    7.4544  -12.4251    2.2203 H   0  0  0  0  0  0  0  0  0  0  0  0
    5.4758  -15.0907    1.3776 H   0  0  0  0  0  0  0  0  0  0  0  0
    6.9594  -14.4147   -0.7295 H   0  0  0  0  0  0  0  0  0  0  0  0
    5.5575  -16.5499   -1.3469 H   0  0  0  0  0  0  0  0  0  0  0  0
    3.0524  -15.7915   -1.8013 H   0  0  0  0  0  0  0  0  0  0  0  0
    2.9122  -13.1895   -1.4663 H   0  0  0  0  0  0  0  0  0  0  0  0
    5.3465  -13.2882   -2.5003 H   0  0  0  0  0  0  0  0  0  0  0  0
    5.3973  -12.2537   -1.0542 H   0  0  0  0  0  0  0  0  0  0  0  0
    3.0218  -14.3435    0.9337 H   0  0  0  0  0  0  0  0  0  0  0  0
    9.2797   -5.5684    6.1014 H   0  0  0  0  0  0  0  0  0  0  0  0
   10.0931   -7.3647    7.5606 H   0  0  0  0  0  0  0  0  0  0  0  0
    9.1532  -10.0110    8.2237 H   0  0  0  0  0  0  0  0  0  0  0  0
    9.3916   -8.8936    9.5611 H   0  0  0  0  0  0  0  0  0  0  0  0
    7.8497   -9.7454    9.3852 H   0  0  0  0  0  0  0  0  0  0  0  0
    6.0802   -8.6513    8.2230 H   0  0  0  0  0  0  0  0  0  0  0  0
    5.2580   -6.8433    6.7881 H   0  0  0  0  0  0  0  0  0  0  0  0
    7.4002   -3.8279    7.7713 H   0  0  0  0  0  0  0  0  0  0  0  0
    8.4855   -1.6319    7.9828 H   0  0  0  0  0  0  0  0  0  0  0  0
   10.3904   -0.1119    5.8864 H   0  0  0  0  0  0  0  0  0  0  0  0
    9.1280    0.4733    6.9692 H   0  0  0  0  0  0  0  0  0  0  0  0
    8.9815    0.7088    5.2199 H   0  0  0  0  0  0  0  0  0  0  0  0
    8.5976   -1.2725    3.7350 H   0  0  0  0  0  0  0  0  0  0  0  0
    7.5213   -3.4738    3.5189 H   0  0  0  0  0  0  0  0  0  0  0  0
    3.0646   -3.7682    0.8539 H   0  0  0  0  0  0  0  0  0  0  0  0
    3.0794   -5.6160   -0.7721 H   0  0  0  0  0  0  0  0  0  0  0  0
    0.5142   -8.2552   -0.9544 H   0  0  0  0  0  0  0  0  0  0  0  0
    1.9087   -7.5282   -1.7716 H   0  0  0  0  0  0  0  0  0  0  0  0
    2.1492   -8.5879   -0.3831 H   0  0  0  0  0  0  0  0  0  0  0  0
   -0.2107   -7.4209    1.2545 H   0  0  0  0  0  0  0  0  0  0  0  0
   -0.2233   -5.5824    2.8833 H   0  0  0  0  0  0  0  0  0  0  0  0
    1.0893   -2.7591    5.4822 H   0  0  0  0  0  0  0  0  0  0  0  0
   -0.9604   -1.7407    6.3476 H   0  0  0  0  0  0  0  0  0  0  0  0
   -3.4344   -1.4928    6.0676 H   0  0  0  0  0  0  0  0  0  0  0  0
   -3.1806   -0.1318    4.9788 H   0  0  0  0  0  0  0  0  0  0  0  0
   -4.1392   -1.5119    4.4445 H   0  0  0  0  0  0  0  0  0  0  0  0
   -2.7953   -2.1550    2.5210 H   0  0  0  0  0  0  0  0  0  0  0  0
   -0.7287   -3.1316    1.6338 H   0  0  0  0  0  0  0  0  0  0  0  0
    5.3416    1.8955    4.5406 H   0  0  0  0  0  0  0  0  0  0  0  0
    6.9220    2.1130    6.4166 H   0  0  0  0  0  0  0  0  0  0  0  0
    6.6237    0.7535    8.4489 H   0  0  0  0  0  0  0  0  0  0  0  0
    5.5944   -1.2797    9.4290 H   0  0  0  0  0  0  0  0  0  0  0  0
    4.0634   -1.8926    8.7917 H   0  0  0  0  0  0  0  0  0  0  0  0
    4.4276    0.7458   10.2960 H   0  0  0  0  0  0  0  0  0  0  0  0
    3.7031   -0.7252   10.9545 H   0  0  0  0  0  0  0  0  0  0  0  0
    2.9008    0.1515    9.6464 H   0  0  0  0  0  0  0  0  0  0  0  0
    3.0814   -0.9428    6.7905 H   0  0  0  0  0  0  0  0  0  0  0  0
   -3.9124   10.0414   -1.6988 H   0  0  0  0  0  0  0  0  0  0  0  0
   -4.2425   12.4452   -2.0874 H   0  0  0  0  0  0  0  0  0  0  0  0
   -4.0010   13.3812   -4.3519 H   0  0  0  0  0  0  0  0  0  0  0  0
   -3.2410   13.1543   -6.5903 H   0  0  0  0  0  0  0  0  0  0  0  0
   -2.4095   11.6763   -7.0924 H   0  0  0  0  0  0  0  0  0  0  0  0
   -4.5721   10.6034   -7.6253 H   0  0  0  0  0  0  0  0  0  0  0  0
   -5.4473   12.0230   -7.0500 H   0  0  0  0  0  0  0  0  0  0  0  0
   -4.4340   12.1329   -8.4919 H   0  0  0  0  0  0  0  0  0  0  0  0
   -2.9620    9.5235   -5.8332 H   0  0  0  0  0  0  0  0  0  0  0  0
   -1.4765    1.8923    0.1660 H   0  0  0  0  0  0  0  0  0  0  0  0
   -0.3131    0.6351    0.6425 H   0  0  0  0  0  0  0  0  0  0  0  0
   -2.4642    0.5201    1.9231 H   0  0  0  0  0  0  0  0  0  0  0  0
   -2.1668    2.1468    2.5529 H   0  0  0  0  0  0  0  0  0  0  0  0
   -1.0937    0.8095    2.9892 H   0  0  0  0  0  0  0  0  0  0  0  0
   -0.8883    3.7658   -2.7483 H   0  0  0  0  0  0  0  0  0  0  0  0
   -0.4661    2.7171   -1.3941 H   0  0  0  0  0  0  0  0  0  0  0  0
   -2.4626    1.8060   -2.5034 H   0  0  0  0  0  0  0  0  0  0  0  0
   -3.2594    3.3772   -2.4874 H   0  0  0  0  0  0  0  0  0  0  0  0
   -3.0421    2.4987   -0.9819 H   0  0  0  0  0  0  0  0  0  0  0  0
  -10.2563   11.6485   -5.1606 H   0  0  0  0  0  0  0  0  0  0  0  0
   -9.6431   11.6718   -3.4767 H   0  0  0  0  0  0  0  0  0  0  0  0
   -8.5734   13.3320   -5.8214 H   0  0  0  0  0  0  0  0  0  0  0  0
   -7.9005   13.3424   -4.1826 H   0  0  0  0  0  0  0  0  0  0  0  0
   -9.5373   13.9545   -4.4761 H   0  0  0  0  0  0  0  0  0  0  0  0
   -3.8992    6.2641   -9.8664 H   0  0  0  0  0  0  0  0  0  0  0  0
   -6.0207    7.1905  -14.6457 H   0  0  0  0  0  0  0  0  0  0  0  0
   -7.3760    7.8320  -16.4390 H   0  0  0  0  0  0  0  0  0  0  0  0
   -9.0819    7.3996  -16.2755 H   0  0  0  0  0  0  0  0  0  0  0  0
   -8.5777    9.0685  -16.0497 H   0  0  0  0  0  0  0  0  0  0  0  0
  -11.1671    8.5290  -13.1700 H   0  0  0  0  0  0  0  0  0  0  0  0
  -10.8798    7.7448  -14.7274 H   0  0  0  0  0  0  0  0  0  0  0  0
  -10.3762    9.4113  -14.4822 H   0  0  0  0  0  0  0  0  0  0  0  0
   -9.7686    7.8751  -11.4717 H   0  0  0  0  0  0  0  0  0  0  0  0
  1  2  2  0  0  0  0
  2  3  1  0  0  0  0
  3  4  2  0  0  0  0
  3  5  1  0  0  0  0
  5  6  2  0  0  0  0
  6  7  1  0  0  0  0
  7  8  2  0  0  0  0
  8  9  1  0  0  0  0
  9 10  2  0  0  0  0
 10 11  1  0  0  0  0
 11 12  2  0  0  0  0
 12 13  1  0  0  0  0
 13 14  3  0  0  0  0
 12 15  1  0  0  0  0
 15 16  3  0  0  0  0
  8 17  1  0  0  0  0
 17 18  1  0  0  0  0
 18 19  1  0  0  0  0
 19 20  2  0  0  0  0
 20 21  1  0  0  0  0
 21 22  1  0  0  0  0
 21 23  1  0  0  0  0
  1 24  1  0  0  0  0
 24 25  2  0  0  0  0
 25 26  1  0  0  0  0
 26 27  1  0  0  0  0
 27 28  2  0  0  0  0
 28 29  1  0  0  0  0
 29 30  2  0  0  0  0
 30 31  1  0  0  0  0
 30 32  1  0  0  0  0
 32 33  2  0  0  0  0
 26 34  1  0  0  0  0
 34 35  2  0  0  0  0
 35 36  1  0  0  0  0
 36 37  2  0  0  0  0
 37 38  1  0  0  0  0
 37 39  1  0  0  0  0
 39 40  2  0  0  0  0
 25 41  1  0  0  0  0
 41 42  1  0  0  0  0
 42 43  1  0  0  0  0
 43 44  2  0  0  0  0
 44 45  1  0  0  0  0
 45 46  1  0  0  0  0
 46 47  2  0  0  0  0
 47 48  1  0  0  0  0
 48 49  2  0  0  0  0
 49 50  1  0  0  0  0
 49 51  1  0  0  0  0
 51 52  2  0  0  0  0
 45 53  1  0  0  0  0
 53 54  2  0  0  0  0
 54 55  1  0  0  0  0
 55 56  2  0  0  0  0
 56 57  1  0  0  0  0
 56 58  1  0  0  0  0
 58 59  2  0  0  0  0
 44 60  1  0  0  0  0
 60 61  1  0  0  0  0
 43 62  1  0  0  0  0
 62 63  2  0  0  0  0
 63 64  1  0  0  0  0
 64 65  2  0  0  0  0
 65 66  1  0  0  0  0
 66 67  2  0  0  0  0
 67 68  1  0  0  0  0
 68 69  1  0  0  0  0
 69 70  1  0  0  0  0
 68 71  2  0  0  0  0
 63 72  1  0  0  0  0
 72 73  1  0  0  0  0
 73 74  1  0  0  0  0
 74 75  1  0  0  0  0
 75 76  1  0  0  0  0
 76 77  1  0  0  0  0
 77 78  2  0  0  0  0
 78 79  1  0  0  0  0
 79 80  1  0  0  0  0
 77 81  1  0  0  0  0
 81 82  1  0  0  0  0
 82 83  1  0  0  0  0
 83 84  1  0  0  0  0
 84 85  1  0  0  0  0
 85 86  1  0  0  0  0
 86 87  2  0  0  0  0
 87 88  1  0  0  0  0
 88 89  2  0  0  0  0
 89 90  1  0  0  0  0
 90 91  1  0  0  0  0
 91 92  1  0  0  0  0
 90 93  2  0  0  0  0
 85 94  2  0  0  0  0
 94 95  1  0  0  0  0
 95 96  1  0  0  0  0
 96 97  1  0  0  0  0
 97 98  1  0  0  0  0
 98 99  1  0  0  0  0
 99100  1  0  0  0  0
100101  1  0  0  0  0
101102  1  0  0  0  0
102103  1  0  0  0  0
103104  1  0  0  0  0
101105  1  0  0  0  0
105106  1  0  0  0  0
 98107  1  0  0  0  0
107108  1  0  0  0  0
 94109  1  0  0  0  0
109110  1  0  0  0  0
110111  1  0  0  0  0
111112  2  0  0  0  0
112113  1  0  0  0  0
113114  1  0  0  0  0
114115  1  0  0  0  0
115116  2  0  0  0  0
115117  1  0  0  0  0
117118  1  0  0  0  0
118119  1  0  0  0  0
114120  2  0  0  0  0
120121  1  0  0  0  0
120122  1  0  0  0  0
111123  1  0  0  0  0
123124  2  0  0  0  0
124125  1  0  0  0  0
125126  2  0  0  0  0
125127  1  0  0  0  0
127128  2  0  0  0  0
128129  1  0  0  0  0
129130  1  0  0  0  0
129131  2  0  0  0  0
131132  1  0  0  0  0
131133  1  0  0  0  0
133134  2  0  0  0  0
134135  1  0  0  0  0
135136  2  0  0  0  0
136137  1  0  0  0  0
137138  3  0  0  0  0
136139  1  0  0  0  0
139140  3  0  0  0  0
 11  2  1  0  0  0  0
 23 17  1  0  0  0  0
 61 24  1  0  0  0  0
104 62  1  0  0  0  0
121109  2  0  0  0  0
135124  1  0  0  0  0
 10  5  1  0  0  0  0
 22 18  1  0  0  0  0
 33 27  1  0  0  0  0
 40 34  1  0  0  0  0
 60 41  2  0  0  0  0
 71 64  1  0  0  0  0
103 72  2  0  0  0  0
121112  1  0  0  0  0
134127  1  0  0  0  0
 23  7  1  0  0  0  0
 52 46  1  0  0  0  0
 59 53  1  0  0  0  0
102 74  2  0  0  0  0
100 75  2  0  0  0  0
 80 76  2  0  0  0  0
 99 81  2  0  0  0  0
 97 82  2  0  0  0  0
 96 84  2  0  0  0  0
 93 86  1  0  0  0  0
  1141  1  0  0  0  0
  6142  1  0  0  0  0
  9143  1  0  0  0  0
 17144  1  0  0  0  0
 18145  1  0  0  0  0
 19146  1  0  0  0  0
 20147  1  0  0  0  0
 21148  1  0  0  0  0
 22149  1  0  0  0  0
 22150  1  0  0  0  0
 23151  1  0  0  0  0
 28152  1  0  0  0  0
 29153  1  0  0  0  0
 31154  1  0  0  0  0
 31155  1  0  0  0  0
 31156  1  0  0  0  0
 32157  1  0  0  0  0
 33158  1  0  0  0  0
 35159  1  0  0  0  0
 36160  1  0  0  0  0
 38161  1  0  0  0  0
 38162  1  0  0  0  0
 38163  1  0  0  0  0
 39164  1  0  0  0  0
 40165  1  0  0  0  0
 47166  1  0  0  0  0
 48167  1  0  0  0  0
 50168  1  0  0  0  0
 50169  1  0  0  0  0
 50170  1  0  0  0  0
 51171  1  0  0  0  0
 52172  1  0  0  0  0
 54173  1  0  0  0  0
 55174  1  0  0  0  0
 57175  1  0  0  0  0
 57176  1  0  0  0  0
 57177  1  0  0  0  0
 58178  1  0  0  0  0
 59179  1  0  0  0  0
 65180  1  0  0  0  0
 66181  1  0  0  0  0
 67182  1  0  0  0  0
 69183  1  0  0  0  0
 69184  1  0  0  0  0
 70185  1  0  0  0  0
 70186  1  0  0  0  0
 70187  1  0  0  0  0
 71188  1  0  0  0  0
 87189  1  0  0  0  0
 88190  1  0  0  0  0
 89191  1  0  0  0  0
 91192  1  0  0  0  0
 91193  1  0  0  0  0
 92194  1  0  0  0  0
 92195  1  0  0  0  0
 92196  1  0  0  0  0
 93197  1  0  0  0  0
105198  1  0  0  0  0
105199  1  0  0  0  0
106200  1  0  0  0  0
106201  1  0  0  0  0
106202  1  0  0  0  0
107203  1  0  0  0  0
107204  1  0  0  0  0
108205  1  0  0  0  0
108206  1  0  0  0  0
108207  1  0  0  0  0
118208  1  0  0  0  0
118209  1  0  0  0  0
119210  1  0  0  0  0
119211  1  0  0  0  0
119212  1  0  0  0  0
123213  1  0  0  0  0
128214  1  0  0  0  0
130215  1  0  0  0  0
130216  1  0  0  0  0
130217  1  0  0  0  0
132218  1  0  0  0  0
132219  1  0  0  0  0
132220  1  0  0  0  0
133221  1  0  0  0  0
M  END
