
  xtb     02142215223D
 energy: -424.730483730315 gnorm: 0.000420139650 xtb: 6.4.1 (unknown)
262290  0     0  0            999 V2000
    7.6023    0.8878   -8.1400 C   0  0  0  0  0  0  0  0  0  0  0  0
    7.6880    0.0699   -9.2320 C   0  0  0  0  0  0  0  0  0  0  0  0
    8.7386   -0.9712   -9.2967 C   0  0  0  0  0  0  0  0  0  0  0  0
    9.7317   -1.0505   -8.6050 O   0  0  0  0  0  0  0  0  0  0  0  0
    8.2843   -1.9163  -10.3394 C   0  0  0  0  0  0  0  0  0  0  0  0
    8.8477   -3.1461  -10.6710 C   0  0  0  0  0  0  0  0  0  0  0  0
    8.1616   -3.8317  -11.6452 C   0  0  0  0  0  0  0  0  0  0  0  0
    6.9985   -3.3361  -12.2481 C   0  0  0  0  0  0  0  0  0  0  0  0
    6.4400   -2.1167  -11.9436 C   0  0  0  0  0  0  0  0  0  0  0  0
    7.1246   -1.4041  -10.9571 C   0  0  0  0  0  0  0  0  0  0  0  0
    6.8409   -0.0884  -10.3855 C   0  0  0  0  0  0  0  0  0  0  0  0
    6.1203    0.9061  -11.0020 C   0  0  0  0  0  0  0  0  0  0  0  0
    6.1137    2.2429  -10.5587 C   0  0  0  0  0  0  0  0  0  0  0  0
    6.1337    3.3543  -10.2665 N   0  0  0  0  0  0  0  0  0  0  0  0
    5.4227    0.7377  -12.2098 C   0  0  0  0  0  0  0  0  0  0  0  0
    4.8463    0.6594  -13.2011 N   0  0  0  0  0  0  0  0  0  0  0  0
    6.8250   -4.5636  -13.1084 C   0  0  0  0  0  0  0  0  0  0  0  0
    5.7535   -5.5783  -12.6560 C   0  0  0  0  0  0  0  0  0  0  0  0
    6.1348   -6.8521  -13.3751 C   0  0  0  0  0  0  0  0  0  0  0  0
    7.2397   -7.3200  -12.8086 C   0  0  0  0  0  0  0  0  0  0  0  0
    7.6235   -6.3702  -11.6971 C   0  0  0  0  0  0  0  0  0  0  0  0
    6.2294   -5.9233  -11.2388 C   0  0  0  0  0  0  0  0  0  0  0  0
    8.1255   -5.1140  -12.4402 C   0  0  0  0  0  0  0  0  0  0  0  0
    6.4759    1.5613   -7.6468 C   0  0  0  0  0  0  0  0  0  0  0  0
    6.4608    2.4730   -6.5776 C   0  0  0  0  0  0  0  0  0  0  0  0
    7.5739    3.0269   -6.0109 N   0  0  0  0  0  0  0  0  0  0  0  0
    7.5302    3.4434   -4.6678 C   0  0  0  0  0  0  0  0  0  0  0  0
    8.0785    4.6647   -4.2876 C   0  0  0  0  0  0  0  0  0  0  0  0
    8.0335    5.0594   -2.9658 C   0  0  0  0  0  0  0  0  0  0  0  0
    7.4441    4.2573   -1.9950 C   0  0  0  0  0  0  0  0  0  0  0  0
    7.3702    4.7075   -0.5687 C   0  0  0  0  0  0  0  0  0  0  0  0
    6.9074    3.0359   -2.3831 C   0  0  0  0  0  0  0  0  0  0  0  0
    6.9515    2.6256   -3.7006 C   0  0  0  0  0  0  0  0  0  0  0  0
    8.7428    3.2814   -6.7601 C   0  0  0  0  0  0  0  0  0  0  0  0
    9.9904    3.0704   -6.1823 C   0  0  0  0  0  0  0  0  0  0  0  0
   11.1384    3.3203   -6.9082 C   0  0  0  0  0  0  0  0  0  0  0  0
   11.0722    3.7805   -8.2177 C   0  0  0  0  0  0  0  0  0  0  0  0
   12.3210    4.0080   -9.0117 C   0  0  0  0  0  0  0  0  0  0  0  0
    9.8192    4.0014   -8.7781 C   0  0  0  0  0  0  0  0  0  0  0  0
    8.6628    3.7654   -8.0624 C   0  0  0  0  0  0  0  0  0  0  0  0
    5.1352    2.7763   -6.1946 C   0  0  0  0  0  0  0  0  0  0  0  0
    4.4251    3.7533   -4.9550 S   0  0  0  0  0  0  0  0  0  0  0  0
    2.8164    3.3414   -5.5247 C   0  0  0  0  0  0  0  0  0  0  0  0
    2.8333    2.4586   -6.5962 C   0  0  0  0  0  0  0  0  0  0  0  0
    1.7209    1.9032   -7.2017 N   0  0  0  0  0  0  0  0  0  0  0  0
    1.7204    1.7024   -8.5914 C   0  0  0  0  0  0  0  0  0  0  0  0
    2.3844    2.5859   -9.4395 C   0  0  0  0  0  0  0  0  0  0  0  0
    2.3645    2.3872  -10.8046 C   0  0  0  0  0  0  0  0  0  0  0  0
    1.6784    1.3167  -11.3677 C   0  0  0  0  0  0  0  0  0  0  0  0
    1.6436    1.1338  -12.8520 C   0  0  0  0  0  0  0  0  0  0  0  0
    1.0349    0.4308  -10.5129 C   0  0  0  0  0  0  0  0  0  0  0  0
    1.0582    0.6101   -9.1438 C   0  0  0  0  0  0  0  0  0  0  0  0
    0.6098    1.5370   -6.4290 C   0  0  0  0  0  0  0  0  0  0  0  0
    0.7830    0.9653   -5.1715 C   0  0  0  0  0  0  0  0  0  0  0  0
   -0.3129    0.6581   -4.3893 C   0  0  0  0  0  0  0  0  0  0  0  0
   -1.6045    0.9245   -4.8233 C   0  0  0  0  0  0  0  0  0  0  0  0
   -2.7875    0.6758   -3.9384 C   0  0  0  0  0  0  0  0  0  0  0  0
   -1.7704    1.4478   -6.1005 C   0  0  0  0  0  0  0  0  0  0  0  0
   -0.6851    1.7387   -6.9011 C   0  0  0  0  0  0  0  0  0  0  0  0
    4.1641    2.1563   -6.9671 C   0  0  0  0  0  0  0  0  0  0  0  0
    4.8449    1.1414   -8.1811 S   0  0  0  0  0  0  0  0  0  0  0  0
    1.6612    3.8109   -4.8184 C   0  0  0  0  0  0  0  0  0  0  0  0
    0.4834    4.3151   -5.3348 C   0  0  0  0  0  0  0  0  0  0  0  0
    0.3401    4.7901   -6.7092 C   0  0  0  0  0  0  0  0  0  0  0  0
   -0.8941    4.7618   -7.3543 C   0  0  0  0  0  0  0  0  0  0  0  0
   -1.0039    5.1953   -8.6619 C   0  0  0  0  0  0  0  0  0  0  0  0
    0.1039    5.6719   -9.3386 C   0  0  0  0  0  0  0  0  0  0  0  0
    1.3369    5.7463   -8.7018 C   0  0  0  0  0  0  0  0  0  0  0  0
    2.5249    6.3345   -9.4080 C   0  0  0  0  0  0  0  0  0  0  0  0
    2.5202    7.8590   -9.2823 C   0  0  0  0  0  0  0  0  0  0  0  0
    1.4388    5.3114   -7.3907 C   0  0  0  0  0  0  0  0  0  0  0  0
   -0.5185    4.3646   -4.3360 C   0  0  0  0  0  0  0  0  0  0  0  0
   -2.2182    4.7623   -4.3679 S   0  0  0  0  0  0  0  0  0  0  0  0
   -2.3326    4.3669   -2.6868 C   0  0  0  0  0  0  0  0  0  0  0  0
   -3.3150    4.2390   -1.6868 C   0  0  0  0  0  0  0  0  0  0  0  0
   -4.7275    4.2784   -1.7154 C   0  0  0  0  0  0  0  0  0  0  0  0
   -5.4670    3.8378   -0.5588 C   0  0  0  0  0  0  0  0  0  0  0  0
   -6.7734    3.8292   -0.7712 N   0  0  0  0  0  0  0  0  0  0  0  0
   -7.0552    4.3421   -2.2815 S   0  0  0  0  0  0  0  0  0  0  0  0
   -5.5190    4.5856   -2.7305 N   0  0  0  0  0  0  0  0  0  0  0  0
   -4.7682    3.5163    0.6261 C   0  0  0  0  0  0  0  0  0  0  0  0
   -5.1724    3.0818    1.9039 C   0  0  0  0  0  0  0  0  0  0  0  0
   -6.5941    2.4973    2.7035 S   0  0  0  0  0  0  0  0  0  0  0  0
   -5.6209    2.0847    4.0950 C   0  0  0  0  0  0  0  0  0  0  0  0
   -5.8881    1.3221    5.2509 C   0  0  0  0  0  0  0  0  0  0  0  0
   -7.2224    0.8346    5.6064 C   0  0  0  0  0  0  0  0  0  0  0  0
   -7.7609    1.1040    6.8613 C   0  0  0  0  0  0  0  0  0  0  0  0
   -9.0279    0.6515    7.1784 C   0  0  0  0  0  0  0  0  0  0  0  0
   -9.7698   -0.0526    6.2467 C   0  0  0  0  0  0  0  0  0  0  0  0
   -9.2560   -0.3101    4.9815 C   0  0  0  0  0  0  0  0  0  0  0  0
  -10.0798   -1.0072    3.9377 C   0  0  0  0  0  0  0  0  0  0  0  0
  -10.7746    0.0213    3.0428 C   0  0  0  0  0  0  0  0  0  0  0  0
   -7.9808    0.1382    4.6733 C   0  0  0  0  0  0  0  0  0  0  0  0
   -4.7246    1.0473    5.9441 C   0  0  0  0  0  0  0  0  0  0  0  0
   -3.3343    1.9078    5.2848 S   0  0  0  0  0  0  0  0  0  0  0  0
   -4.2830    2.4470    3.9497 C   0  0  0  0  0  0  0  0  0  0  0  0
   -4.0247    3.0131    2.6981 C   0  0  0  0  0  0  0  0  0  0  0  0
   -2.9217    3.3878    1.9722 N   0  0  0  0  0  0  0  0  0  0  0  0
   -3.3566    3.6415    0.6833 C   0  0  0  0  0  0  0  0  0  0  0  0
   -2.6306    3.8347   -0.5123 C   0  0  0  0  0  0  0  0  0  0  0  0
   -1.2891    3.6636   -0.7990 N   0  0  0  0  0  0  0  0  0  0  0  0
   -1.1136    3.9802   -2.1231 C   0  0  0  0  0  0  0  0  0  0  0  0
   -0.0829    3.9659   -3.0730 C   0  0  0  0  0  0  0  0  0  0  0  0
    1.5839    3.5199   -3.0879 S   0  0  0  0  0  0  0  0  0  0  0  0
   -0.3541    2.8136   -0.0935 C   0  0  0  0  0  0  0  0  0  0  0  0
   -0.1771    1.4679   -0.7934 C   0  0  0  0  0  0  0  0  0  0  0  0
   -1.7696    3.9761    2.6257 C   0  0  0  0  0  0  0  0  0  0  0  0
   -2.1842    5.0958    3.5795 C   0  0  0  0  0  0  0  0  0  0  0  0
   -4.4742    0.0149    6.9014 C   0  0  0  0  0  0  0  0  0  0  0  0
   -3.4381   -0.9127    6.8274 C   0  0  0  0  0  0  0  0  0  0  0  0
   -2.5313   -1.0432    5.7871 N   0  0  0  0  0  0  0  0  0  0  0  0
   -2.9093   -0.8682    4.4518 C   0  0  0  0  0  0  0  0  0  0  0  0
   -4.2066   -1.1394    4.0197 C   0  0  0  0  0  0  0  0  0  0  0  0
   -4.5789   -0.8603    2.7194 C   0  0  0  0  0  0  0  0  0  0  0  0
   -3.6801   -0.3181    1.8095 C   0  0  0  0  0  0  0  0  0  0  0  0
   -4.1053   -0.0022    0.4078 C   0  0  0  0  0  0  0  0  0  0  0  0
   -2.3751   -0.0980    2.2334 C   0  0  0  0  0  0  0  0  0  0  0  0
   -1.9896   -0.3653    3.5307 C   0  0  0  0  0  0  0  0  0  0  0  0
   -1.2404   -1.5058    6.1027 C   0  0  0  0  0  0  0  0  0  0  0  0
   -0.5707   -0.9931    7.2098 C   0  0  0  0  0  0  0  0  0  0  0  0
    0.6713   -1.4852    7.5576 C   0  0  0  0  0  0  0  0  0  0  0  0
    1.2792   -2.4863    6.8111 C   0  0  0  0  0  0  0  0  0  0  0  0
    2.6034   -3.0516    7.2223 C   0  0  0  0  0  0  0  0  0  0  0  0
    0.6136   -2.9734    5.6926 C   0  0  0  0  0  0  0  0  0  0  0  0
   -0.6317   -2.4960    5.3384 C   0  0  0  0  0  0  0  0  0  0  0  0
   -3.4571   -1.7919    7.9350 C   0  0  0  0  0  0  0  0  0  0  0  0
   -2.4669   -3.1290    8.3945 S   0  0  0  0  0  0  0  0  0  0  0  0
   -3.4941   -3.4087    9.8080 C   0  0  0  0  0  0  0  0  0  0  0  0
   -4.6250   -2.5418    9.8221 C   0  0  0  0  0  0  0  0  0  0  0  0
   -5.6785   -2.6228   10.6832 N   0  0  0  0  0  0  0  0  0  0  0  0
   -6.4789   -1.4766   10.8857 C   0  0  0  0  0  0  0  0  0  0  0  0
   -5.8908   -0.2665   11.2413 C   0  0  0  0  0  0  0  0  0  0  0  0
   -6.6755    0.8562   11.4127 C   0  0  0  0  0  0  0  0  0  0  0  0
   -8.0538    0.8009   11.2389 C   0  0  0  0  0  0  0  0  0  0  0  0
   -8.8887    2.0349   11.3879 C   0  0  0  0  0  0  0  0  0  0  0  0
   -8.6314   -0.4183   10.9051 C   0  0  0  0  0  0  0  0  0  0  0  0
   -7.8586   -1.5489   10.7305 C   0  0  0  0  0  0  0  0  0  0  0  0
   -6.1327   -3.8368   11.2381 C   0  0  0  0  0  0  0  0  0  0  0  0
   -6.1079   -5.0195   10.5033 C   0  0  0  0  0  0  0  0  0  0  0  0
   -6.5404   -6.1972   11.0791 C   0  0  0  0  0  0  0  0  0  0  0  0
   -7.0266   -6.2248   12.3815 C   0  0  0  0  0  0  0  0  0  0  0  0
   -7.4609   -7.5068   13.0213 C   0  0  0  0  0  0  0  0  0  0  0  0
   -7.0890   -5.0301   13.0888 C   0  0  0  0  0  0  0  0  0  0  0  0
   -6.6450   -3.8472   12.5322 C   0  0  0  0  0  0  0  0  0  0  0  0
   -4.5342   -1.5940    8.7898 C   0  0  0  0  0  0  0  0  0  0  0  0
   -5.5378   -0.2794    8.2646 S   0  0  0  0  0  0  0  0  0  0  0  0
   -3.1847   -4.2717   10.8486 C   0  0  0  0  0  0  0  0  0  0  0  0
   -2.1632   -5.1951   10.9801 C   0  0  0  0  0  0  0  0  0  0  0  0
   -1.1903   -5.5609    9.9556 C   0  0  0  0  0  0  0  0  0  0  0  0
   -1.0263   -5.0699    8.8521 O   0  0  0  0  0  0  0  0  0  0  0  0
   -0.4203   -6.6949   10.5167 C   0  0  0  0  0  0  0  0  0  0  0  0
    0.6078   -7.4044    9.9349 C   0  0  0  0  0  0  0  0  0  0  0  0
    1.1650   -8.4371   10.6775 C   0  0  0  0  0  0  0  0  0  0  0  0
    2.5886   -9.4529    9.9300 Br  0  0  0  0  0  0  0  0  0  0  0  0
    0.7108   -8.7464   11.9507 C   0  0  0  0  0  0  0  0  0  0  0  0
   -0.3242   -8.0224   12.5268 C   0  0  0  0  0  0  0  0  0  0  0  0
   -0.8976   -6.9868   11.8055 C   0  0  0  0  0  0  0  0  0  0  0  0
   -1.9682   -6.0416   12.1291 C   0  0  0  0  0  0  0  0  0  0  0  0
   -2.6297   -5.9863   13.3344 C   0  0  0  0  0  0  0  0  0  0  0  0
   -3.5557   -4.9987   13.7180 C   0  0  0  0  0  0  0  0  0  0  0  0
   -4.2899   -4.2145   14.1297 N   0  0  0  0  0  0  0  0  0  0  0  0
   -2.4411   -6.9104   14.3800 C   0  0  0  0  0  0  0  0  0  0  0  0
   -2.3507   -7.6404   15.2628 N   0  0  0  0  0  0  0  0  0  0  0  0
    8.4879    0.9107   -7.5135 H   0  0  0  0  0  0  0  0  0  0  0  0
    9.7430   -3.4967  -10.1819 H   0  0  0  0  0  0  0  0  0  0  0  0
    5.5418   -1.7419  -12.4069 H   0  0  0  0  0  0  0  0  0  0  0  0
    6.8229   -4.3940  -14.1835 H   0  0  0  0  0  0  0  0  0  0  0  0
    4.7275   -5.2394  -12.7714 H   0  0  0  0  0  0  0  0  0  0  0  0
    5.6111   -7.2387  -14.2297 H   0  0  0  0  0  0  0  0  0  0  0  0
    7.8231   -8.1753  -13.0955 H   0  0  0  0  0  0  0  0  0  0  0  0
    8.3014   -6.7529  -10.9388 H   0  0  0  0  0  0  0  0  0  0  0  0
    5.6586   -6.7405  -10.8003 H   0  0  0  0  0  0  0  0  0  0  0  0
    6.2372   -5.0765  -10.5551 H   0  0  0  0  0  0  0  0  0  0  0  0
    8.9912   -5.3090  -13.0705 H   0  0  0  0  0  0  0  0  0  0  0  0
    8.5330    5.2991   -5.0338 H   0  0  0  0  0  0  0  0  0  0  0  0
    8.4583    6.0117   -2.6835 H   0  0  0  0  0  0  0  0  0  0  0  0
    7.3898    3.8569    0.1087 H   0  0  0  0  0  0  0  0  0  0  0  0
    6.4396    5.2507   -0.4002 H   0  0  0  0  0  0  0  0  0  0  0  0
    8.1963    5.3720   -0.3272 H   0  0  0  0  0  0  0  0  0  0  0  0
    6.4546    2.3925   -1.6429 H   0  0  0  0  0  0  0  0  0  0  0  0
    6.5479    1.6650   -3.9863 H   0  0  0  0  0  0  0  0  0  0  0  0
   10.0539    2.7027   -5.1685 H   0  0  0  0  0  0  0  0  0  0  0  0
   12.1017    3.1448   -6.4521 H   0  0  0  0  0  0  0  0  0  0  0  0
   12.6337    3.0749   -9.4816 H   0  0  0  0  0  0  0  0  0  0  0  0
   13.1321    4.3490   -8.3721 H   0  0  0  0  0  0  0  0  0  0  0  0
   12.1548    4.7418   -9.7967 H   0  0  0  0  0  0  0  0  0  0  0  0
    9.7428    4.3712   -9.7899 H   0  0  0  0  0  0  0  0  0  0  0  0
    7.7005    3.9456   -8.5173 H   0  0  0  0  0  0  0  0  0  0  0  0
    2.9068    3.4354   -9.0285 H   0  0  0  0  0  0  0  0  0  0  0  0
    2.8863    3.0815  -11.4469 H   0  0  0  0  0  0  0  0  0  0  0  0
    0.9880    0.3121  -13.1290 H   0  0  0  0  0  0  0  0  0  0  0  0
    1.2940    2.0428  -13.3389 H   0  0  0  0  0  0  0  0  0  0  0  0
    2.6459    0.9234  -13.2257 H   0  0  0  0  0  0  0  0  0  0  0  0
    0.5081   -0.4190  -10.9232 H   0  0  0  0  0  0  0  0  0  0  0  0
    0.5590   -0.0951   -8.4954 H   0  0  0  0  0  0  0  0  0  0  0  0
    1.7808    0.7600   -4.8102 H   0  0  0  0  0  0  0  0  0  0  0  0
   -0.1594    0.1925   -3.4270 H   0  0  0  0  0  0  0  0  0  0  0  0
   -2.5415   -0.0264   -3.1449 H   0  0  0  0  0  0  0  0  0  0  0  0
   -3.6241    0.2818   -4.5111 H   0  0  0  0  0  0  0  0  0  0  0  0
   -3.1120    1.6115   -3.4798 H   0  0  0  0  0  0  0  0  0  0  0  0
   -2.7674    1.6402   -6.4694 H   0  0  0  0  0  0  0  0  0  0  0  0
   -0.8285    2.1440   -7.8909 H   0  0  0  0  0  0  0  0  0  0  0  0
   -1.7621    4.3815   -6.8400 H   0  0  0  0  0  0  0  0  0  0  0  0
   -1.9628    5.1559   -9.1576 H   0  0  0  0  0  0  0  0  0  0  0  0
    0.0126    5.9972  -10.3647 H   0  0  0  0  0  0  0  0  0  0  0  0
    2.4970    6.0593  -10.4641 H   0  0  0  0  0  0  0  0  0  0  0  0
    3.4497    5.9433   -8.9792 H   0  0  0  0  0  0  0  0  0  0  0  0
    2.5599    8.1519   -8.2352 H   0  0  0  0  0  0  0  0  0  0  0  0
    1.6139    8.2732   -9.7184 H   0  0  0  0  0  0  0  0  0  0  0  0
    3.3795    8.2845   -9.7952 H   0  0  0  0  0  0  0  0  0  0  0  0
    2.3895    5.3919   -6.8834 H   0  0  0  0  0  0  0  0  0  0  0  0
   -7.1969    1.6879    7.5738 H   0  0  0  0  0  0  0  0  0  0  0  0
   -9.4372    0.8531    8.1571 H   0  0  0  0  0  0  0  0  0  0  0  0
  -10.7610   -0.4007    6.4997 H   0  0  0  0  0  0  0  0  0  0  0  0
   -9.4389   -1.6427    3.3230 H   0  0  0  0  0  0  0  0  0  0  0  0
  -10.8311   -1.6389    4.4155 H   0  0  0  0  0  0  0  0  0  0  0  0
  -11.3679   -0.4770    2.2798 H   0  0  0  0  0  0  0  0  0  0  0  0
  -11.4312    0.6545    3.6353 H   0  0  0  0  0  0  0  0  0  0  0  0
  -10.0389    0.6559    2.5539 H   0  0  0  0  0  0  0  0  0  0  0  0
   -7.5640   -0.0623    3.6973 H   0  0  0  0  0  0  0  0  0  0  0  0
   -0.7328    2.6294    0.9083 H   0  0  0  0  0  0  0  0  0  0  0  0
    0.6113    3.3266   -0.0312 H   0  0  0  0  0  0  0  0  0  0  0  0
    0.4540    0.8235   -0.1866 H   0  0  0  0  0  0  0  0  0  0  0  0
    0.2926    1.5969   -1.7626 H   0  0  0  0  0  0  0  0  0  0  0  0
   -1.1431    0.9862   -0.9323 H   0  0  0  0  0  0  0  0  0  0  0  0
   -1.1135    4.3992    1.8650 H   0  0  0  0  0  0  0  0  0  0  0  0
   -1.2390    3.1974    3.1853 H   0  0  0  0  0  0  0  0  0  0  0  0
   -2.7557    5.8525    3.0461 H   0  0  0  0  0  0  0  0  0  0  0  0
   -1.2966    5.5601    4.0005 H   0  0  0  0  0  0  0  0  0  0  0  0
   -2.7897    4.7085    4.3939 H   0  0  0  0  0  0  0  0  0  0  0  0
   -4.9247   -1.5619    4.7072 H   0  0  0  0  0  0  0  0  0  0  0  0
   -5.5915   -1.0663    2.4039 H   0  0  0  0  0  0  0  0  0  0  0  0
   -5.1362    0.3446    0.3852 H   0  0  0  0  0  0  0  0  0  0  0  0
   -3.4731    0.7688   -0.0277 H   0  0  0  0  0  0  0  0  0  0  0  0
   -4.0372   -0.8933   -0.2177 H   0  0  0  0  0  0  0  0  0  0  0  0
   -1.6512    0.3046    1.5400 H   0  0  0  0  0  0  0  0  0  0  0  0
   -0.9789   -0.1620    3.8528 H   0  0  0  0  0  0  0  0  0  0  0  0
   -1.0339   -0.2129    7.7969 H   0  0  0  0  0  0  0  0  0  0  0  0
    1.1757   -1.0864    8.4260 H   0  0  0  0  0  0  0  0  0  0  0  0
    3.2089   -2.3021    7.7272 H   0  0  0  0  0  0  0  0  0  0  0  0
    2.4461   -3.8795    7.9142 H   0  0  0  0  0  0  0  0  0  0  0  0
    3.1511   -3.4304    6.3625 H   0  0  0  0  0  0  0  0  0  0  0  0
    1.0697   -3.7525    5.0991 H   0  0  0  0  0  0  0  0  0  0  0  0
   -1.1472   -2.8972    4.4781 H   0  0  0  0  0  0  0  0  0  0  0  0
   -4.8215   -0.2162   11.3839 H   0  0  0  0  0  0  0  0  0  0  0  0
   -6.2108    1.7917   11.6876 H   0  0  0  0  0  0  0  0  0  0  0  0
   -8.5295    2.6482   12.2114 H   0  0  0  0  0  0  0  0  0  0  0  0
   -8.8321    2.6331   10.4776 H   0  0  0  0  0  0  0  0  0  0  0  0
   -9.9313    1.7824   11.5642 H   0  0  0  0  0  0  0  0  0  0  0  0
   -9.7016   -0.4849   10.7741 H   0  0  0  0  0  0  0  0  0  0  0  0
   -8.3162   -2.4898   10.4631 H   0  0  0  0  0  0  0  0  0  0  0  0
   -5.7399   -5.0140    9.4878 H   0  0  0  0  0  0  0  0  0  0  0  0
   -6.5049   -7.1102   10.5021 H   0  0  0  0  0  0  0  0  0  0  0  0
   -6.7508   -7.7935   13.7972 H   0  0  0  0  0  0  0  0  0  0  0  0
   -7.5154   -8.3105   12.2914 H   0  0  0  0  0  0  0  0  0  0  0  0
   -8.4353   -7.3906   13.4920 H   0  0  0  0  0  0  0  0  0  0  0  0
   -7.4693   -5.0286   14.0989 H   0  0  0  0  0  0  0  0  0  0  0  0
   -6.6769   -2.9312   13.1009 H   0  0  0  0  0  0  0  0  0  0  0  0
   -3.8596   -4.2071   11.6920 H   0  0  0  0  0  0  0  0  0  0  0  0
    0.9572   -7.1600    8.9437 H   0  0  0  0  0  0  0  0  0  0  0  0
    1.1668   -9.5567   12.4986 H   0  0  0  0  0  0  0  0  0  0  0  0
   -0.6606   -8.2794   13.5176 H   0  0  0  0  0  0  0  0  0  0  0  0
  1  2  2  0  0  0  0
  2  3  1  0  0  0  0
  3  4  2  0  0  0  0
  3  5  1  0  0  0  0
  5  6  2  0  0  0  0
  6  7  1  0  0  0  0
  7  8  2  0  0  0  0
  8  9  1  0  0  0  0
  9 10  2  0  0  0  0
 10 11  1  0  0  0  0
 11 12  2  0  0  0  0
 12 13  1  0  0  0  0
 13 14  3  0  0  0  0
 12 15  1  0  0  0  0
 15 16  3  0  0  0  0
  8 17  1  0  0  0  0
 17 18  1  0  0  0  0
 18 19  1  0  0  0  0
 19 20  2  0  0  0  0
 20 21  1  0  0  0  0
 21 22  1  0  0  0  0
 21 23  1  0  0  0  0
  1 24  1  0  0  0  0
 24 25  2  0  0  0  0
 25 26  1  0  0  0  0
 26 27  1  0  0  0  0
 27 28  2  0  0  0  0
 28 29  1  0  0  0  0
 29 30  2  0  0  0  0
 30 31  1  0  0  0  0
 30 32  1  0  0  0  0
 32 33  2  0  0  0  0
 26 34  1  0  0  0  0
 34 35  2  0  0  0  0
 35 36  1  0  0  0  0
 36 37  2  0  0  0  0
 37 38  1  0  0  0  0
 37 39  1  0  0  0  0
 39 40  2  0  0  0  0
 25 41  1  0  0  0  0
 41 42  1  0  0  0  0
 42 43  1  0  0  0  0
 43 44  2  0  0  0  0
 44 45  1  0  0  0  0
 45 46  1  0  0  0  0
 46 47  2  0  0  0  0
 47 48  1  0  0  0  0
 48 49  2  0  0  0  0
 49 50  1  0  0  0  0
 49 51  1  0  0  0  0
 51 52  2  0  0  0  0
 45 53  1  0  0  0  0
 53 54  2  0  0  0  0
 54 55  1  0  0  0  0
 55 56  2  0  0  0  0
 56 57  1  0  0  0  0
 56 58  1  0  0  0  0
 58 59  2  0  0  0  0
 44 60  1  0  0  0  0
 60 61  1  0  0  0  0
 43 62  1  0  0  0  0
 62 63  2  0  0  0  0
 63 64  1  0  0  0  0
 64 65  2  0  0  0  0
 65 66  1  0  0  0  0
 66 67  2  0  0  0  0
 67 68  1  0  0  0  0
 68 69  1  0  0  0  0
 69 70  1  0  0  0  0
 68 71  2  0  0  0  0
 63 72  1  0  0  0  0
 72 73  1  0  0  0  0
 73 74  1  0  0  0  0
 74 75  1  0  0  0  0
 75 76  1  0  0  0  0
 76 77  1  0  0  0  0
 77 78  2  0  0  0  0
 78 79  1  0  0  0  0
 79 80  1  0  0  0  0
 77 81  1  0  0  0  0
 81 82  1  0  0  0  0
 82 83  1  0  0  0  0
 83 84  1  0  0  0  0
 84 85  1  0  0  0  0
 85 86  1  0  0  0  0
 86 87  2  0  0  0  0
 87 88  1  0  0  0  0
 88 89  2  0  0  0  0
 89 90  1  0  0  0  0
 90 91  1  0  0  0  0
 91 92  1  0  0  0  0
 90 93  2  0  0  0  0
 85 94  2  0  0  0  0
 94 95  1  0  0  0  0
 95 96  1  0  0  0  0
 96 97  1  0  0  0  0
 97 98  1  0  0  0  0
 98 99  1  0  0  0  0
 99100  1  0  0  0  0
100101  1  0  0  0  0
101102  1  0  0  0  0
102103  1  0  0  0  0
103104  1  0  0  0  0
101105  1  0  0  0  0
105106  1  0  0  0  0
 98107  1  0  0  0  0
107108  1  0  0  0  0
 94109  1  0  0  0  0
109110  2  0  0  0  0
110111  1  0  0  0  0
111112  1  0  0  0  0
112113  2  0  0  0  0
113114  1  0  0  0  0
114115  2  0  0  0  0
115116  1  0  0  0  0
115117  1  0  0  0  0
117118  2  0  0  0  0
111119  1  0  0  0  0
119120  2  0  0  0  0
120121  1  0  0  0  0
121122  2  0  0  0  0
122123  1  0  0  0  0
122124  1  0  0  0  0
124125  2  0  0  0  0
110126  1  0  0  0  0
126127  1  0  0  0  0
127128  1  0  0  0  0
128129  2  0  0  0  0
129130  1  0  0  0  0
130131  1  0  0  0  0
131132  2  0  0  0  0
132133  1  0  0  0  0
133134  2  0  0  0  0
134135  1  0  0  0  0
134136  1  0  0  0  0
136137  2  0  0  0  0
130138  1  0  0  0  0
138139  2  0  0  0  0
139140  1  0  0  0  0
140141  2  0  0  0  0
141142  1  0  0  0  0
141143  1  0  0  0  0
143144  2  0  0  0  0
129145  1  0  0  0  0
145146  1  0  0  0  0
128147  1  0  0  0  0
147148  2  0  0  0  0
148149  1  0  0  0  0
149150  2  0  0  0  0
149151  1  0  0  0  0
151152  2  0  0  0  0
152153  1  0  0  0  0
153154  1  0  0  0  0
153155  2  0  0  0  0
155156  1  0  0  0  0
156157  2  0  0  0  0
157158  1  0  0  0  0
158159  2  0  0  0  0
159160  1  0  0  0  0
160161  3  0  0  0  0
159162  1  0  0  0  0
162163  3  0  0  0  0
 11  2  1  0  0  0  0
 23 17  1  0  0  0  0
 61 24  1  0  0  0  0
104 62  1  0  0  0  0
146109  1  0  0  0  0
158148  1  0  0  0  0
 10  5  1  0  0  0  0
 22 18  1  0  0  0  0
 33 27  1  0  0  0  0
 40 34  1  0  0  0  0
 60 41  2  0  0  0  0
 71 64  1  0  0  0  0
103 72  2  0  0  0  0
118112  1  0  0  0  0
125119  1  0  0  0  0
145126  2  0  0  0  0
157151  1  0  0  0  0
 23  7  1  0  0  0  0
 52 46  1  0  0  0  0
 59 53  1  0  0  0  0
102 74  2  0  0  0  0
137131  1  0  0  0  0
144138  1  0  0  0  0
100 75  2  0  0  0  0
 80 76  2  0  0  0  0
 99 81  2  0  0  0  0
 97 82  2  0  0  0  0
 96 84  2  0  0  0  0
 93 86  1  0  0  0  0
  1164  1  0  0  0  0
  6165  1  0  0  0  0
  9166  1  0  0  0  0
 17167  1  0  0  0  0
 18168  1  0  0  0  0
 19169  1  0  0  0  0
 20170  1  0  0  0  0
 21171  1  0  0  0  0
 22172  1  0  0  0  0
 22173  1  0  0  0  0
 23174  1  0  0  0  0
 28175  1  0  0  0  0
 29176  1  0  0  0  0
 31177  1  0  0  0  0
 31178  1  0  0  0  0
 31179  1  0  0  0  0
 32180  1  0  0  0  0
 33181  1  0  0  0  0
 35182  1  0  0  0  0
 36183  1  0  0  0  0
 38184  1  0  0  0  0
 38185  1  0  0  0  0
 38186  1  0  0  0  0
 39187  1  0  0  0  0
 40188  1  0  0  0  0
 47189  1  0  0  0  0
 48190  1  0  0  0  0
 50191  1  0  0  0  0
 50192  1  0  0  0  0
 50193  1  0  0  0  0
 51194  1  0  0  0  0
 52195  1  0  0  0  0
 54196  1  0  0  0  0
 55197  1  0  0  0  0
 57198  1  0  0  0  0
 57199  1  0  0  0  0
 57200  1  0  0  0  0
 58201  1  0  0  0  0
 59202  1  0  0  0  0
 65203  1  0  0  0  0
 66204  1  0  0  0  0
 67205  1  0  0  0  0
 69206  1  0  0  0  0
 69207  1  0  0  0  0
 70208  1  0  0  0  0
 70209  1  0  0  0  0
 70210  1  0  0  0  0
 71211  1  0  0  0  0
 87212  1  0  0  0  0
 88213  1  0  0  0  0
 89214  1  0  0  0  0
 91215  1  0  0  0  0
 91216  1  0  0  0  0
 92217  1  0  0  0  0
 92218  1  0  0  0  0
 92219  1  0  0  0  0
 93220  1  0  0  0  0
105221  1  0  0  0  0
105222  1  0  0  0  0
106223  1  0  0  0  0
106224  1  0  0  0  0
106225  1  0  0  0  0
107226  1  0  0  0  0
107227  1  0  0  0  0
108228  1  0  0  0  0
108229  1  0  0  0  0
108230  1  0  0  0  0
113231  1  0  0  0  0
114232  1  0  0  0  0
116233  1  0  0  0  0
116234  1  0  0  0  0
116235  1  0  0  0  0
117236  1  0  0  0  0
118237  1  0  0  0  0
120238  1  0  0  0  0
121239  1  0  0  0  0
123240  1  0  0  0  0
123241  1  0  0  0  0
123242  1  0  0  0  0
124243  1  0  0  0  0
125244  1  0  0  0  0
132245  1  0  0  0  0
133246  1  0  0  0  0
135247  1  0  0  0  0
135248  1  0  0  0  0
135249  1  0  0  0  0
136250  1  0  0  0  0
137251  1  0  0  0  0
139252  1  0  0  0  0
140253  1  0  0  0  0
142254  1  0  0  0  0
142255  1  0  0  0  0
142256  1  0  0  0  0
143257  1  0  0  0  0
144258  1  0  0  0  0
147259  1  0  0  0  0
152260  1  0  0  0  0
155261  1  0  0  0  0
156262  1  0  0  0  0
M  END
