246

C         -6.62960       -1.96350        3.51950
C         -6.34370       -3.25320        3.12310
C         -5.14700       -3.63370        2.35850
O         -4.26950       -2.89580        1.94680
C         -5.30940       -5.06910        2.04310
C         -4.40900       -5.88950        1.37090
C         -4.83160       -7.19020        1.22850
C         -6.07410       -7.63440        1.69560
C         -6.97320       -6.83430        2.36070
C         -6.54720       -5.51650        2.54150
C         -7.18850       -4.40760        3.24650
C         -8.30200       -4.50290        4.04660
C         -9.03620       -5.68530        4.24850
N         -9.66660       -6.62200        4.46310
C         -8.79510       -3.44730        4.83800
N         -9.23570       -2.64270        5.53000
C         -5.84130       -9.04670        1.21550
C         -5.46570      -10.08370        2.29470
C         -4.83330      -11.21100        1.51120
C         -3.65040      -10.78980        1.08230
C         -3.46410       -9.37050        1.56810
C         -4.21060       -9.44900        2.90610
C         -4.44900       -8.55330        0.70530
C         -5.69880       -0.95230        3.76920
C         -4.33430       -0.99710        4.12420
N         -3.56410       -2.09500        4.39110
C         -2.17110       -1.97320        4.15950
C         -1.71530       -1.51000        2.92990
C         -0.36330       -1.32310        2.72040
C          0.55700       -1.59340        3.72560
C          2.01790       -1.33860        3.51960
C          0.09170       -2.09390        4.93740
C         -1.25790       -2.28630        5.15970
C         -4.06410       -3.30170        4.88080
C         -5.15910       -3.34090        5.74460
C         -5.66470       -4.55090        6.17180
C         -5.09940       -5.75560        5.76280
C         -5.70670       -7.05890        6.17750
C         -3.97560       -5.70710        4.94810
C         -3.46170       -4.50310        4.50840
C         -3.81870        0.31330        4.24900
S         -2.25930        0.94970        4.63730
C         -2.84260        2.59990        4.45130
C         -4.18940        2.64130        4.09120
N         -4.94930        3.76000        3.77780
C         -6.28310        3.77110        4.22270
C         -6.57660        3.34800        5.51760
C         -7.88230        3.32500        5.96160
C         -8.92670        3.73040        5.13820
C        -10.34070        3.67880        5.62800
C         -8.62360        4.15990        3.85240
C         -7.32180        4.17740        3.39120
C         -4.47540        4.72520        2.88530
C         -3.50610        4.39970        1.93900
C         -2.95510        5.37760        1.13520
C         -3.36550        6.70040        1.23470
C         -2.72240        7.76900        0.40670
C         -4.36680        7.01170        2.14830
C         -4.91490        6.04680        2.96890
C         -4.73070        1.33340        4.02710
S         -6.30570        0.71320        3.69660
C         -1.85830        3.62080        4.56520
C         -1.95410        4.98970        4.43640
C         -0.69450        5.59170        4.35300
S         -0.16980        7.18570        3.89450
C          1.49550        6.62530        3.82660
C          2.55560        7.31560        3.26880
C          3.77080        6.65120        3.17730
C          4.94380        6.91120        2.39410
C          5.87920        5.94320        2.61630
C          5.41780        4.93980        3.64470
C          5.53300        3.50840        3.07880
C          5.45530        2.36370        4.08400
C          6.14280        5.15090        4.98930
C          7.65670        5.00950        4.89660
C          3.97120        5.38880        3.80820
C          2.91290        4.71020        4.34550
C          1.64080        5.29370        4.27540
C          0.37270        4.71930        4.51590
S         -0.18120        3.10220        4.74480
C          6.85970        5.96220        1.56640
C          6.39700        6.90500        0.60090
C          5.28320        7.75830        1.19360
C          5.89480        9.10200        1.64480
C          4.96460        9.92840        2.52370
C          4.07140        7.90150        0.25160
C          4.13900        9.02870       -0.77470
C          6.80730        6.81520       -0.69910
C          7.68610        5.77810       -1.04230
C          8.33130        5.03130       -0.03380
C          7.92900        5.12020        1.28750
S          9.36280        3.76300       -0.69730
C          8.64370        4.00600       -2.27040
C          8.42880        3.12900       -3.34640
C          7.40470        3.56210       -4.15090
S          6.82770        5.15670       -3.69140
C          7.84480        5.13980       -2.29600
C          6.48790        2.72820       -4.88500
C          5.18850        2.63160       -4.48580
C          4.48160        1.56450       -5.08430
C          3.22690        1.07370       -4.70200
C          2.50150        1.66480       -3.56680
C          2.15070        3.01230       -3.52610
C          1.53220        3.54090       -2.41360
C          1.26520        2.76620       -1.28290
S          0.56100        3.62460        0.09310
C         -0.32710        2.37940        1.09640
C         -1.42200        1.67080        0.32540
C          1.63590        1.42630       -1.33570
F          1.46590        0.60780       -0.27040
C          2.21770        0.87400       -2.45920
C          2.77460       -0.05750       -5.36120
C          3.52630       -0.70530       -6.37820
C          4.82690       -0.25440       -6.70540
C          5.67730       -0.98280       -7.65020
C          5.84140       -2.36490       -7.55060
C          6.65420       -3.04040       -8.43360
C          7.33930       -2.37380       -9.44930
S          8.38560       -3.35240      -10.48280
C          8.21500       -2.61090      -12.14820
C          6.77600       -2.60740      -12.62290
C          7.18850       -0.99170       -9.51870
C          6.36970       -0.30290       -8.64720
F          7.84580       -0.26740      -10.45040
C          5.27300        0.87480       -6.03950
S          6.89220        1.55130       -6.11160
C          2.80350       -1.78110       -6.92280
C          1.56850       -1.99090       -6.33510
S          1.24510       -0.82630       -5.06630
C          0.71080       -3.03520       -6.74870
C         -0.50260       -3.42800       -6.26120
C         -1.21350       -2.83820       -5.11140
O         -0.88440       -1.87540       -4.44540
C         -2.42190       -3.65030       -4.91110
C         -3.38010       -3.47860       -3.91520
C         -4.40190       -4.39460       -3.96340
C         -4.46870       -5.40570       -4.93230
C         -3.53140       -5.58060       -5.92310
C         -2.47710       -4.66120       -5.89180
C         -1.30610       -4.53530       -6.75740
C         -1.04060       -5.32150       -7.84820
C          0.07340       -5.20230       -8.70590
N          0.94340       -5.18020       -9.45600
C         -1.86170       -6.38240       -8.28710
N         -2.47640       -7.25520       -8.70940
C         -5.75020       -5.96900       -4.36670
C         -5.65860       -7.26420       -3.52090
C         -4.26590       -7.29330       -2.94330
C         -4.18750       -6.33380       -2.03070
C         -5.52720       -5.64430       -1.96800
C         -6.45750       -6.82560       -2.28270
C         -5.66980       -4.84450       -3.28640
H         -7.66850       -1.67640        3.63140
H         -3.46440       -5.50220        1.02260
H         -7.92860       -7.18850        2.71080
H         -6.55660       -9.43020        0.48980
H         -6.27320      -10.34970        2.97140
H         -5.31880      -12.14760        1.30910
H         -2.95100      -11.30380        0.44930
H         -2.44660       -8.98860        1.58280
H         -4.39180       -8.48100        3.36900
H         -3.71700      -10.11100        3.61620
H         -4.23040       -8.60970       -0.35980
H         -2.43300       -1.31940        2.14720
H         -0.01750       -0.96210        1.76310
H          2.60820       -2.20220        3.82100
H          2.22850       -1.11190        2.47780
H          2.33440       -0.49050        4.12700
H          0.79670       -2.32310        5.72340
H         -1.61190       -2.66320        6.10820
H         -5.61510       -2.42120        6.07940
H         -6.52180       -4.56130        6.82970
H         -6.00350       -7.03100        7.22390
H         -5.01080       -7.88060        6.02810
H         -6.60170       -7.25730        5.58590
H         -3.50000       -6.62600        4.63660
H         -2.60180       -4.48340        3.85610
H         -5.77240        3.03850        6.16990
H         -8.09640        2.98970        6.96600
H        -10.69090        2.64650        5.64240
H        -10.99920        4.25410        4.98220
H        -10.41200        4.06790        6.64190
H         -9.42010        4.47460        3.19360
H         -7.10490        4.49610        2.38240
H         -3.18690        3.37360        1.84350
H         -2.18550        5.11080        0.42510
H         -1.88760        8.20570        0.95670
H         -3.42870        8.56410        0.17900
H         -2.33500        7.35930       -0.52300
H         -4.70890        8.03290        2.23490
H         -5.66860        6.31340        3.69530
H         -2.87350        5.53600        4.38410
H          2.41270        8.31210        2.88360
H          4.73660        3.38900        2.33940
H          6.47870        3.42280        2.54360
H          6.29780        2.37810        4.77000
H          5.47890        1.41890        3.54410
H          4.53950        2.39170        4.66590
H          5.90430        6.15880        5.33940
H          5.74370        4.44790        5.72120
H          8.06760        5.74970        4.21450
H          8.10170        5.16470        5.87720
H          7.94090        4.02000        4.54860
H          3.00140        3.72330        4.76880
H          6.80520        8.88010        2.20790
H          6.18620        9.67420        0.76350
H          4.04150       10.17150        2.00450
H          4.71780        9.38660        3.43340
H          5.45260       10.86020        2.80200
H          3.95010        6.94790       -0.26900
H          3.17610        8.04680        0.85500
H          5.04410        8.98560       -1.37290
H          3.28740        8.94690       -1.44720
H          4.09460       10.00370       -0.29700
H          6.39470        7.42350       -1.48680
H          8.36700        4.47610        2.03270
H          8.90500        2.17210       -3.45750
H          4.77030        3.25210       -3.71400
H          2.34740        3.64200       -4.38060
H          1.25200        4.58290       -2.39070
H         -0.74480        2.98640        1.90030
H          0.39330        1.68490        1.52330
H         -1.99020        1.03940        1.00630
H         -1.00950        1.03990       -0.45830
H         -2.09640        2.39050       -0.13500
H          2.48240       -0.17160       -2.44170
H          5.34310       -2.90590       -6.76090
H          6.77870       -4.10910       -8.35320
H          8.83250       -3.25900      -12.77020
H          8.64630       -1.61250      -12.13940
H          6.36010       -3.61220      -12.59090
H          6.16230       -1.95930      -12.00020
H          6.73020       -2.24200      -13.64680
H          6.27660        0.76580       -8.76220
H          3.16000       -2.38870       -7.73620
H          1.11540       -3.60270       -7.57810
H         -3.28940       -2.68750       -3.18770
H         -3.59940       -6.36270       -6.66030
H         -6.60610       -5.97130       -5.03840
H         -5.98510       -8.16360       -4.03610
H         -3.48640       -7.94540       -3.29290
H         -3.32710       -6.02250       -1.46910
H         -5.72900       -5.07280       -1.06590
H         -7.47870       -6.52360       -2.51030
H         -6.46520       -7.57580       -1.49370
H         -6.47680       -4.11600       -3.24410
