198

C         -3.84280       -1.78630       -6.95880
C         -3.00570       -2.02950       -8.02610
C         -1.54890       -1.83000       -7.98370
O         -0.88860       -1.36940       -7.06960
C         -1.02550       -2.43350       -9.22680
C          0.30660       -2.53240       -9.61450
C          0.49350       -3.16870      -10.81910
C         -0.56690       -3.67410      -11.58020
C         -1.88800       -3.58200      -11.20780
C         -2.09760       -2.93710       -9.98800
C         -3.34090       -2.65960       -9.27120
C         -4.61250       -2.82440       -9.76490
C         -5.77800       -2.42830       -9.08050
N         -6.76610       -2.10310       -8.59250
C         -4.90910       -3.32900      -11.04350
N         -5.21370       -3.71280      -12.08330
C          0.35130       -4.21300      -12.64910
C          0.63230       -5.73610      -12.65600
C          0.45020       -6.21280      -11.23650
C          1.45460       -5.73220      -10.51600
C          2.33430       -4.92200      -11.43570
C          2.16690       -5.71760      -12.74010
C          1.53400       -3.64720      -11.80140
C         -3.58420       -0.89710       -5.91250
C         -2.78100        0.26150       -5.85970
N         -2.24740        0.92470       -6.92300
C         -2.72570        0.77450       -8.23510
C         -1.82100        0.67050       -9.28850
C         -2.27630        0.48380      -10.58060
C         -3.63440        0.40860      -10.85840
C         -4.13050        0.15960      -12.24790
C         -4.53250        0.55940       -9.80400
C         -4.09140        0.73860       -8.50990
C         -1.17280        1.82060       -6.72920
C         -0.04770        1.43660       -6.00590
C          0.99010        2.32920       -5.82890
C          0.93690        3.61090       -6.36750
C          2.07390        4.56340       -6.16020
C         -0.18330        3.97450       -7.10400
C         -1.23180        3.09250       -7.28680
C         -2.70250        0.74060       -4.53010
S         -1.88100        2.06410       -3.77520
C         -2.54170        1.62350       -2.21380
C         -3.41450        0.54880       -2.29780
N         -4.16210        0.06560       -1.23770
C         -4.68270        0.95290       -0.28540
C         -5.11860        2.22220       -0.65690
C         -5.57230        3.10970        0.29770
C         -5.59760        2.76820        1.64380
C         -6.01980        3.76030        2.68350
C         -5.19530        1.48700        2.00290
C         -4.74760        0.58630        1.05720
C         -4.40460       -1.31280       -1.14570
C         -3.40800       -2.22380       -1.48470
C         -3.65440       -3.58060       -1.41210
C         -4.88650       -4.06400       -0.99140
C         -5.15850       -5.53590       -0.93260
C         -5.87250       -3.14640       -0.64570
C         -5.64340       -1.78800       -0.72360
C         -3.48500        0.04700       -3.61790
S         -4.36320       -1.23710       -4.35830
C         -2.11080        2.21130       -0.97450
C         -2.13070        3.50670       -0.50890
C         -2.50470        4.69460       -1.27870
C         -3.41410        5.60700       -0.75070
C         -3.76240        6.72900       -1.47740
C         -3.20610        6.95620       -2.72490
C         -2.27530        6.07140       -3.25290
C         -1.61160        6.33550       -4.57360
C         -0.29860        7.09240       -4.36770
C         -1.92350        4.95190       -2.51400
C         -1.74720        3.56600        0.85080
S         -1.60980        4.88680        1.98560
C         -1.00530        3.78080        3.17560
C         -0.52770        3.78490        4.50090
C         -0.49490        4.75570        5.52900
C         -0.02450        4.38160        6.84050
N         -0.12530        5.37210        7.71170
S         -0.74610        6.66360        6.95780
N         -0.91420        6.01000        5.48720
C          0.54370        3.10050        7.03240
C          1.25560        2.50490        8.08910
S          1.70470        2.84030        9.72540
C          2.60850        1.33950        9.77230
C          3.42840        0.74440       10.74280
C          3.68430        1.28680       12.07050
C          4.91820        1.11420       12.69820
C          5.13520        1.65240       13.95120
C          4.13670        2.36820       14.59020
C          2.90100        2.55070       13.98200
C          1.82460        3.36620       14.63760
C          1.83070        4.79270       14.08420
C          2.68730        2.00700       12.72540
C          3.98760       -0.44020       10.25400
S          3.48790       -0.81360        8.60280
C          2.54510        0.62940        8.56310
C          1.76290        1.28880        7.61310
N          1.36510        1.08580        6.31360
C          0.59650        2.17650        5.95650
C         -0.09730        2.45920        4.76320
N         -0.38310        1.65250        3.67740
C         -0.92630        2.46270        2.71340
C         -1.37600        2.33880        1.39340
S         -1.55190        1.06560        0.24640
C         -0.70370        0.24020        3.72620
C         -2.21410        0.02570        3.80570
C          2.17600        0.28120        5.42110
C          3.58950        0.84900        5.29650
C          4.83820       -1.31500       10.87400
C          5.61730       -2.17340       11.26460
C          6.51890       -3.06720       11.77970
C          7.04740       -4.08750       11.02810
C          6.67810       -4.29630        9.61390
O          5.89700       -3.65160        8.94750
C          7.47420       -5.46630        9.17310
C          7.50530       -6.06900        7.93350
C          8.34410       -7.16250        7.74880
Cl         8.41000       -7.93790        6.21590
C          9.12790       -7.62260        8.80880
Br        10.27130       -9.10920        8.55680
C          9.09640       -7.01530       10.05850
C          8.26150       -5.92600       10.24350
C          8.01470       -5.08460       11.41590
C          8.61170       -5.23340       12.64260
C          8.36810       -4.40680       13.75830
N          8.21450       -3.76520       14.69860
C          9.55480       -6.23550       12.94860
N         10.32590       -7.02920       13.25410
H         -4.75480       -2.36500       -6.87170
H          1.09640       -2.13370       -8.99670
H         -2.69470       -3.98580      -11.79710
H          0.20570       -3.81440      -13.65130
H          0.09530       -6.29060      -13.42090
H         -0.39540       -6.78390      -10.90030
H          1.61550       -5.82140       -9.45750
H          3.34780       -4.73580      -11.08970
H          2.54720       -5.19680      -13.61790
H          2.60410       -6.71350      -12.68520
H          2.16090       -2.87900      -12.25060
H         -0.76180        0.72450       -9.08570
H         -1.56000        0.38260      -11.38300
H         -4.98960        0.78940      -12.46900
H         -3.35070        0.35160      -12.98050
H         -4.44710       -0.87880      -12.35370
H         -5.59400        0.52830      -10.00060
H         -4.80590        0.84750       -7.70780
H          0.00860        0.43130       -5.61930
H          1.86300        2.02540       -5.26970
H          2.23210        4.73870       -5.09700
H          1.87860        5.51640       -6.64440
H          2.99480        4.14870       -6.56820
H         -0.24030        4.96130       -7.54030
H         -2.10070        3.38530       -7.85820
H         -5.09920        2.51400       -1.69660
H         -5.91450        4.08550       -0.01460
H         -5.14270        4.26100        3.09690
H         -6.67020        4.51900        2.25500
H         -6.54100        3.26890        3.50210
H         -5.22610        1.19230        3.04240
H         -4.43340       -0.40500        1.34990
H         -2.43900       -1.86270       -1.79790
H         -2.87200       -4.27530       -1.68150
H         -4.23460       -6.09820       -0.81980
H         -5.64210       -5.86140       -1.85420
H         -5.82200       -5.77510       -0.10450
H         -6.83920       -3.50210       -0.31990
H         -6.42210       -1.08630       -0.46350
H         -3.84860        5.42630        0.22030
H         -4.47300        7.43260       -1.06910
H         -3.48950        7.83310       -3.28930
H         -2.27340        6.92790       -5.20850
H         -1.40580        5.38820       -5.07690
H         -0.48200        8.04210       -3.87000
H          0.37940        6.50840       -3.74990
H          0.18220        7.28830       -5.32300
H         -1.16590        4.28360       -2.89570
H          5.70720        0.57860       12.19350
H          6.09280        1.51790       14.43170
H          4.31800        2.78840       15.56880
H          0.84990        2.91240       14.44740
H          1.98450        3.39470       15.71690
H          2.79020        5.26810       14.27590
H          1.66220        4.78300       13.00980
H          1.04950        5.38550       14.55390
H          1.72150        2.12740       12.25750
H         -0.30840       -0.24010        2.82540
H         -0.24460       -0.20050        4.60990
H         -2.42920       -1.03780        3.86210
H         -2.70730        0.43520        2.92910
H         -2.61500        0.51230        4.69260
H          1.72230        0.27180        4.43250
H          2.21690       -0.73870        5.81560
H          4.10420        0.83340        6.25290
H          4.15890        0.25150        4.59020
H          3.55070        1.87500        4.93630
H          6.81040       -2.92810       12.81250
H          6.89270       -5.69820        7.12710
H          9.71870       -7.40310       10.84880
