
  xtb     02152214313D
 energy: -453.647488504440 gnorm: 0.000504631422 xtb: 6.4.1 (unknown)
286318  0     0  0            999 V2000
    3.0708    1.6101    4.1190 C   0  0  0  0  0  0  0  0  0  0  0  0
    4.2884    1.8131    3.4999 C   0  0  0  0  0  0  0  0  0  0  0  0
    4.6155    3.0031    2.6996 C   0  0  0  0  0  0  0  0  0  0  0  0
    3.8762    3.9244    2.4065 O   0  0  0  0  0  0  0  0  0  0  0  0
    6.0725    2.9220    2.4457 C   0  0  0  0  0  0  0  0  0  0  0  0
    6.8540    3.8249    1.7338 C   0  0  0  0  0  0  0  0  0  0  0  0
    8.1827    3.4761    1.6536 C   0  0  0  0  0  0  0  0  0  0  0  0
    8.7006    2.3231    2.2536 C   0  0  0  0  0  0  0  0  0  0  0  0
    7.9400    1.4268    2.9680 C   0  0  0  0  0  0  0  0  0  0  0  0
    6.5865    1.7573    3.0484 C   0  0  0  0  0  0  0  0  0  0  0  0
    5.4782    1.0402    3.6749 C   0  0  0  0  0  0  0  0  0  0  0  0
    5.5253   -0.2368    4.1891 C   0  0  0  0  0  0  0  0  0  0  0  0
    6.7045   -0.9797    4.3403 C   0  0  0  0  0  0  0  0  0  0  0  0
    7.6410   -1.6280    4.5010 N   0  0  0  0  0  0  0  0  0  0  0  0
    4.3883   -0.9836    4.5459 C   0  0  0  0  0  0  0  0  0  0  0  0
    3.5117   -1.6849    4.7952 N   0  0  0  0  0  0  0  0  0  0  0  0
   10.1040    2.6060    1.7759 C   0  0  0  0  0  0  0  0  0  0  0  0
   10.6398    1.7909    0.5734 C   0  0  0  0  0  0  0  0  0  0  0  0
    9.4330    1.3710   -0.2277 C   0  0  0  0  0  0  0  0  0  0  0  0
    8.9345    2.4558   -0.8056 C   0  0  0  0  0  0  0  0  0  0  0  0
    9.7954    3.6279   -0.4064 C   0  0  0  0  0  0  0  0  0  0  0  0
   11.1643    2.9365   -0.3069 C   0  0  0  0  0  0  0  0  0  0  0  0
    9.5236    3.8866    1.0967 C   0  0  0  0  0  0  0  0  0  0  0  0
    1.8443    2.1152    3.6893 C   0  0  0  0  0  0  0  0  0  0  0  0
    1.3901    2.4786    2.4034 C   0  0  0  0  0  0  0  0  0  0  0  0
    2.0537    2.3387    1.2176 N   0  0  0  0  0  0  0  0  0  0  0  0
    1.6842    3.1832    0.1475 C   0  0  0  0  0  0  0  0  0  0  0  0
    1.4474    2.6471   -1.1136 C   0  0  0  0  0  0  0  0  0  0  0  0
    1.0390    3.4706   -2.1426 C   0  0  0  0  0  0  0  0  0  0  0  0
    0.8524    4.8342   -1.9419 C   0  0  0  0  0  0  0  0  0  0  0  0
    0.3455    5.7009   -3.0526 C   0  0  0  0  0  0  0  0  0  0  0  0
    1.1293    5.3628   -0.6875 C   0  0  0  0  0  0  0  0  0  0  0  0
    1.5461    4.5522    0.3502 C   0  0  0  0  0  0  0  0  0  0  0  0
    3.0607    1.3925    0.9913 C   0  0  0  0  0  0  0  0  0  0  0  0
    2.9762    0.0992    1.5048 C   0  0  0  0  0  0  0  0  0  0  0  0
    4.0065   -0.7951    1.3001 C   0  0  0  0  0  0  0  0  0  0  0  0
    5.1460   -0.4356    0.5859 C   0  0  0  0  0  0  0  0  0  0  0  0
    6.2904   -1.3878    0.4414 C   0  0  0  0  0  0  0  0  0  0  0  0
    5.2001    0.8386    0.0356 C   0  0  0  0  0  0  0  0  0  0  0  0
    4.1735    1.7425    0.2273 C   0  0  0  0  0  0  0  0  0  0  0  0
    0.0519    2.9287    2.4658 C   0  0  0  0  0  0  0  0  0  0  0  0
   -1.0912    3.4335    1.2686 S   0  0  0  0  0  0  0  0  0  0  0  0
   -2.3516    3.5772    2.4916 C   0  0  0  0  0  0  0  0  0  0  0  0
   -1.8710    3.3327    3.7724 C   0  0  0  0  0  0  0  0  0  0  0  0
   -2.5731    3.5351    4.9483 N   0  0  0  0  0  0  0  0  0  0  0  0
   -2.3508    2.6403    6.0117 C   0  0  0  0  0  0  0  0  0  0  0  0
   -2.2390    3.0896    7.3230 C   0  0  0  0  0  0  0  0  0  0  0  0
   -2.0217    2.1869    8.3461 C   0  0  0  0  0  0  0  0  0  0  0  0
   -1.9039    0.8259    8.0935 C   0  0  0  0  0  0  0  0  0  0  0  0
   -1.6499   -0.1541    9.1968 C   0  0  0  0  0  0  0  0  0  0  0  0
   -2.0107    0.3860    6.7794 C   0  0  0  0  0  0  0  0  0  0  0  0
   -2.2333    1.2763    5.7499 C   0  0  0  0  0  0  0  0  0  0  0  0
   -3.4215    4.6432    5.0872 C   0  0  0  0  0  0  0  0  0  0  0  0
   -3.1802    5.8217    4.3845 C   0  0  0  0  0  0  0  0  0  0  0  0
   -4.0384    6.8949    4.5066 C   0  0  0  0  0  0  0  0  0  0  0  0
   -5.1523    6.8373    5.3358 C   0  0  0  0  0  0  0  0  0  0  0  0
   -6.0874    8.0030    5.4422 C   0  0  0  0  0  0  0  0  0  0  0  0
   -5.3782    5.6657    6.0460 C   0  0  0  0  0  0  0  0  0  0  0  0
   -4.5332    4.5806    5.9248 C   0  0  0  0  0  0  0  0  0  0  0  0
   -0.5197    2.9106    3.7311 C   0  0  0  0  0  0  0  0  0  0  0  0
    0.5731    2.2908    4.9128 S   0  0  0  0  0  0  0  0  0  0  0  0
   -3.6719    3.7951    1.9970 C   0  0  0  0  0  0  0  0  0  0  0  0
   -4.8645    3.1988    2.3611 C   0  0  0  0  0  0  0  0  0  0  0  0
   -5.0974    2.2252    3.4719 C   0  0  0  0  0  0  0  0  0  0  0  0
   -4.8123    0.8025    2.9849 C   0  0  0  0  0  0  0  0  0  0  0  0
   -5.8387    3.3834    1.3674 C   0  0  0  0  0  0  0  0  0  0  0  0
   -7.3607    2.5704    1.1179 S   0  0  0  0  0  0  0  0  0  0  0  0
   -7.3231    3.0686   -0.5385 C   0  0  0  0  0  0  0  0  0  0  0  0
   -7.8434    2.5176   -1.7345 C   0  0  0  0  0  0  0  0  0  0  0  0
   -7.1581    3.0631   -2.8192 C   0  0  0  0  0  0  0  0  0  0  0  0
   -6.2020    4.1486   -2.3535 C   0  0  0  0  0  0  0  0  0  0  0  0
   -6.2658    3.9182   -0.8557 C   0  0  0  0  0  0  0  0  0  0  0  0
   -5.4172    4.0912    0.2348 C   0  0  0  0  0  0  0  0  0  0  0  0
   -3.8001    4.6621    0.4575 S   0  0  0  0  0  0  0  0  0  0  0  0
   -4.8406    3.8484   -2.9516 C   0  0  0  0  0  0  0  0  0  0  0  0
   -4.2901    4.6461   -3.9441 C   0  0  0  0  0  0  0  0  0  0  0  0
   -3.1177    4.2700   -4.5718 C   0  0  0  0  0  0  0  0  0  0  0  0
   -2.4767    3.0824   -4.2451 C   0  0  0  0  0  0  0  0  0  0  0  0
   -1.2588    2.6475   -5.0093 C   0  0  0  0  0  0  0  0  0  0  0  0
   -1.6138    2.2742   -6.4491 C   0  0  0  0  0  0  0  0  0  0  0  0
   -3.0169    2.3007   -3.2325 C   0  0  0  0  0  0  0  0  0  0  0  0
   -4.1802    2.6801   -2.5901 C   0  0  0  0  0  0  0  0  0  0  0  0
   -6.6738    5.5571   -2.6436 C   0  0  0  0  0  0  0  0  0  0  0  0
   -6.0205    6.6274   -2.0435 C   0  0  0  0  0  0  0  0  0  0  0  0
   -6.4371    7.9219   -2.2828 C   0  0  0  0  0  0  0  0  0  0  0  0
   -7.5152    8.1806   -3.1211 C   0  0  0  0  0  0  0  0  0  0  0  0
   -7.9360    9.5917   -3.4152 C   0  0  0  0  0  0  0  0  0  0  0  0
   -7.1712   10.1344   -4.6242 C   0  0  0  0  0  0  0  0  0  0  0  0
   -8.1599    7.1073   -3.7196 C   0  0  0  0  0  0  0  0  0  0  0  0
   -7.7472    5.8079   -3.4841 C   0  0  0  0  0  0  0  0  0  0  0  0
   -7.1549    2.1929   -3.9092 C   0  0  0  0  0  0  0  0  0  0  0  0
   -6.1563    2.0907   -5.3389 S   0  0  0  0  0  0  0  0  0  0  0  0
   -6.3381    0.3590   -5.3150 C   0  0  0  0  0  0  0  0  0  0  0  0
   -5.4403   -0.6981   -5.6194 C   0  0  0  0  0  0  0  0  0  0  0  0
   -5.7492   -1.7891   -4.8113 C   0  0  0  0  0  0  0  0  0  0  0  0
   -7.0557   -1.5677   -4.0795 C   0  0  0  0  0  0  0  0  0  0  0  0
   -6.8283   -1.8318   -2.6012 C   0  0  0  0  0  0  0  0  0  0  0  0
   -5.8480   -1.1058   -1.9332 C   0  0  0  0  0  0  0  0  0  0  0  0
   -5.5454   -1.3794   -0.6140 C   0  0  0  0  0  0  0  0  0  0  0  0
   -6.2151   -2.3822    0.0749 C   0  0  0  0  0  0  0  0  0  0  0  0
   -5.8494   -2.7413    1.4855 C   0  0  0  0  0  0  0  0  0  0  0  0
   -5.0124   -4.0211    1.5149 C   0  0  0  0  0  0  0  0  0  0  0  0
   -7.2063   -3.0889   -0.5916 C   0  0  0  0  0  0  0  0  0  0  0  0
   -7.5090   -2.8246   -1.9142 C   0  0  0  0  0  0  0  0  0  0  0  0
   -8.2024   -2.3726   -4.6517 C   0  0  0  0  0  0  0  0  0  0  0  0
   -7.9815   -3.5054   -5.4209 C   0  0  0  0  0  0  0  0  0  0  0  0
   -9.0488   -4.2247   -5.9275 C   0  0  0  0  0  0  0  0  0  0  0  0
  -10.3569   -3.8347   -5.6760 C   0  0  0  0  0  0  0  0  0  0  0  0
  -11.5121   -4.5899   -6.2671 C   0  0  0  0  0  0  0  0  0  0  0  0
  -11.8840   -4.0103   -7.6335 C   0  0  0  0  0  0  0  0  0  0  0  0
  -10.5715   -2.7017   -4.9007 C   0  0  0  0  0  0  0  0  0  0  0  0
   -9.5099   -1.9784   -4.3935 C   0  0  0  0  0  0  0  0  0  0  0  0
   -7.2471   -0.0899   -4.3585 C   0  0  0  0  0  0  0  0  0  0  0  0
   -7.7630    0.9573   -3.6038 C   0  0  0  0  0  0  0  0  0  0  0  0
   -8.5753    0.9758   -2.0609 S   0  0  0  0  0  0  0  0  0  0  0  0
   -4.6253   -2.5818   -4.5815 C   0  0  0  0  0  0  0  0  0  0  0  0
   -3.4939   -2.1460   -5.2816 C   0  0  0  0  0  0  0  0  0  0  0  0
   -3.8420   -0.7625   -6.2889 S   0  0  0  0  0  0  0  0  0  0  0  0
   -2.2736   -2.6572   -4.8119 C   0  0  0  0  0  0  0  0  0  0  0  0
   -0.9525   -2.2593   -5.3833 C   0  0  0  0  0  0  0  0  0  0  0  0
   -0.4964   -3.2511   -6.4549 C   0  0  0  0  0  0  0  0  0  0  0  0
   -2.4775   -3.4680   -3.7106 C   0  0  0  0  0  0  0  0  0  0  0  0
   -4.1858   -3.7042   -3.3433 S   0  0  0  0  0  0  0  0  0  0  0  0
   -1.5112   -3.8284   -2.7194 C   0  0  0  0  0  0  0  0  0  0  0  0
   -0.1868   -4.1238   -2.8459 C   0  0  0  0  0  0  0  0  0  0  0  0
    0.5150   -4.1723   -1.6138 C   0  0  0  0  0  0  0  0  0  0  0  0
    1.8867   -4.4180   -1.4071 C   0  0  0  0  0  0  0  0  0  0  0  0
    2.7970   -4.7358   -2.4874 C   0  0  0  0  0  0  0  0  0  0  0  0
    4.0938   -4.3265   -2.6387 C   0  0  0  0  0  0  0  0  0  0  0  0
    4.7231   -4.8365   -3.7872 C   0  0  0  0  0  0  0  0  0  0  0  0
    3.9126   -5.6622   -4.5109 C   0  0  0  0  0  0  0  0  0  0  0  0
    4.2223   -6.5140   -6.0073 S   0  0  0  0  0  0  0  0  0  0  0  0
    6.0256   -6.8039   -5.9010 C   0  0  0  0  0  0  0  0  0  0  0  0
    6.3931   -7.7077   -4.7415 C   0  0  0  0  0  0  0  0  0  0  0  0
    2.3441   -5.8109   -3.7879 S   0  0  0  0  0  0  0  0  0  0  0  0
    2.3440   -4.3451   -0.0920 C   0  0  0  0  0  0  0  0  0  0  0  0
    1.4967   -4.0436    1.0057 C   0  0  0  0  0  0  0  0  0  0  0  0
    0.1184   -3.7923    0.7999 C   0  0  0  0  0  0  0  0  0  0  0  0
   -0.7685   -3.4325    1.8834 C   0  0  0  0  0  0  0  0  0  0  0  0
   -1.7515   -2.4782    1.8914 C   0  0  0  0  0  0  0  0  0  0  0  0
   -2.4104   -2.3529    3.1237 C   0  0  0  0  0  0  0  0  0  0  0  0
   -1.9473   -3.2294    4.0663 C   0  0  0  0  0  0  0  0  0  0  0  0
   -2.5277   -3.3213    5.7094 S   0  0  0  0  0  0  0  0  0  0  0  0
   -1.4526   -4.5985    6.4517 C   0  0  0  0  0  0  0  0  0  0  0  0
   -1.9037   -6.0046    6.1097 C   0  0  0  0  0  0  0  0  0  0  0  0
   -0.6767   -4.2236    3.4354 S   0  0  0  0  0  0  0  0  0  0  0  0
   -0.3275   -3.8717   -0.5131 C   0  0  0  0  0  0  0  0  0  0  0  0
   -1.9732   -3.6225   -1.0348 S   0  0  0  0  0  0  0  0  0  0  0  0
    2.2139   -4.0221    2.2131 C   0  0  0  0  0  0  0  0  0  0  0  0
    3.5555   -4.3160    2.0847 C   0  0  0  0  0  0  0  0  0  0  0  0
    3.9893   -4.6097    0.4130 S   0  0  0  0  0  0  0  0  0  0  0  0
    4.4120   -4.3628    3.2079 C   0  0  0  0  0  0  0  0  0  0  0  0
    5.7639   -4.5201    3.2785 C   0  0  0  0  0  0  0  0  0  0  0  0
    6.6985   -4.5523    2.1404 C   0  0  0  0  0  0  0  0  0  0  0  0
    6.4270   -4.6607    0.9573 O   0  0  0  0  0  0  0  0  0  0  0  0
    8.0408   -4.3882    2.7132 C   0  0  0  0  0  0  0  0  0  0  0  0
    9.2281   -4.1975    2.0094 C   0  0  0  0  0  0  0  0  0  0  0  0
   10.3220   -3.9843    2.8107 C   0  0  0  0  0  0  0  0  0  0  0  0
   10.2469   -3.9847    4.2106 C   0  0  0  0  0  0  0  0  0  0  0  0
    9.0868   -4.1890    4.9172 C   0  0  0  0  0  0  0  0  0  0  0  0
    7.9539   -4.3765    4.1205 C   0  0  0  0  0  0  0  0  0  0  0  0
    6.5519   -4.5186    4.5006 C   0  0  0  0  0  0  0  0  0  0  0  0
    6.0745   -4.6560    5.7760 C   0  0  0  0  0  0  0  0  0  0  0  0
    4.7235   -4.8677    6.1273 C   0  0  0  0  0  0  0  0  0  0  0  0
    3.6588   -5.0810    6.5024 N   0  0  0  0  0  0  0  0  0  0  0  0
    6.8839   -4.6602    6.9315 C   0  0  0  0  0  0  0  0  0  0  0  0
    7.4768   -4.6810    7.9146 N   0  0  0  0  0  0  0  0  0  0  0  0
   11.7082   -3.6434    4.3665 C   0  0  0  0  0  0  0  0  0  0  0  0
   12.0578   -2.1795    4.7335 C   0  0  0  0  0  0  0  0  0  0  0  0
   10.9222   -1.3286    4.2218 C   0  0  0  0  0  0  0  0  0  0  0  0
   10.9869   -1.3231    2.8972 C   0  0  0  0  0  0  0  0  0  0  0  0
   12.1683   -2.1693    2.4897 C   0  0  0  0  0  0  0  0  0  0  0  0
   13.1206   -1.8872    3.6623 C   0  0  0  0  0  0  0  0  0  0  0  0
   11.7895   -3.6383    2.8075 C   0  0  0  0  0  0  0  0  0  0  0  0
    3.0531    1.0496    5.0473 H   0  0  0  0  0  0  0  0  0  0  0  0
    6.4196    4.7075    1.2904 H   0  0  0  0  0  0  0  0  0  0  0  0
    8.3533    0.5480    3.4351 H   0  0  0  0  0  0  0  0  0  0  0  0
   10.8536    2.7367    2.5540 H   0  0  0  0  0  0  0  0  0  0  0  0
   11.3417    1.0046    0.8385 H   0  0  0  0  0  0  0  0  0  0  0  0
    9.0434    0.3696   -0.2425 H   0  0  0  0  0  0  0  0  0  0  0  0
    8.0471    2.5457   -1.4052 H   0  0  0  0  0  0  0  0  0  0  0  0
    9.7250    4.5107   -1.0367 H   0  0  0  0  0  0  0  0  0  0  0  0
   11.5342    2.5921   -1.2718 H   0  0  0  0  0  0  0  0  0  0  0  0
   11.9234    3.5456    0.1817 H   0  0  0  0  0  0  0  0  0  0  0  0
    9.9023    4.8533    1.4235 H   0  0  0  0  0  0  0  0  0  0  0  0
    1.5741    1.5861   -1.2749 H   0  0  0  0  0  0  0  0  0  0  0  0
    0.8495    3.0455   -3.1158 H   0  0  0  0  0  0  0  0  0  0  0  0
   -0.7189    5.5167   -3.2037 H   0  0  0  0  0  0  0  0  0  0  0  0
    0.8621    5.4787   -3.9846 H   0  0  0  0  0  0  0  0  0  0  0  0
    0.4812    6.7536   -2.8188 H   0  0  0  0  0  0  0  0  0  0  0  0
    1.0168    6.4236   -0.5181 H   0  0  0  0  0  0  0  0  0  0  0  0
    1.7842    4.9651    1.3182 H   0  0  0  0  0  0  0  0  0  0  0  0
    2.1068   -0.2025    2.0704 H   0  0  0  0  0  0  0  0  0  0  0  0
    3.9309   -1.7887    1.7150 H   0  0  0  0  0  0  0  0  0  0  0  0
    5.9407   -2.4053    0.2809 H   0  0  0  0  0  0  0  0  0  0  0  0
    6.9315   -1.0988   -0.3881 H   0  0  0  0  0  0  0  0  0  0  0  0
    6.8920   -1.3887    1.3532 H   0  0  0  0  0  0  0  0  0  0  0  0
    6.0695    1.1361   -0.5322 H   0  0  0  0  0  0  0  0  0  0  0  0
    4.2332    2.7347   -0.1946 H   0  0  0  0  0  0  0  0  0  0  0  0
   -2.3193    4.1457    7.5342 H   0  0  0  0  0  0  0  0  0  0  0  0
   -1.9354    2.5513    9.3597 H   0  0  0  0  0  0  0  0  0  0  0  0
   -0.6116   -0.4853    9.1683 H   0  0  0  0  0  0  0  0  0  0  0  0
   -2.2821   -1.0323    9.0796 H   0  0  0  0  0  0  0  0  0  0  0  0
   -1.8400    0.2924   10.1695 H   0  0  0  0  0  0  0  0  0  0  0  0
   -1.9301   -0.6680    6.5599 H   0  0  0  0  0  0  0  0  0  0  0  0
   -2.3208    0.9168    4.7353 H   0  0  0  0  0  0  0  0  0  0  0  0
   -2.3121    5.9009    3.7473 H   0  0  0  0  0  0  0  0  0  0  0  0
   -3.8341    7.7993    3.9517 H   0  0  0  0  0  0  0  0  0  0  0  0
   -6.6820    7.9429    6.3503 H   0  0  0  0  0  0  0  0  0  0  0  0
   -6.7680    8.0151    4.5900 H   0  0  0  0  0  0  0  0  0  0  0  0
   -5.5365    8.9413    5.4424 H   0  0  0  0  0  0  0  0  0  0  0  0
   -6.2349    5.5947    6.7006 H   0  0  0  0  0  0  0  0  0  0  0  0
   -4.7348    3.6776    6.4824 H   0  0  0  0  0  0  0  0  0  0  0  0
   -6.1420    2.2963    3.7820 H   0  0  0  0  0  0  0  0  0  0  0  0
   -4.4691    2.4411    4.3285 H   0  0  0  0  0  0  0  0  0  0  0  0
   -4.9594    0.0981    3.8008 H   0  0  0  0  0  0  0  0  0  0  0  0
   -5.4829    0.5380    2.1699 H   0  0  0  0  0  0  0  0  0  0  0  0
   -3.7860    0.7266    2.6286 H   0  0  0  0  0  0  0  0  0  0  0  0
   -4.7859    5.5579   -4.2411 H   0  0  0  0  0  0  0  0  0  0  0  0
   -2.7062    4.9037   -5.3446 H   0  0  0  0  0  0  0  0  0  0  0  0
   -0.8036    1.7866   -4.5152 H   0  0  0  0  0  0  0  0  0  0  0  0
   -0.5301    3.4616   -5.0289 H   0  0  0  0  0  0  0  0  0  0  0  0
   -0.7272    1.9392   -6.9832 H   0  0  0  0  0  0  0  0  0  0  0  0
   -2.0317    3.1287   -6.9749 H   0  0  0  0  0  0  0  0  0  0  0  0
   -2.3504    1.4753   -6.4629 H   0  0  0  0  0  0  0  0  0  0  0  0
   -2.5303    1.3770   -2.9515 H   0  0  0  0  0  0  0  0  0  0  0  0
   -4.5958    2.0511   -1.8143 H   0  0  0  0  0  0  0  0  0  0  0  0
   -5.1775    6.4414   -1.3936 H   0  0  0  0  0  0  0  0  0  0  0  0
   -5.9206    8.7445   -1.8091 H   0  0  0  0  0  0  0  0  0  0  0  0
   -7.7365   10.2257   -2.5489 H   0  0  0  0  0  0  0  0  0  0  0  0
   -9.0074    9.6236   -3.6230 H   0  0  0  0  0  0  0  0  0  0  0  0
   -6.1007   10.1197   -4.4317 H   0  0  0  0  0  0  0  0  0  0  0  0
   -7.3690    9.5231   -5.5019 H   0  0  0  0  0  0  0  0  0  0  0  0
   -7.4722   11.1573   -4.8379 H   0  0  0  0  0  0  0  0  0  0  0  0
   -8.9983    7.2878   -4.3772 H   0  0  0  0  0  0  0  0  0  0  0  0
   -8.2622    4.9859   -3.9596 H   0  0  0  0  0  0  0  0  0  0  0  0
   -5.3071   -0.3297   -2.4593 H   0  0  0  0  0  0  0  0  0  0  0  0
   -4.7703   -0.8133   -0.1164 H   0  0  0  0  0  0  0  0  0  0  0  0
   -5.2783   -1.9306    1.9384 H   0  0  0  0  0  0  0  0  0  0  0  0
   -6.7569   -2.8918    2.0749 H   0  0  0  0  0  0  0  0  0  0  0  0
   -4.1036   -3.8899    0.9320 H   0  0  0  0  0  0  0  0  0  0  0  0
   -5.5713   -4.8527    1.0930 H   0  0  0  0  0  0  0  0  0  0  0  0
   -4.7363   -4.2677    2.5376 H   0  0  0  0  0  0  0  0  0  0  0  0
   -7.7460   -3.8670   -0.0713 H   0  0  0  0  0  0  0  0  0  0  0  0
   -8.2726   -3.4018   -2.4132 H   0  0  0  0  0  0  0  0  0  0  0  0
   -6.9721   -3.8326   -5.6222 H   0  0  0  0  0  0  0  0  0  0  0  0
   -8.8602   -5.1058   -6.5243 H   0  0  0  0  0  0  0  0  0  0  0  0
  -12.3758   -4.5259   -5.6021 H   0  0  0  0  0  0  0  0  0  0  0  0
  -11.2466   -5.6427   -6.3829 H   0  0  0  0  0  0  0  0  0  0  0  0
  -12.1622   -2.9631   -7.5367 H   0  0  0  0  0  0  0  0  0  0  0  0
  -12.7215   -4.5546   -8.0634 H   0  0  0  0  0  0  0  0  0  0  0  0
  -11.0388   -4.0772   -8.3150 H   0  0  0  0  0  0  0  0  0  0  0  0
  -11.5825   -2.3841   -4.6888 H   0  0  0  0  0  0  0  0  0  0  0  0
   -9.6956   -1.1078   -3.7814 H   0  0  0  0  0  0  0  0  0  0  0  0
   -1.0541   -1.2682   -5.8327 H   0  0  0  0  0  0  0  0  0  0  0  0
   -0.2078   -2.2070   -4.5863 H   0  0  0  0  0  0  0  0  0  0  0  0
   -0.4171   -4.2546   -6.0432 H   0  0  0  0  0  0  0  0  0  0  0  0
   -1.2110   -3.2740   -7.2744 H   0  0  0  0  0  0  0  0  0  0  0  0
    0.4738   -2.9593   -6.8489 H   0  0  0  0  0  0  0  0  0  0  0  0
    0.2776   -4.3162   -3.7936 H   0  0  0  0  0  0  0  0  0  0  0  0
    4.5799   -3.6434   -1.9667 H   0  0  0  0  0  0  0  0  0  0  0  0
    5.7336   -4.5930   -4.0595 H   0  0  0  0  0  0  0  0  0  0  0  0
    6.2700   -7.2670   -6.8566 H   0  0  0  0  0  0  0  0  0  0  0  0
    6.5206   -5.8357   -5.8406 H   0  0  0  0  0  0  0  0  0  0  0  0
    6.1192   -7.2499   -3.7931 H   0  0  0  0  0  0  0  0  0  0  0  0
    7.4661   -7.8890   -4.7418 H   0  0  0  0  0  0  0  0  0  0  0  0
    5.8778   -8.6615   -4.8274 H   0  0  0  0  0  0  0  0  0  0  0  0
   -1.9654   -1.8528    1.0433 H   0  0  0  0  0  0  0  0  0  0  0  0
   -3.1935   -1.6467    3.3256 H   0  0  0  0  0  0  0  0  0  0  0  0
   -0.4332   -4.4042    6.1187 H   0  0  0  0  0  0  0  0  0  0  0  0
   -1.5199   -4.4163    7.5241 H   0  0  0  0  0  0  0  0  0  0  0  0
   -2.9226   -6.1721    6.4524 H   0  0  0  0  0  0  0  0  0  0  0  0
   -1.2475   -6.7230    6.5957 H   0  0  0  0  0  0  0  0  0  0  0  0
   -1.8646   -6.1757    5.0363 H   0  0  0  0  0  0  0  0  0  0  0  0
    1.7924   -3.7782    3.1710 H   0  0  0  0  0  0  0  0  0  0  0  0
    3.8834   -4.2069    4.1410 H   0  0  0  0  0  0  0  0  0  0  0  0
    9.2388   -4.2008    0.9302 H   0  0  0  0  0  0  0  0  0  0  0  0
    9.0412   -4.1633    5.9926 H   0  0  0  0  0  0  0  0  0  0  0  0
   12.3173   -4.3652    4.9070 H   0  0  0  0  0  0  0  0  0  0  0  0
   12.3395   -2.0302    5.7724 H   0  0  0  0  0  0  0  0  0  0  0  0
   10.1687   -0.8958    4.8523 H   0  0  0  0  0  0  0  0  0  0  0  0
   10.2995   -0.8766    2.2027 H   0  0  0  0  0  0  0  0  0  0  0  0
   12.5519   -2.0104    1.4843 H   0  0  0  0  0  0  0  0  0  0  0  0
   13.9736   -2.5637    3.7010 H   0  0  0  0  0  0  0  0  0  0  0  0
   13.4693   -0.8553    3.6849 H   0  0  0  0  0  0  0  0  0  0  0  0
   12.4561   -4.3526    2.3276 H   0  0  0  0  0  0  0  0  0  0  0  0
  1  2  2  0  0  0  0
  2  3  1  0  0  0  0
  3  4  2  0  0  0  0
  3  5  1  0  0  0  0
  5  6  2  0  0  0  0
  6  7  1  0  0  0  0
  7  8  2  0  0  0  0
  8  9  1  0  0  0  0
  9 10  2  0  0  0  0
 10 11  1  0  0  0  0
 11 12  2  0  0  0  0
 12 13  1  0  0  0  0
 13 14  3  0  0  0  0
 12 15  1  0  0  0  0
 15 16  3  0  0  0  0
  8 17  1  0  0  0  0
 17 18  1  0  0  0  0
 18 19  1  0  0  0  0
 19 20  2  0  0  0  0
 20 21  1  0  0  0  0
 21 22  1  0  0  0  0
 21 23  1  0  0  0  0
  1 24  1  0  0  0  0
 24 25  2  0  0  0  0
 25 26  1  0  0  0  0
 26 27  1  0  0  0  0
 27 28  2  0  0  0  0
 28 29  1  0  0  0  0
 29 30  2  0  0  0  0
 30 31  1  0  0  0  0
 30 32  1  0  0  0  0
 32 33  2  0  0  0  0
 26 34  1  0  0  0  0
 34 35  2  0  0  0  0
 35 36  1  0  0  0  0
 36 37  2  0  0  0  0
 37 38  1  0  0  0  0
 37 39  1  0  0  0  0
 39 40  2  0  0  0  0
 25 41  1  0  0  0  0
 41 42  1  0  0  0  0
 42 43  1  0  0  0  0
 43 44  2  0  0  0  0
 44 45  1  0  0  0  0
 45 46  1  0  0  0  0
 46 47  2  0  0  0  0
 47 48  1  0  0  0  0
 48 49  2  0  0  0  0
 49 50  1  0  0  0  0
 49 51  1  0  0  0  0
 51 52  2  0  0  0  0
 45 53  1  0  0  0  0
 53 54  2  0  0  0  0
 54 55  1  0  0  0  0
 55 56  2  0  0  0  0
 56 57  1  0  0  0  0
 56 58  1  0  0  0  0
 58 59  2  0  0  0  0
 44 60  1  0  0  0  0
 60 61  1  0  0  0  0
 43 62  1  0  0  0  0
 62 63  2  0  0  0  0
 63 64  1  0  0  0  0
 64 65  1  0  0  0  0
 63 66  1  0  0  0  0
 66 67  1  0  0  0  0
 67 68  1  0  0  0  0
 68 69  1  0  0  0  0
 69 70  2  0  0  0  0
 70 71  1  0  0  0  0
 71 72  1  0  0  0  0
 72 73  1  0  0  0  0
 73 74  1  0  0  0  0
 71 75  1  0  0  0  0
 75 76  2  0  0  0  0
 76 77  1  0  0  0  0
 77 78  2  0  0  0  0
 78 79  1  0  0  0  0
 79 80  1  0  0  0  0
 78 81  1  0  0  0  0
 81 82  2  0  0  0  0
 71 83  1  0  0  0  0
 83 84  2  0  0  0  0
 84 85  1  0  0  0  0
 85 86  2  0  0  0  0
 86 87  1  0  0  0  0
 87 88  1  0  0  0  0
 86 89  1  0  0  0  0
 89 90  2  0  0  0  0
 70 91  1  0  0  0  0
 91 92  1  0  0  0  0
 92 93  1  0  0  0  0
 93 94  1  0  0  0  0
 94 95  2  0  0  0  0
 95 96  1  0  0  0  0
 96 97  1  0  0  0  0
 97 98  2  0  0  0  0
 98 99  1  0  0  0  0
 99100  2  0  0  0  0
100101  1  0  0  0  0
101102  1  0  0  0  0
100103  1  0  0  0  0
103104  2  0  0  0  0
 96105  1  0  0  0  0
105106  2  0  0  0  0
106107  1  0  0  0  0
107108  2  0  0  0  0
108109  1  0  0  0  0
109110  1  0  0  0  0
108111  1  0  0  0  0
111112  2  0  0  0  0
 96113  1  0  0  0  0
113114  1  0  0  0  0
114115  1  0  0  0  0
 95116  1  0  0  0  0
116117  2  0  0  0  0
117118  1  0  0  0  0
117119  1  0  0  0  0
119120  1  0  0  0  0
120121  1  0  0  0  0
119122  2  0  0  0  0
122123  1  0  0  0  0
122124  1  0  0  0  0
124125  2  0  0  0  0
125126  1  0  0  0  0
126127  2  0  0  0  0
127128  1  0  0  0  0
128129  2  0  0  0  0
129130  1  0  0  0  0
130131  2  0  0  0  0
131132  1  0  0  0  0
132133  1  0  0  0  0
133134  1  0  0  0  0
131135  1  0  0  0  0
127136  1  0  0  0  0
136137  2  0  0  0  0
137138  1  0  0  0  0
138139  1  0  0  0  0
139140  2  0  0  0  0
140141  1  0  0  0  0
141142  2  0  0  0  0
142143  1  0  0  0  0
143144  1  0  0  0  0
144145  1  0  0  0  0
142146  1  0  0  0  0
138147  2  0  0  0  0
147148  1  0  0  0  0
137149  1  0  0  0  0
149150  2  0  0  0  0
150151  1  0  0  0  0
150152  1  0  0  0  0
152153  2  0  0  0  0
153154  1  0  0  0  0
154155  2  0  0  0  0
154156  1  0  0  0  0
156157  2  0  0  0  0
157158  1  0  0  0  0
158159  2  0  0  0  0
159160  1  0  0  0  0
160161  2  0  0  0  0
161162  1  0  0  0  0
162163  2  0  0  0  0
163164  1  0  0  0  0
164165  3  0  0  0  0
163166  1  0  0  0  0
166167  3  0  0  0  0
159168  1  0  0  0  0
168169  1  0  0  0  0
169170  1  0  0  0  0
170171  2  0  0  0  0
171172  1  0  0  0  0
172173  1  0  0  0  0
172174  1  0  0  0  0
 11  2  1  0  0  0  0
 23 17  1  0  0  0  0
 61 24  1  0  0  0  0
 74 62  1  0  0  0  0
 82 75  1  0  0  0  0
 90 83  1  0  0  0  0
114 91  2  0  0  0  0
123116  1  0  0  0  0
148124  1  0  0  0  0
162153  1  0  0  0  0
174168  1  0  0  0  0
 10  5  1  0  0  0  0
 22 18  1  0  0  0  0
 33 27  1  0  0  0  0
 40 34  1  0  0  0  0
 60 41  2  0  0  0  0
 73 66  2  0  0  0  0
113 93  2  0  0  0  0
147126  1  0  0  0  0
161156  1  0  0  0  0
173169  1  0  0  0  0
 23  7  1  0  0  0  0
 52 46  1  0  0  0  0
 59 53  1  0  0  0  0
 72 68  2  0  0  0  0
118 94  1  0  0  0  0
135128  1  0  0  0  0
151136  1  0  0  0  0
174158  1  0  0  0  0
115 69  1  0  0  0  0
146139  1  0  0  0  0
104 97  1  0  0  0  0
112105  1  0  0  0  0
  1175  1  0  0  0  0
  6176  1  0  0  0  0
  9177  1  0  0  0  0
 17178  1  0  0  0  0
 18179  1  0  0  0  0
 19180  1  0  0  0  0
 20181  1  0  0  0  0
 21182  1  0  0  0  0
 22183  1  0  0  0  0
 22184  1  0  0  0  0
 23185  1  0  0  0  0
 28186  1  0  0  0  0
 29187  1  0  0  0  0
 31188  1  0  0  0  0
 31189  1  0  0  0  0
 31190  1  0  0  0  0
 32191  1  0  0  0  0
 33192  1  0  0  0  0
 35193  1  0  0  0  0
 36194  1  0  0  0  0
 38195  1  0  0  0  0
 38196  1  0  0  0  0
 38197  1  0  0  0  0
 39198  1  0  0  0  0
 40199  1  0  0  0  0
 47200  1  0  0  0  0
 48201  1  0  0  0  0
 50202  1  0  0  0  0
 50203  1  0  0  0  0
 50204  1  0  0  0  0
 51205  1  0  0  0  0
 52206  1  0  0  0  0
 54207  1  0  0  0  0
 55208  1  0  0  0  0
 57209  1  0  0  0  0
 57210  1  0  0  0  0
 57211  1  0  0  0  0
 58212  1  0  0  0  0
 59213  1  0  0  0  0
 64214  1  0  0  0  0
 64215  1  0  0  0  0
 65216  1  0  0  0  0
 65217  1  0  0  0  0
 65218  1  0  0  0  0
 76219  1  0  0  0  0
 77220  1  0  0  0  0
 79221  1  0  0  0  0
 79222  1  0  0  0  0
 80223  1  0  0  0  0
 80224  1  0  0  0  0
 80225  1  0  0  0  0
 81226  1  0  0  0  0
 82227  1  0  0  0  0
 84228  1  0  0  0  0
 85229  1  0  0  0  0
 87230  1  0  0  0  0
 87231  1  0  0  0  0
 88232  1  0  0  0  0
 88233  1  0  0  0  0
 88234  1  0  0  0  0
 89235  1  0  0  0  0
 90236  1  0  0  0  0
 98237  1  0  0  0  0
 99238  1  0  0  0  0
101239  1  0  0  0  0
101240  1  0  0  0  0
102241  1  0  0  0  0
102242  1  0  0  0  0
102243  1  0  0  0  0
103244  1  0  0  0  0
104245  1  0  0  0  0
106246  1  0  0  0  0
107247  1  0  0  0  0
109248  1  0  0  0  0
109249  1  0  0  0  0
110250  1  0  0  0  0
110251  1  0  0  0  0
110252  1  0  0  0  0
111253  1  0  0  0  0
112254  1  0  0  0  0
120255  1  0  0  0  0
120256  1  0  0  0  0
121257  1  0  0  0  0
121258  1  0  0  0  0
121259  1  0  0  0  0
125260  1  0  0  0  0
129261  1  0  0  0  0
130262  1  0  0  0  0
133263  1  0  0  0  0
133264  1  0  0  0  0
134265  1  0  0  0  0
134266  1  0  0  0  0
134267  1  0  0  0  0
140268  1  0  0  0  0
141269  1  0  0  0  0
144270  1  0  0  0  0
144271  1  0  0  0  0
145272  1  0  0  0  0
145273  1  0  0  0  0
145274  1  0  0  0  0
149275  1  0  0  0  0
152276  1  0  0  0  0
157277  1  0  0  0  0
160278  1  0  0  0  0
168279  1  0  0  0  0
169280  1  0  0  0  0
170281  1  0  0  0  0
171282  1  0  0  0  0
172283  1  0  0  0  0
173284  1  0  0  0  0
173285  1  0  0  0  0
174286  1  0  0  0  0
M  END
