
  xtb     02192220183D
 energy: -362.893987706819 gnorm: 0.000359980731 xtb: 6.4.1 (unknown)
223249  0     0  0            999 V2000
   -4.3939   -5.2935    7.9702 C   0  0  0  0  0  0  0  0  0  0  0  0
   -5.7320   -4.9704    7.9703 C   0  0  0  0  0  0  0  0  0  0  0  0
   -6.4137   -4.0715    7.0367 C   0  0  0  0  0  0  0  0  0  0  0  0
   -5.9151   -3.3233    6.2123 O   0  0  0  0  0  0  0  0  0  0  0  0
   -7.8588   -4.2557    7.2697 C   0  0  0  0  0  0  0  0  0  0  0  0
   -8.9043   -3.6328    6.5928 C   0  0  0  0  0  0  0  0  0  0  0  0
  -10.1536   -4.0112    7.0229 C   0  0  0  0  0  0  0  0  0  0  0  0
  -10.3481   -4.9406    8.0521 C   0  0  0  0  0  0  0  0  0  0  0  0
   -9.3248   -5.5606    8.7301 C   0  0  0  0  0  0  0  0  0  0  0  0
   -8.0454   -5.1903    8.3070 C   0  0  0  0  0  0  0  0  0  0  0  0
   -6.7308   -5.6139    8.7898 C   0  0  0  0  0  0  0  0  0  0  0  0
   -6.5095   -6.4587    9.8515 C   0  0  0  0  0  0  0  0  0  0  0  0
   -7.5212   -7.1435   10.5519 C   0  0  0  0  0  0  0  0  0  0  0  0
   -8.2874   -7.7547   11.1519 N   0  0  0  0  0  0  0  0  0  0  0  0
   -5.2535   -6.7448   10.4191 C   0  0  0  0  0  0  0  0  0  0  0  0
   -4.2790   -7.0046   10.9717 N   0  0  0  0  0  0  0  0  0  0  0  0
  -11.8512   -4.8395    7.9686 C   0  0  0  0  0  0  0  0  0  0  0  0
  -12.5470   -3.9990    9.0600 C   0  0  0  0  0  0  0  0  0  0  0  0
  -13.9009   -3.6848    8.4658 C   0  0  0  0  0  0  0  0  0  0  0  0
  -13.7185   -2.8056    7.4889 C   0  0  0  0  0  0  0  0  0  0  0  0
  -12.2382   -2.5103    7.4070 C   0  0  0  0  0  0  0  0  0  0  0  0
  -11.8612   -2.6373    8.8886 C   0  0  0  0  0  0  0  0  0  0  0  0
  -11.6344   -3.8033    6.8195 C   0  0  0  0  0  0  0  0  0  0  0  0
   -3.3464   -4.8128    7.1861 C   0  0  0  0  0  0  0  0  0  0  0  0
   -2.0406   -5.3658    7.1971 C   0  0  0  0  0  0  0  0  0  0  0  0
   -1.6642   -6.5131    7.8470 N   0  0  0  0  0  0  0  0  0  0  0  0
   -0.3618   -6.6093    8.3699 C   0  0  0  0  0  0  0  0  0  0  0  0
    0.3524   -7.8006    8.2728 C   0  0  0  0  0  0  0  0  0  0  0  0
    1.6066   -7.9024    8.8381 C   0  0  0  0  0  0  0  0  0  0  0  0
    2.1862   -6.8267    9.5027 C   0  0  0  0  0  0  0  0  0  0  0  0
    3.5230   -6.9745   10.1620 C   0  0  0  0  0  0  0  0  0  0  0  0
    1.4790   -5.6332    9.5683 C   0  0  0  0  0  0  0  0  0  0  0  0
    0.2182   -5.5213    9.0164 C   0  0  0  0  0  0  0  0  0  0  0  0
   -2.5231   -7.6234    7.9560 C   0  0  0  0  0  0  0  0  0  0  0  0
   -3.3693   -7.9673    6.9043 C   0  0  0  0  0  0  0  0  0  0  0  0
   -4.2409   -9.0294    7.0370 C   0  0  0  0  0  0  0  0  0  0  0  0
   -4.2772   -9.7873    8.2017 C   0  0  0  0  0  0  0  0  0  0  0  0
   -5.2465  -10.9170    8.3657 C   0  0  0  0  0  0  0  0  0  0  0  0
   -3.3960   -9.4641    9.2270 C   0  0  0  0  0  0  0  0  0  0  0  0
   -2.5309   -8.3941    9.1160 C   0  0  0  0  0  0  0  0  0  0  0  0
   -1.1660   -4.5957    6.4123 C   0  0  0  0  0  0  0  0  0  0  0  0
    0.5125   -4.7259    5.9972 S   0  0  0  0  0  0  0  0  0  0  0  0
    0.3774   -3.3219    4.9498 C   0  0  0  0  0  0  0  0  0  0  0  0
   -0.8898   -2.7516    4.9822 C   0  0  0  0  0  0  0  0  0  0  0  0
   -1.2743   -1.5766    4.3577 N   0  0  0  0  0  0  0  0  0  0  0  0
   -0.4114   -0.4879    4.2062 C   0  0  0  0  0  0  0  0  0  0  0  0
    0.5843   -0.2096    5.1422 C   0  0  0  0  0  0  0  0  0  0  0  0
    1.4903    0.8051    4.9090 C   0  0  0  0  0  0  0  0  0  0  0  0
    1.4336    1.5766    3.7539 C   0  0  0  0  0  0  0  0  0  0  0  0
    2.4700    2.6253    3.4889 C   0  0  0  0  0  0  0  0  0  0  0  0
    0.4030    1.3321    2.8555 C   0  0  0  0  0  0  0  0  0  0  0  0
   -0.5092    0.3196    3.0729 C   0  0  0  0  0  0  0  0  0  0  0  0
   -2.6114   -1.4778    3.9259 C   0  0  0  0  0  0  0  0  0  0  0  0
   -3.2036   -2.5375    3.2446 C   0  0  0  0  0  0  0  0  0  0  0  0
   -4.5347   -2.4726    2.8883 C   0  0  0  0  0  0  0  0  0  0  0  0
   -5.3025   -1.3546    3.1909 C   0  0  0  0  0  0  0  0  0  0  0  0
   -6.7607   -1.3291    2.8532 C   0  0  0  0  0  0  0  0  0  0  0  0
   -4.6923   -0.2869    3.8358 C   0  0  0  0  0  0  0  0  0  0  0  0
   -3.3624   -0.3415    4.2036 C   0  0  0  0  0  0  0  0  0  0  0  0
   -1.7683   -3.5040    5.8006 C   0  0  0  0  0  0  0  0  0  0  0  0
   -3.4573   -3.3978    6.1370 S   0  0  0  0  0  0  0  0  0  0  0  0
    1.4836   -2.8282    4.1872 C   0  0  0  0  0  0  0  0  0  0  0  0
    2.7553   -2.4976    4.6040 C   0  0  0  0  0  0  0  0  0  0  0  0
    3.3396   -2.8486    5.9018 C   0  0  0  0  0  0  0  0  0  0  0  0
    3.4924   -4.1820    6.2652 C   0  0  0  0  0  0  0  0  0  0  0  0
    4.0710   -4.5024    7.4786 C   0  0  0  0  0  0  0  0  0  0  0  0
    4.4964   -3.5011    8.3325 C   0  0  0  0  0  0  0  0  0  0  0  0
    4.3654   -2.1639    7.9778 C   0  0  0  0  0  0  0  0  0  0  0  0
    4.7951   -1.0737    8.9171 C   0  0  0  0  0  0  0  0  0  0  0  0
    3.6445   -0.6890    9.8496 C   0  0  0  0  0  0  0  0  0  0  0  0
    3.7889   -1.8498    6.7568 C   0  0  0  0  0  0  0  0  0  0  0  0
    3.4242   -1.7185    3.6373 C   0  0  0  0  0  0  0  0  0  0  0  0
    4.9595   -0.8856    3.6508 S   0  0  0  0  0  0  0  0  0  0  0  0
    4.5841   -0.2189    2.0951 C   0  0  0  0  0  0  0  0  0  0  0  0
    5.1418    0.6428    1.1355 C   0  0  0  0  0  0  0  0  0  0  0  0
    6.4161    1.2454    1.0549 C   0  0  0  0  0  0  0  0  0  0  0  0
    6.7696    1.9667   -0.1346 C   0  0  0  0  0  0  0  0  0  0  0  0
    8.0119    2.4223   -0.0997 N   0  0  0  0  0  0  0  0  0  0  0  0
    8.6779    1.9882    1.3110 S   0  0  0  0  0  0  0  0  0  0  0  0
    7.4070    1.1997    1.9316 N   0  0  0  0  0  0  0  0  0  0  0  0
    5.7922    2.1527   -1.1362 C   0  0  0  0  0  0  0  0  0  0  0  0
    5.8208    2.8879   -2.3326 C   0  0  0  0  0  0  0  0  0  0  0  0
    6.9379    3.8055   -3.2860 S   0  0  0  0  0  0  0  0  0  0  0  0
    5.6534    4.1352   -4.4240 C   0  0  0  0  0  0  0  0  0  0  0  0
    5.6285    4.8319   -5.6450 C   0  0  0  0  0  0  0  0  0  0  0  0
    6.8263    5.4598   -6.2144 C   0  0  0  0  0  0  0  0  0  0  0  0
    7.4977    6.4431   -5.4968 C   0  0  0  0  0  0  0  0  0  0  0  0
    8.6433    7.0115   -6.0213 C   0  0  0  0  0  0  0  0  0  0  0  0
    9.1280    6.5974   -7.2490 C   0  0  0  0  0  0  0  0  0  0  0  0
    8.4778    5.6033   -7.9695 C   0  0  0  0  0  0  0  0  0  0  0  0
    9.0323    5.1118   -9.2750 C   0  0  0  0  0  0  0  0  0  0  0  0
    9.9995    3.9497   -9.0403 C   0  0  0  0  0  0  0  0  0  0  0  0
    7.3293    5.0360   -7.4389 C   0  0  0  0  0  0  0  0  0  0  0  0
    4.3660    4.8192   -6.2118 C   0  0  0  0  0  0  0  0  0  0  0  0
    3.2100    3.9147   -5.2300 S   0  0  0  0  0  0  0  0  0  0  0  0
    4.4315    3.5627   -4.0617 C   0  0  0  0  0  0  0  0  0  0  0  0
    4.5309    2.8409   -2.8680 C   0  0  0  0  0  0  0  0  0  0  0  0
    3.7148    2.0835   -2.0699 N   0  0  0  0  0  0  0  0  0  0  0  0
    4.4750    1.6308   -1.0024 C   0  0  0  0  0  0  0  0  0  0  0  0
    4.1867    0.7679    0.0869 C   0  0  0  0  0  0  0  0  0  0  0  0
    3.0982   -0.0328    0.3937 N   0  0  0  0  0  0  0  0  0  0  0  0
    3.3467   -0.6306    1.5970 C   0  0  0  0  0  0  0  0  0  0  0  0
    2.6875   -1.4981    2.4756 C   0  0  0  0  0  0  0  0  0  0  0  0
    1.1686   -2.3123    2.5318 S   0  0  0  0  0  0  0  0  0  0  0  0
    2.0387   -0.5385   -0.4482 C   0  0  0  0  0  0  0  0  0  0  0  0
    2.5900   -1.2739   -1.6670 C   0  0  0  0  0  0  0  0  0  0  0  0
    2.2798    2.2202   -2.1862 C   0  0  0  0  0  0  0  0  0  0  0  0
    1.6890    2.9482   -0.9814 C   0  0  0  0  0  0  0  0  0  0  0  0
    3.8749    5.4519   -7.3829 C   0  0  0  0  0  0  0  0  0  0  0  0
    2.5607    5.4244   -7.8115 C   0  0  0  0  0  0  0  0  0  0  0  0
    2.3330    6.1268   -9.0012 C   0  0  0  0  0  0  0  0  0  0  0  0
    1.1571    6.3930   -9.5755 O   0  0  0  0  0  0  0  0  0  0  0  0
   -0.0120    5.7560   -9.0903 C   0  0  0  0  0  0  0  0  0  0  0  0
   -0.0711    4.2806   -9.4681 C   0  0  0  0  0  0  0  0  0  0  0  0
    3.5079    6.6985   -9.5181 C   0  0  0  0  0  0  0  0  0  0  0  0
    4.8584    6.4039   -8.4437 S   0  0  0  0  0  0  0  0  0  0  0  0
    3.7088    7.4852  -10.6623 C   0  0  0  0  0  0  0  0  0  0  0  0
    2.9787    7.4470  -11.8237 C   0  0  0  0  0  0  0  0  0  0  0  0
    2.1627    6.3026  -12.2733 C   0  0  0  0  0  0  0  0  0  0  0  0
    1.9883    5.2406  -11.7094 O   0  0  0  0  0  0  0  0  0  0  0  0
    1.7128    6.6420  -13.6395 C   0  0  0  0  0  0  0  0  0  0  0  0
    0.9082    5.8679  -14.4710 C   0  0  0  0  0  0  0  0  0  0  0  0
    0.6708    6.4287  -15.7030 C   0  0  0  0  0  0  0  0  0  0  0  0
    1.2033    7.6664  -16.0848 C   0  0  0  0  0  0  0  0  0  0  0  0
    2.0016    8.4391  -15.2752 C   0  0  0  0  0  0  0  0  0  0  0  0
    2.2507    7.8881  -14.0153 C   0  0  0  0  0  0  0  0  0  0  0  0
    3.0358    8.4104  -12.8978 C   0  0  0  0  0  0  0  0  0  0  0  0
    3.6470    9.6395  -12.8571 C   0  0  0  0  0  0  0  0  0  0  0  0
    4.3174   10.1732  -11.7376 C   0  0  0  0  0  0  0  0  0  0  0  0
    4.8617   10.6923  -10.8688 N   0  0  0  0  0  0  0  0  0  0  0  0
    3.6708   10.5570  -13.9260 C   0  0  0  0  0  0  0  0  0  0  0  0
    3.7373   11.3494  -14.7552 N   0  0  0  0  0  0  0  0  0  0  0  0
    0.5756    7.6042  -17.4550 C   0  0  0  0  0  0  0  0  0  0  0  0
    1.4860    7.2281  -18.6501 C   0  0  0  0  0  0  0  0  0  0  0  0
    2.6092    6.3927  -18.0882 C   0  0  0  0  0  0  0  0  0  0  0  0
    2.1016    5.2220  -17.7266 C   0  0  0  0  0  0  0  0  0  0  0  0
    0.6254    5.2450  -18.0371 C   0  0  0  0  0  0  0  0  0  0  0  0
    0.6272    6.1283  -19.2949 C   0  0  0  0  0  0  0  0  0  0  0  0
   -0.0213    6.2261  -17.0283 C   0  0  0  0  0  0  0  0  0  0  0  0
   -4.1011   -6.0671    8.6680 H   0  0  0  0  0  0  0  0  0  0  0  0
   -8.7092   -2.9202    5.8066 H   0  0  0  0  0  0  0  0  0  0  0  0
   -9.4922   -6.2756    9.5181 H   0  0  0  0  0  0  0  0  0  0  0  0
  -12.3785   -5.7646    7.7435 H   0  0  0  0  0  0  0  0  0  0  0  0
  -12.5380   -4.4436   10.0514 H   0  0  0  0  0  0  0  0  0  0  0  0
  -14.8147   -4.1610    8.7696 H   0  0  0  0  0  0  0  0  0  0  0  0
  -14.4497   -2.4008    6.8138 H   0  0  0  0  0  0  0  0  0  0  0  0
  -11.9493   -1.5974    6.8927 H   0  0  0  0  0  0  0  0  0  0  0  0
  -10.7888   -2.6544    9.0734 H   0  0  0  0  0  0  0  0  0  0  0  0
  -12.3240   -1.8636    9.4991 H   0  0  0  0  0  0  0  0  0  0  0  0
  -12.0162   -4.0394    5.8276 H   0  0  0  0  0  0  0  0  0  0  0  0
   -0.0847   -8.6435    7.7585 H   0  0  0  0  0  0  0  0  0  0  0  0
    2.1470   -8.8350    8.7636 H   0  0  0  0  0  0  0  0  0  0  0  0
    4.2093   -7.5365    9.5311 H   0  0  0  0  0  0  0  0  0  0  0  0
    3.9573   -6.0035   10.3845 H   0  0  0  0  0  0  0  0  0  0  0  0
    3.4140   -7.5212   11.0994 H   0  0  0  0  0  0  0  0  0  0  0  0
    1.9126   -4.7812   10.0707 H   0  0  0  0  0  0  0  0  0  0  0  0
   -0.3316   -4.5955    9.1017 H   0  0  0  0  0  0  0  0  0  0  0  0
   -3.3511   -7.3890    5.9919 H   0  0  0  0  0  0  0  0  0  0  0  0
   -4.9016   -9.2755    6.2179 H   0  0  0  0  0  0  0  0  0  0  0  0
   -5.7750  -11.1174    7.4371 H   0  0  0  0  0  0  0  0  0  0  0  0
   -5.9793  -10.6709    9.1343 H   0  0  0  0  0  0  0  0  0  0  0  0
   -4.7304  -11.8228    8.6793 H   0  0  0  0  0  0  0  0  0  0  0  0
   -3.4046  -10.0431   10.1381 H   0  0  0  0  0  0  0  0  0  0  0  0
   -1.8752   -8.1379    9.9331 H   0  0  0  0  0  0  0  0  0  0  0  0
    0.6491   -0.7976    6.0462 H   0  0  0  0  0  0  0  0  0  0  0  0
    2.2631    1.0043    5.6373 H   0  0  0  0  0  0  0  0  0  0  0  0
    2.6341    3.2377    4.3736 H   0  0  0  0  0  0  0  0  0  0  0  0
    2.1713    3.2716    2.6667 H   0  0  0  0  0  0  0  0  0  0  0  0
    3.4208    2.1572    3.2293 H   0  0  0  0  0  0  0  0  0  0  0  0
    0.3192    1.9342    1.9615 H   0  0  0  0  0  0  0  0  0  0  0  0
   -1.2880    0.1232    2.3510 H   0  0  0  0  0  0  0  0  0  0  0  0
   -2.6145   -3.4125    3.0092 H   0  0  0  0  0  0  0  0  0  0  0  0
   -4.9899   -3.3071    2.3749 H   0  0  0  0  0  0  0  0  0  0  0  0
   -7.1782   -0.3345    2.9889 H   0  0  0  0  0  0  0  0  0  0  0  0
   -7.2919   -2.0200    3.5074 H   0  0  0  0  0  0  0  0  0  0  0  0
   -6.9281   -1.6464    1.8251 H   0  0  0  0  0  0  0  0  0  0  0  0
   -5.2703    0.5940    4.0750 H   0  0  0  0  0  0  0  0  0  0  0  0
   -2.9023    0.4861    4.7237 H   0  0  0  0  0  0  0  0  0  0  0  0
    3.1851   -4.9625    5.5854 H   0  0  0  0  0  0  0  0  0  0  0  0
    4.1918   -5.5387    7.7521 H   0  0  0  0  0  0  0  0  0  0  0  0
    4.9511   -3.7560    9.2795 H   0  0  0  0  0  0  0  0  0  0  0  0
    5.6446   -1.4119    9.5138 H   0  0  0  0  0  0  0  0  0  0  0  0
    5.1062   -0.1966    8.3467 H   0  0  0  0  0  0  0  0  0  0  0  0
    3.9503    0.1076   10.5240 H   0  0  0  0  0  0  0  0  0  0  0  0
    2.7880   -0.3463    9.2730 H   0  0  0  0  0  0  0  0  0  0  0  0
    3.3347   -1.5461   10.4437 H   0  0  0  0  0  0  0  0  0  0  0  0
    3.6828   -0.8159    6.4628 H   0  0  0  0  0  0  0  0  0  0  0  0
    7.1136    6.7656   -4.5406 H   0  0  0  0  0  0  0  0  0  0  0  0
    9.1607    7.7813   -5.4684 H   0  0  0  0  0  0  0  0  0  0  0  0
   10.0223    7.0488   -7.6537 H   0  0  0  0  0  0  0  0  0  0  0  0
    8.2167    4.7792   -9.9200 H   0  0  0  0  0  0  0  0  0  0  0  0
    9.5591    5.9230   -9.7807 H   0  0  0  0  0  0  0  0  0  0  0  0
    9.4879    3.1247   -8.5495 H   0  0  0  0  0  0  0  0  0  0  0  0
   10.8237    4.2660   -8.4050 H   0  0  0  0  0  0  0  0  0  0  0  0
   10.4048    3.5950   -9.9851 H   0  0  0  0  0  0  0  0  0  0  0  0
    6.8218    4.2487   -7.9780 H   0  0  0  0  0  0  0  0  0  0  0  0
    1.3586    0.2639   -0.7362 H   0  0  0  0  0  0  0  0  0  0  0  0
    1.4644   -1.2364    0.1662 H   0  0  0  0  0  0  0  0  0  0  0  0
    1.7714   -1.6323   -2.2855 H   0  0  0  0  0  0  0  0  0  0  0  0
    3.2265   -0.6258   -2.2646 H   0  0  0  0  0  0  0  0  0  0  0  0
    3.1819   -2.1282   -1.3471 H   0  0  0  0  0  0  0  0  0  0  0  0
    2.0972    2.8083   -3.0892 H   0  0  0  0  0  0  0  0  0  0  0  0
    1.8089    1.2480   -2.3376 H   0  0  0  0  0  0  0  0  0  0  0  0
    2.1113    3.9480   -0.9088 H   0  0  0  0  0  0  0  0  0  0  0  0
    1.9101    2.4187   -0.0575 H   0  0  0  0  0  0  0  0  0  0  0  0
    0.6111    3.0341   -1.0917 H   0  0  0  0  0  0  0  0  0  0  0  0
    1.8016    4.9063   -7.2531 H   0  0  0  0  0  0  0  0  0  0  0  0
   -0.0983    5.8933   -8.0046 H   0  0  0  0  0  0  0  0  0  0  0  0
   -0.8267    6.2990   -9.5768 H   0  0  0  0  0  0  0  0  0  0  0  0
    0.6659    3.7028   -8.9168 H   0  0  0  0  0  0  0  0  0  0  0  0
   -1.0613    3.8865   -9.2570 H   0  0  0  0  0  0  0  0  0  0  0  0
    0.1451    4.1789  -10.5280 H   0  0  0  0  0  0  0  0  0  0  0  0
    4.5577    8.1571  -10.6126 H   0  0  0  0  0  0  0  0  0  0  0  0
    0.5211    4.9166  -14.1400 H   0  0  0  0  0  0  0  0  0  0  0  0
    2.4081    9.3872  -15.5857 H   0  0  0  0  0  0  0  0  0  0  0  0
   -0.1180    8.4065  -17.6995 H   0  0  0  0  0  0  0  0  0  0  0  0
    1.7787    8.0669  -19.2759 H   0  0  0  0  0  0  0  0  0  0  0  0
    3.6146    6.7491  -17.9610 H   0  0  0  0  0  0  0  0  0  0  0  0
    2.5982    4.4049  -17.2366 H   0  0  0  0  0  0  0  0  0  0  0  0
    0.1339    4.2777  -18.1056 H   0  0  0  0  0  0  0  0  0  0  0  0
   -0.3653    6.4686  -19.5876 H   0  0  0  0  0  0  0  0  0  0  0  0
    1.1181    5.6530  -20.1430 H   0  0  0  0  0  0  0  0  0  0  0  0
   -1.1051    6.1303  -16.9928 H   0  0  0  0  0  0  0  0  0  0  0  0
  1  2  2  0  0  0  0
  2  3  1  0  0  0  0
  3  4  2  0  0  0  0
  3  5  1  0  0  0  0
  5  6  2  0  0  0  0
  6  7  1  0  0  0  0
  7  8  2  0  0  0  0
  8  9  1  0  0  0  0
  9 10  2  0  0  0  0
 10 11  1  0  0  0  0
 11 12  2  0  0  0  0
 12 13  1  0  0  0  0
 13 14  3  0  0  0  0
 12 15  1  0  0  0  0
 15 16  3  0  0  0  0
  8 17  1  0  0  0  0
 17 18  1  0  0  0  0
 18 19  1  0  0  0  0
 19 20  2  0  0  0  0
 20 21  1  0  0  0  0
 21 22  1  0  0  0  0
 21 23  1  0  0  0  0
  1 24  1  0  0  0  0
 24 25  2  0  0  0  0
 25 26  1  0  0  0  0
 26 27  1  0  0  0  0
 27 28  2  0  0  0  0
 28 29  1  0  0  0  0
 29 30  2  0  0  0  0
 30 31  1  0  0  0  0
 30 32  1  0  0  0  0
 32 33  2  0  0  0  0
 26 34  1  0  0  0  0
 34 35  2  0  0  0  0
 35 36  1  0  0  0  0
 36 37  2  0  0  0  0
 37 38  1  0  0  0  0
 37 39  1  0  0  0  0
 39 40  2  0  0  0  0
 25 41  1  0  0  0  0
 41 42  1  0  0  0  0
 42 43  1  0  0  0  0
 43 44  2  0  0  0  0
 44 45  1  0  0  0  0
 45 46  1  0  0  0  0
 46 47  2  0  0  0  0
 47 48  1  0  0  0  0
 48 49  2  0  0  0  0
 49 50  1  0  0  0  0
 49 51  1  0  0  0  0
 51 52  2  0  0  0  0
 45 53  1  0  0  0  0
 53 54  2  0  0  0  0
 54 55  1  0  0  0  0
 55 56  2  0  0  0  0
 56 57  1  0  0  0  0
 56 58  1  0  0  0  0
 58 59  2  0  0  0  0
 44 60  1  0  0  0  0
 60 61  1  0  0  0  0
 43 62  1  0  0  0  0
 62 63  2  0  0  0  0
 63 64  1  0  0  0  0
 64 65  2  0  0  0  0
 65 66  1  0  0  0  0
 66 67  2  0  0  0  0
 67 68  1  0  0  0  0
 68 69  1  0  0  0  0
 69 70  1  0  0  0  0
 68 71  2  0  0  0  0
 63 72  1  0  0  0  0
 72 73  1  0  0  0  0
 73 74  1  0  0  0  0
 74 75  1  0  0  0  0
 75 76  1  0  0  0  0
 76 77  1  0  0  0  0
 77 78  2  0  0  0  0
 78 79  1  0  0  0  0
 79 80  1  0  0  0  0
 77 81  1  0  0  0  0
 81 82  1  0  0  0  0
 82 83  1  0  0  0  0
 83 84  1  0  0  0  0
 84 85  1  0  0  0  0
 85 86  1  0  0  0  0
 86 87  2  0  0  0  0
 87 88  1  0  0  0  0
 88 89  2  0  0  0  0
 89 90  1  0  0  0  0
 90 91  1  0  0  0  0
 91 92  1  0  0  0  0
 90 93  2  0  0  0  0
 85 94  2  0  0  0  0
 94 95  1  0  0  0  0
 95 96  1  0  0  0  0
 96 97  1  0  0  0  0
 97 98  1  0  0  0  0
 98 99  1  0  0  0  0
 99100  1  0  0  0  0
100101  1  0  0  0  0
101102  1  0  0  0  0
102103  1  0  0  0  0
103104  1  0  0  0  0
101105  1  0  0  0  0
105106  1  0  0  0  0
 98107  1  0  0  0  0
107108  1  0  0  0  0
 94109  1  0  0  0  0
109110  2  0  0  0  0
110111  1  0  0  0  0
111112  1  0  0  0  0
112113  1  0  0  0  0
113114  1  0  0  0  0
111115  2  0  0  0  0
115116  1  0  0  0  0
115117  1  0  0  0  0
117118  2  0  0  0  0
118119  1  0  0  0  0
119120  2  0  0  0  0
119121  1  0  0  0  0
121122  2  0  0  0  0
122123  1  0  0  0  0
123124  2  0  0  0  0
124125  1  0  0  0  0
125126  2  0  0  0  0
126127  1  0  0  0  0
127128  2  0  0  0  0
128129  1  0  0  0  0
129130  3  0  0  0  0
128131  1  0  0  0  0
131132  3  0  0  0  0
124133  1  0  0  0  0
133134  1  0  0  0  0
134135  1  0  0  0  0
135136  2  0  0  0  0
136137  1  0  0  0  0
137138  1  0  0  0  0
137139  1  0  0  0  0
 11  2  1  0  0  0  0
 23 17  1  0  0  0  0
 61 24  1  0  0  0  0
104 62  1  0  0  0  0
116109  1  0  0  0  0
127118  1  0  0  0  0
139133  1  0  0  0  0
 10  5  1  0  0  0  0
 22 18  1  0  0  0  0
 33 27  1  0  0  0  0
 40 34  1  0  0  0  0
 60 41  2  0  0  0  0
 71 64  1  0  0  0  0
103 72  2  0  0  0  0
126121  1  0  0  0  0
138134  1  0  0  0  0
 23  7  1  0  0  0  0
 52 46  1  0  0  0  0
 59 53  1  0  0  0  0
102 74  2  0  0  0  0
139123  1  0  0  0  0
100 75  2  0  0  0  0
 80 76  2  0  0  0  0
 99 81  2  0  0  0  0
 97 82  2  0  0  0  0
 96 84  2  0  0  0  0
 93 86  1  0  0  0  0
  1140  1  0  0  0  0
  6141  1  0  0  0  0
  9142  1  0  0  0  0
 17143  1  0  0  0  0
 18144  1  0  0  0  0
 19145  1  0  0  0  0
 20146  1  0  0  0  0
 21147  1  0  0  0  0
 22148  1  0  0  0  0
 22149  1  0  0  0  0
 23150  1  0  0  0  0
 28151  1  0  0  0  0
 29152  1  0  0  0  0
 31153  1  0  0  0  0
 31154  1  0  0  0  0
 31155  1  0  0  0  0
 32156  1  0  0  0  0
 33157  1  0  0  0  0
 35158  1  0  0  0  0
 36159  1  0  0  0  0
 38160  1  0  0  0  0
 38161  1  0  0  0  0
 38162  1  0  0  0  0
 39163  1  0  0  0  0
 40164  1  0  0  0  0
 47165  1  0  0  0  0
 48166  1  0  0  0  0
 50167  1  0  0  0  0
 50168  1  0  0  0  0
 50169  1  0  0  0  0
 51170  1  0  0  0  0
 52171  1  0  0  0  0
 54172  1  0  0  0  0
 55173  1  0  0  0  0
 57174  1  0  0  0  0
 57175  1  0  0  0  0
 57176  1  0  0  0  0
 58177  1  0  0  0  0
 59178  1  0  0  0  0
 65179  1  0  0  0  0
 66180  1  0  0  0  0
 67181  1  0  0  0  0
 69182  1  0  0  0  0
 69183  1  0  0  0  0
 70184  1  0  0  0  0
 70185  1  0  0  0  0
 70186  1  0  0  0  0
 71187  1  0  0  0  0
 87188  1  0  0  0  0
 88189  1  0  0  0  0
 89190  1  0  0  0  0
 91191  1  0  0  0  0
 91192  1  0  0  0  0
 92193  1  0  0  0  0
 92194  1  0  0  0  0
 92195  1  0  0  0  0
 93196  1  0  0  0  0
105197  1  0  0  0  0
105198  1  0  0  0  0
106199  1  0  0  0  0
106200  1  0  0  0  0
106201  1  0  0  0  0
107202  1  0  0  0  0
107203  1  0  0  0  0
108204  1  0  0  0  0
108205  1  0  0  0  0
108206  1  0  0  0  0
110207  1  0  0  0  0
113208  1  0  0  0  0
113209  1  0  0  0  0
114210  1  0  0  0  0
114211  1  0  0  0  0
114212  1  0  0  0  0
117213  1  0  0  0  0
122214  1  0  0  0  0
125215  1  0  0  0  0
133216  1  0  0  0  0
134217  1  0  0  0  0
135218  1  0  0  0  0
136219  1  0  0  0  0
137220  1  0  0  0  0
138221  1  0  0  0  0
138222  1  0  0  0  0
139223  1  0  0  0  0
M  END
