246

C          3.98550        2.98670      -11.32010
C          3.31860        3.47760      -12.41050
C          4.00820        3.50670      -13.72000
O          5.20140        3.42280      -13.92320
C          2.92380        3.57280      -14.72430
C          3.04480        3.47230      -16.10830
C          1.84620        3.51320      -16.78030
C          0.61350        3.64690      -16.12880
C          0.47860        3.76320      -14.76550
C          1.68550        3.72000      -14.06520
C          1.93870        3.82880      -12.63020
C          1.10130        4.41840      -11.71400
C         -0.23420        4.76970      -11.97250
N         -1.34030        5.03930      -12.12920
C          1.54390        4.80040      -10.43090
N          1.89480        5.17860       -9.40430
C         -0.16690        3.58480      -17.41860
C         -0.86590        2.24630      -17.73730
C         -1.12390        2.31760      -19.22490
C          0.04350        2.19410      -19.84320
C          1.11010        2.03700      -18.78380
C          0.31510        1.26730      -17.72120
C          1.20800        3.43920      -18.14610
C          3.45120        2.39550      -10.16630
C          4.12800        2.00310       -8.99750
N          5.46210        2.17290       -8.73700
C          5.86080        2.48460       -7.42460
C          5.12020        3.39180       -6.66950
C          5.50080        3.68440       -5.37650
C          6.62700        3.09780       -4.80900
C          7.01320        3.41120       -3.39630
C          7.36930        2.21070       -5.57810
C          6.99470        1.90020       -6.87100
C          6.43780        1.99670       -9.73290
C          6.32720        0.95110      -10.64740
C          7.27590        0.79510      -11.63670
C          8.35970        1.66130      -11.73380
C          9.35550        1.51020      -12.83990
C          8.47510        2.68380      -10.80000
C          7.52870        2.85670       -9.80890
C          3.23010        1.43540       -8.06340
S          3.40970        0.76240       -6.48010
C          1.69240        0.38810       -6.42470
C          1.00910        0.83240       -7.54960
N         -0.36220        0.85760       -7.69770
C         -0.90840        0.98980       -8.98980
C         -1.82750        1.99970       -9.25970
C         -2.29770        2.18040      -10.54380
C         -1.87110        1.36330      -11.58590
C         -2.36700        1.59250      -12.98020
C         -0.98850        0.33080      -11.29900
C         -0.51020        0.13830      -10.01590
C         -1.20410        1.00290       -6.58000
C         -0.85940        1.82670       -5.51310
C         -1.64320        1.85240       -4.37630
C         -2.79050        1.07620       -4.27620
C         -3.59220        1.03280       -3.01180
C         -3.16920        0.31870       -5.37890
C         -2.39350        0.28280       -6.51980
C          1.91590        1.36520       -8.49730
S          1.74140        1.96490      -10.10080
C          1.13500       -0.20980       -5.25050
C          0.18680       -1.20180       -5.15970
C         -0.25310       -2.09770       -6.27240
C          0.55730       -3.39590       -6.24590
C         -0.23330       -1.37940       -3.82840
S         -1.45030       -2.40370       -3.10980
C         -1.06550       -1.73400       -1.56060
C         -1.47160       -1.84690       -0.21890
C         -2.55030       -2.57120        0.34370
C         -2.75240       -2.49280        1.74770
N         -3.68820       -3.23690        2.33200
C         -4.47970       -3.97640        1.57430
C         -5.35850       -4.90360        2.29490
C         -5.87540       -4.51960        3.53140
C         -6.68840       -5.37470        4.24730
C         -6.97850       -6.63280        3.73390
C         -7.89530       -7.55360        4.48510
F         -7.60450       -8.85050        4.29740
F         -7.87550       -7.34780        5.81120
F         -9.18220       -7.40300        4.10580
C         -6.44880       -7.03760        2.51440
C         -5.63770       -6.17760        1.80190
C         -4.41410       -3.87810        0.15750
C         -5.42980       -4.42360       -0.74870
C         -5.03590       -4.89380       -2.00100
C         -5.96800       -5.40000       -2.88400
C         -7.30970       -5.42600       -2.52330
C         -8.32040       -6.01510       -3.46360
F         -7.98910       -5.85400       -4.75490
F         -9.54520       -5.48720       -3.31700
F         -8.46370       -7.34490       -3.28140
C         -7.71880       -4.93640       -1.28870
C         -6.78220       -4.43180       -0.40910
N         -3.41840       -3.22820       -0.42160
C         -1.85950       -1.70360        2.51030
C         -1.75870       -1.55950        3.90280
S         -2.57700       -2.07710        5.33520
C         -1.31590       -1.31730        6.29150
C         -1.11050       -1.24480        7.66940
C         -2.12510       -1.85250        8.58410
C         -3.05560       -0.78780        9.16800
C          0.06430       -0.54170        7.97900
S          0.87010        0.04080        6.51200
C         -0.33180       -0.69340        5.52170
C         -0.59770       -0.82450        4.15450
N          0.00830       -0.49060        2.97190
C         -0.75580       -0.99960        1.94490
C         -0.63010       -0.98270        0.53530
N          0.22600       -0.32460       -0.33550
C         -0.04650       -0.78310       -1.60020
C          0.41600       -0.56220       -2.90420
S          1.57100        0.45840       -3.67960
C          0.82600        0.98590       -0.20480
C         -0.24470        2.07470       -0.24160
C          1.35640        0.02680        2.98430
C          1.39230        1.52870        3.26210
C          0.63950       -0.35950        9.26200
S         -0.15670       -1.08150       10.63400
C          1.09110       -0.58810       11.73440
C          2.09380        0.10500       11.05330
C          3.32600        0.57390       11.71110
O          3.68910        0.19740       12.81540
C          4.08750        1.51860       10.90990
C          5.15120        2.24970       11.37940
C          5.72740        2.22730       12.74610
C          6.70020        3.36700       13.01050
S          5.78030        3.27090       10.13250
C          4.62500        2.70170        8.97500
C          4.66720        3.20410        7.57730
C          5.41270        2.22240        6.66820
C          3.78620        1.77060        9.53720
C          2.69400        1.10010        8.83880
O          2.50970        1.27220        7.63600
C          1.83340        0.27520        9.67350
C          1.05050       -0.76110       13.13120
C          0.17610       -1.47550       13.89870
C         -0.85620       -2.41260       13.42640
O         -1.25560       -2.56530       12.28550
C         -1.30690       -3.15420       14.61450
C         -2.23650       -4.19240       14.65050
C         -2.45830       -4.70020       15.90760
C         -1.80510       -4.21200       17.04790
C         -0.89130       -3.18520       17.02820
C         -0.64990       -2.65280       15.75800
C          0.22380       -1.55700       15.34820
C          0.89380       -0.70420       16.18420
C          1.59690        0.45310       15.78000
N          2.13810        1.44060       15.55600
C          0.91540       -0.82530       17.58960
N          0.98130       -0.87360       18.73470
C         -2.50150       -5.18810       17.96270
C         -1.67610       -6.40520       18.43100
C         -2.72180       -7.39600       18.88940
C         -3.34060       -7.85790       17.81030
C         -2.72350       -7.18720       16.60420
C         -1.27680       -7.04310       17.09410
C         -3.23030       -5.73180       16.69190
H          5.06380        2.96480      -11.42880
H          4.01220        3.37240      -16.57520
H         -0.47160        3.86480      -14.26790
H         -0.78550        4.45180      -17.64230
H         -1.71800        2.01530      -17.10350
H         -2.08940        2.50160      -19.65830
H          0.24800        2.25440      -20.89610
H          2.05880        1.61420      -19.10340
H          0.81820        1.19420      -16.75870
H          0.03040        0.27250      -18.06060
H          1.50550        4.21000      -18.85470
H          4.25530        3.86980       -7.10630
H          4.91850        4.38730       -4.79890
H          6.34840        2.89210       -2.70540
H          6.92810        4.47860       -3.20180
H          8.03290        3.09570       -3.19120
H          8.25020        1.74730       -5.15820
H          7.57430        1.20110       -7.45550
H          5.48810        0.27360      -10.58130
H          7.17410       -0.01190      -12.34710
H          9.52940        0.46040      -13.06620
H          8.97060        1.98860      -13.74080
H         10.30130        1.98040      -12.58260
H          9.31090        3.36550      -10.85690
H          7.61980        3.66430       -9.09780
H         -2.14610        2.65360       -8.46140
H         -2.98410        2.98780      -10.74940
H         -2.56760        2.64950      -13.13920
H         -1.63830        1.25130      -13.71260
H         -3.29550        1.04460      -13.14440
H         -0.65910       -0.32680      -12.09060
H          0.18490       -0.66280       -9.80760
H          0.02840        2.43900       -5.57290
H         -1.35200        2.48880       -3.55250
H         -4.65760        1.01500       -3.22980
H         -3.35430        0.12700       -2.45150
H         -3.37650        1.89190       -2.38050
H         -4.07490       -0.26820       -5.33340
H         -2.69090       -0.31850       -7.36630
H         -0.11950       -1.60700       -7.23500
H         -1.31120       -2.32970       -6.13900
H          0.23160       -4.05700       -7.04500
H          0.42230       -3.90740       -5.29610
H          1.61620       -3.18420       -6.37820
H         -5.62500       -3.54470        3.91870
H         -7.09200       -5.07620        5.20260
H         -6.66530       -8.02410        2.13430
H         -5.20820       -6.50160        0.86620
H         -3.99130       -4.85140       -2.26630
H         -5.66340       -5.76830       -3.85160
H         -8.76530       -4.94420       -1.02590
H         -7.10420       -4.03060        0.53960
H         -2.72150       -2.55110        7.99190
H         -1.65670       -2.41810        9.39000
H         -3.59600       -0.28560        8.36870
H         -3.77230       -1.25360        9.83790
H         -2.49660       -0.04290        9.72820
H          1.40780        1.06610        0.70760
H          1.50470        1.10650       -1.05310
H          0.21870        3.05540       -0.17720
H         -0.93890        1.95550        0.58820
H         -0.80670        2.01300       -1.17060
H          1.84540       -0.23640        2.04520
H          1.89400       -0.48380        3.79060
H          2.40910        1.89800        3.16250
H          0.74670        2.07600        2.58010
H          1.06010        1.72010        4.27870
H          4.90380        2.24490       13.46710
H          6.22770        1.26380       12.89130
H          7.07810        3.30630       14.02740
H          6.20700        4.32820       12.88300
H          7.54440        3.31940       12.32480
H          3.64500        3.31080        7.20850
H          5.16330        4.17630        7.55520
H          5.47190        2.62440        5.66050
H          4.87940        1.27640        6.63400
H          6.42150        2.04970        7.03660
H          1.86390       -0.26380       13.64670
H         -2.72000       -4.53490       13.74900
H         -0.39840       -2.82000       17.91350
H         -3.09900       -4.74750       18.75840
H         -0.88070       -6.17240       19.13350
H         -2.93420       -7.61000       19.92030
H         -4.17300       -8.53490       17.75970
H         -2.88200       -7.66780       15.64260
H         -0.65640       -6.40650       16.46590
H         -0.79000       -8.00770       17.22790
H         -4.31460       -5.65470       16.63990
