227

C         -4.98980        6.96560       -0.94380
C         -5.75780        6.61670        0.13970
C         -6.52650        7.64500        0.87280
O         -6.49120        8.84570        0.70240
C         -7.38270        6.89880        1.81990
C         -8.31450        7.42520        2.71170
C         -8.92710        6.48450        3.50550
C         -8.63090        5.11830        3.42450
C         -7.71770        4.58450        2.54730
C         -7.09080        5.52440        1.72640
C         -6.02870        5.34140        0.73790
C         -5.26100        4.20440        0.60310
C         -5.58810        2.95310        1.15360
N         -5.82160        1.88970        1.52310
C         -4.00670        4.17590       -0.02950
N         -2.94740        4.09130       -0.46970
C         -9.58650        4.76100        4.53660
C        -10.93260        4.13070        4.12410
C        -11.81800        4.34220        5.33050
C        -12.10610        5.63570        5.39750
C        -11.41930        6.32050        4.23770
C        -11.49780        5.20550        3.18740
C         -9.92480        6.28420        4.62130
C         -4.53390        6.17170       -2.00450
C         -5.00520        4.95970       -2.54880
N         -6.18990        4.33870       -2.25320
C         -6.37430        2.98440       -2.64350
C         -7.40940        2.65620       -3.51080
C         -7.59250        1.34490       -3.90430
C         -6.75970        0.33560       -3.43870
C         -6.95860       -1.08860       -3.85290
C         -5.73760        0.67310       -2.55930
C         -5.53950        1.98080       -2.16330
C         -7.33060        5.01100       -1.78770
C         -7.62150        6.32180       -2.15600
C         -8.73990        6.95290       -1.65100
C         -9.60930        6.29830       -0.78550
C        -10.79080        7.01110       -0.20650
C         -9.33930        4.97410       -0.46170
C         -8.21580        4.33620       -0.94770
C         -4.08080        4.44930       -3.48540
S         -3.99950        2.98910       -4.41740
C         -2.36510        3.38520       -4.92000
C         -1.96890        4.64910       -4.50150
N         -0.76290        5.22990       -4.84660
C         -0.09130        6.02950       -3.90880
C          0.57480        7.18330       -4.31080
C          1.22060        7.97000       -3.37790
C          1.21150        7.63830       -2.02860
C          1.88320        8.51340       -1.01490
C          0.54260        6.48460       -1.63740
C         -0.09710        5.68180       -2.56000
C         -0.25810        5.05220       -6.14200
C         -1.12250        4.97930       -7.23250
C         -0.62760        4.76310       -8.50160
C          0.73790        4.62690       -8.72630
C          1.25880        4.37080      -10.10740
C          1.59500        4.72120       -7.63760
C          1.11120        4.92690       -6.36020
C         -2.95570        5.24170       -3.68230
S         -3.04830        6.71470       -2.79780
C         -1.53090        2.34170       -5.41490
C         -1.91550        1.18270       -6.06420
C         -3.23370        1.00940       -6.67120
C         -3.94600       -0.17360       -6.49700
C         -5.20650       -0.30440       -7.04720
C         -5.76550        0.73310       -7.77180
C         -5.06370        1.91610       -7.96720
C         -5.63670        3.02500       -8.80270
C         -5.19160        2.88010      -10.25910
C         -3.79820        2.03960       -7.41790
C         -0.90030        0.20580       -6.01400
S         -0.82000       -1.45780       -6.54850
C          0.70320       -1.62380       -5.73820
C          1.56490       -2.64730       -5.30930
C          1.46770       -4.05320       -5.41780
C          2.26510       -4.87650       -4.54820
N          1.99170       -6.16420       -4.68210
S          0.84310       -6.33170       -5.81170
N          0.64030       -4.76470       -6.16600
C          3.20620       -4.25850       -3.69620
C          4.03220       -4.75140       -2.66950
S          4.26510       -6.21510       -1.77730
C          5.31200       -5.35260       -0.67560
C          5.93360       -5.71510        0.53620
C          5.96150       -7.07020        1.08200
C          7.12810       -7.57460        1.65380
C          7.14610       -8.85660        2.16610
C          6.01080       -9.64650        2.10910
C          4.84340       -9.16490        1.53070
C          3.59400       -9.99730        1.50810
C          2.75500       -9.72340        2.75780
C          4.83020       -7.87640        1.02020
C          6.57750       -4.62940        1.10370
S          6.50660       -3.18880        0.10430
C          5.50880       -4.01690       -1.03780
C          4.77470       -3.67280       -2.17900
N          4.45890       -2.53170       -2.87760
C          3.44350       -2.86000       -3.76070
C          2.53690       -2.03660       -4.47070
N          2.27990       -0.67600       -4.40620
C          1.15030       -0.44000       -5.14590
C          0.24080        0.61150       -5.32150
S          0.11230        2.24960       -4.78860
C          2.66930        0.28160       -3.39190
C          2.19410       -0.13890       -2.00410
C          5.41310       -1.45520       -3.03690
C          6.81300       -1.98280       -3.34690
C          7.14540       -4.50140        2.41600
C          8.24550       -3.65320        2.67350
N          8.98210       -2.90690        1.83860
N          9.85850       -2.33110        2.61180
C         10.81080       -1.38820        2.10030
C         10.32180        0.03680        2.34110
N          9.79640       -2.61280        3.88380
C          8.76750       -3.46270        3.98520
C          8.22530       -4.11180        5.11810
C          7.11260       -4.89900        4.84330
C          6.59670       -5.08290        3.55400
F          5.46120       -5.79720        3.45660
F          6.39620       -5.41960        5.85090
C          8.73330       -3.83290        6.43090
C          8.75830       -4.70160        7.47060
C          8.57000       -6.17720        7.35840
O          8.56660       -6.83820        6.34460
C          8.52760       -6.67620        8.74420
C          8.25370       -7.97880        9.15440
C          8.25290       -8.14790       10.51760
C          8.51190       -7.09850       11.41080
C          8.79400       -5.81220       11.02030
C          8.80010       -5.61710        9.63480
C          9.03080       -4.39810        8.86640
C          9.41050       -3.18740        9.38190
C          9.61750       -2.00670        8.63720
N          9.80330       -1.00070        8.11510
C          9.67790       -2.94870       10.74680
N          9.92080       -2.68010       11.83640
C          8.33910       -7.98030       12.62180
C          9.61630       -8.45830       13.35540
C         10.72120       -8.46880       12.32830
C         10.47850       -9.46150       11.48280
C          9.20510      -10.14050       11.92310
C          9.31590       -9.96300       13.44580
C          8.05230       -9.14920       11.62730
H         -4.71770        8.01600       -0.99230
H         -8.49510        8.48800        2.76030
H         -7.49650        3.53130        2.49590
H         -9.13910        4.28020        5.40450
H        -10.86180        3.11640        3.74040
H        -12.08720        3.56450        6.02100
H        -12.66380        6.15390        6.15550
H        -11.79560        7.30090        3.95720
H        -10.88310        5.38670        2.30870
H        -12.52260        4.99440        2.88510
H         -9.71150        6.81310        5.54860
H         -8.06080        3.43540       -3.87940
H         -8.39260        1.10540       -4.58920
H         -7.35620       -1.66840       -3.01990
H         -6.01040       -1.53380       -4.14620
H         -7.65510       -1.15840       -4.68430
H         -5.08520       -0.09770       -2.17790
H         -4.73160        2.22500       -1.49110
H         -6.97270        6.84600       -2.84100
H         -8.94090        7.97500       -1.93540
H        -11.61030        6.32120       -0.01810
H        -10.51110        7.47420        0.74090
H        -11.13460        7.79700       -0.87440
H        -10.00870        4.43360        0.19170
H         -8.01240        3.31120       -0.67290
H          0.57830        7.46170       -5.35450
H          1.73160        8.86450       -3.70430
H          1.15170        9.17970       -0.55650
H          2.33140        7.91590       -0.22380
H          2.65450        9.12480       -1.47710
H          0.52350        6.20600       -0.59400
H         -0.60330        4.78470       -2.23650
H         -2.18460        5.10430       -7.07660
H         -1.31170        4.70800       -9.33670
H          2.32250        4.58660      -10.16870
H          1.10670        3.32500      -10.37700
H          0.73250        4.98250      -10.83770
H          2.66050        4.62210       -7.78820
H          1.78900        4.98440       -5.52170
H         -3.51680       -0.97760       -5.91910
H         -5.75800       -1.22270       -6.91010
H         -6.75430        0.62420       -8.19420
H         -5.29950        3.98950       -8.41710
H         -6.72710        3.00050       -8.75390
H         -5.59890        3.68620      -10.86520
H         -5.53440        1.93150      -10.66610
H         -4.10630        2.90690      -10.32640
H         -3.23030        2.94550       -7.57540
H          8.01960       -6.96450        1.68490
H          8.05030       -9.24050        2.61470
H          6.03130      -10.64740        2.51600
H          3.00710       -9.75740        0.61930
H          3.85410      -11.05710        1.47200
H          2.48610       -8.67090        2.80770
H          1.84360      -10.31690        2.74330
H          3.31920       -9.97190        3.65370
H          3.92030       -7.48490        0.59030
H          2.19780        1.22860       -3.66510
H          3.74670        0.44230       -3.39340
H          2.45960        0.62550       -1.27940
H          2.64800       -1.07980       -1.70410
H          1.11340       -0.25920       -2.00040
H          5.08770       -0.84650       -3.88010
H          5.44120       -0.84880       -2.12490
H          7.22580       -2.52350       -2.50060
H          7.47020       -1.14740       -3.57350
H          6.78300       -2.64700       -4.20800
H         11.75780       -1.55470        2.61750
H         10.92080       -1.58770        1.03320
H         10.18700        0.20780        3.40610
H          9.37430        0.20110        1.83370
H         11.05130        0.74600        1.96110
H          9.11410       -2.82730        6.55250
H          8.05040       -8.75400        8.43240
H          8.98650       -5.01610       11.71990
H          7.54790       -7.69180       13.31100
H          9.82770       -7.93250       14.28250
H         11.50900       -7.73950       12.28960
H         11.02310       -9.72750       10.59580
H          9.04260      -11.14710       11.54670
H         10.13830      -10.53150       13.87730
H          8.39280      -10.19000       13.97740
H          7.07460       -9.62550       11.66850
