
  xtb     02222218223D
 energy: -424.566763055997 gnorm: 0.001127810641 xtb: 6.4.1 (unknown)
268298  0     0  0            999 V2000
    7.3923    9.7737   -3.8807 C   0  0  0  0  0  0  0  0  0  0  0  0
    7.4483   10.8731   -3.0491 C   0  0  0  0  0  0  0  0  0  0  0  0
    6.8961   10.8946   -1.6866 C   0  0  0  0  0  0  0  0  0  0  0  0
    6.2867   10.0057   -1.1197 O   0  0  0  0  0  0  0  0  0  0  0  0
    7.3563   12.1653   -1.0874 C   0  0  0  0  0  0  0  0  0  0  0  0
    7.1080   12.6225    0.2021 C   0  0  0  0  0  0  0  0  0  0  0  0
    7.6781   13.8419    0.4832 C   0  0  0  0  0  0  0  0  0  0  0  0
    8.4483   14.5492   -0.4467 C   0  0  0  0  0  0  0  0  0  0  0  0
    8.7003   14.1075   -1.7250 C   0  0  0  0  0  0  0  0  0  0  0  0
    8.1232   12.8743   -2.0314 C   0  0  0  0  0  0  0  0  0  0  0  0
    8.1619   12.0970   -3.2693 C   0  0  0  0  0  0  0  0  0  0  0  0
    8.6493   12.5298   -4.4801 C   0  0  0  0  0  0  0  0  0  0  0  0
    8.5459   11.7940   -5.6760 C   0  0  0  0  0  0  0  0  0  0  0  0
    8.4726   11.2646   -6.6934 N   0  0  0  0  0  0  0  0  0  0  0  0
    9.2329   13.7901   -4.6970 C   0  0  0  0  0  0  0  0  0  0  0  0
    9.7009   14.8116   -4.9412 N   0  0  0  0  0  0  0  0  0  0  0  0
    8.7307   15.6719    0.5208 C   0  0  0  0  0  0  0  0  0  0  0  0
   10.1226   15.7074    1.1993 C   0  0  0  0  0  0  0  0  0  0  0  0
   10.6202   14.2840    1.2374 C   0  0  0  0  0  0  0  0  0  0  0  0
    9.8830   13.6204    2.1178 C   0  0  0  0  0  0  0  0  0  0  0  0
    8.8730   14.5836    2.6905 C   0  0  0  0  0  0  0  0  0  0  0  0
    9.6935   15.8829    2.6649 C   0  0  0  0  0  0  0  0  0  0  0  0
    7.8642   14.8873    1.5556 C   0  0  0  0  0  0  0  0  0  0  0  0
    6.4297    8.7639   -3.8318 C   0  0  0  0  0  0  0  0  0  0  0  0
    5.1026    8.7636   -3.3515 C   0  0  0  0  0  0  0  0  0  0  0  0
    4.3728    9.8494   -2.9655 N   0  0  0  0  0  0  0  0  0  0  0  0
    4.6516   11.1521   -3.3999 C   0  0  0  0  0  0  0  0  0  0  0  0
    4.5335   12.2178   -2.5105 C   0  0  0  0  0  0  0  0  0  0  0  0
    4.8457   13.5016   -2.9171 C   0  0  0  0  0  0  0  0  0  0  0  0
    5.2722   13.7605   -4.2126 C   0  0  0  0  0  0  0  0  0  0  0  0
    5.6623   15.1397   -4.6422 C   0  0  0  0  0  0  0  0  0  0  0  0
    5.3433   12.6956   -5.1078 C   0  0  0  0  0  0  0  0  0  0  0  0
    5.0393   11.4099   -4.7141 C   0  0  0  0  0  0  0  0  0  0  0  0
    3.2674    9.6617   -2.1052 C   0  0  0  0  0  0  0  0  0  0  0  0
    2.0407   10.2351   -2.4175 C   0  0  0  0  0  0  0  0  0  0  0  0
    0.9541   10.0283   -1.5889 C   0  0  0  0  0  0  0  0  0  0  0  0
    1.0661    9.2543   -0.4410 C   0  0  0  0  0  0  0  0  0  0  0  0
   -0.1168    8.9950    0.4397 C   0  0  0  0  0  0  0  0  0  0  0  0
    2.3063    8.7086   -0.1261 C   0  0  0  0  0  0  0  0  0  0  0  0
    3.4000    8.9069   -0.9436 C   0  0  0  0  0  0  0  0  0  0  0  0
    4.5520    7.4637   -3.4334 C   0  0  0  0  0  0  0  0  0  0  0  0
    3.0359    6.7687   -2.9729 S   0  0  0  0  0  0  0  0  0  0  0  0
    3.5435    5.1918   -3.5589 C   0  0  0  0  0  0  0  0  0  0  0  0
    4.8365    5.2077   -4.0687 C   0  0  0  0  0  0  0  0  0  0  0  0
    5.5598    4.1183   -4.5367 N   0  0  0  0  0  0  0  0  0  0  0  0
    5.5890    2.9017   -3.8541 C   0  0  0  0  0  0  0  0  0  0  0  0
    5.9099    1.7283   -4.5358 C   0  0  0  0  0  0  0  0  0  0  0  0
    5.9289    0.5165   -3.8730 C   0  0  0  0  0  0  0  0  0  0  0  0
    5.6039    0.4269   -2.5254 C   0  0  0  0  0  0  0  0  0  0  0  0
    5.5740   -0.8927   -1.8164 C   0  0  0  0  0  0  0  0  0  0  0  0
    5.2882    1.6007   -1.8507 C   0  0  0  0  0  0  0  0  0  0  0  0
    5.2894    2.8208   -2.4944 C   0  0  0  0  0  0  0  0  0  0  0  0
    6.4317    4.3596   -5.6167 C   0  0  0  0  0  0  0  0  0  0  0  0
    5.9754    5.0847   -6.7151 C   0  0  0  0  0  0  0  0  0  0  0  0
    6.8260    5.3641   -7.7650 C   0  0  0  0  0  0  0  0  0  0  0  0
    8.1449    4.9247   -7.7549 C   0  0  0  0  0  0  0  0  0  0  0  0
    9.0612    5.2567   -8.8918 C   0  0  0  0  0  0  0  0  0  0  0  0
    8.5883    4.1940   -6.6599 C   0  0  0  0  0  0  0  0  0  0  0  0
    7.7498    3.9155   -5.5983 C   0  0  0  0  0  0  0  0  0  0  0  0
    5.3817    6.5123   -4.0103 C   0  0  0  0  0  0  0  0  0  0  0  0
    6.8907    7.1887   -4.4996 S   0  0  0  0  0  0  0  0  0  0  0  0
    2.6364    4.1078   -3.3871 C   0  0  0  0  0  0  0  0  0  0  0  0
    1.4548    4.2412   -2.0844 S   0  0  0  0  0  0  0  0  0  0  0  0
    0.8535    2.6727   -2.4586 C   0  0  0  0  0  0  0  0  0  0  0  0
   -0.0743    1.7303   -2.0207 C   0  0  0  0  0  0  0  0  0  0  0  0
   -1.2697    1.5223   -0.7840 S   0  0  0  0  0  0  0  0  0  0  0  0
   -1.5467   -0.0850   -1.3768 C   0  0  0  0  0  0  0  0  0  0  0  0
   -2.3071   -1.1944   -0.8970 C   0  0  0  0  0  0  0  0  0  0  0  0
   -3.1530   -1.3063    0.2029 C   0  0  0  0  0  0  0  0  0  0  0  0
   -3.6281   -2.5604    0.5058 C   0  0  0  0  0  0  0  0  0  0  0  0
   -4.5140   -2.9769    1.6675 C   0  0  0  0  0  0  0  0  0  0  0  0
   -5.9688   -2.5698    1.4956 C   0  0  0  0  0  0  0  0  0  0  0  0
   -6.8493   -2.7741    2.5519 C   0  0  0  0  0  0  0  0  0  0  0  0
   -8.1871   -2.4597    2.4176 C   0  0  0  0  0  0  0  0  0  0  0  0
   -8.6814   -1.9348    1.2297 C   0  0  0  0  0  0  0  0  0  0  0  0
  -10.1447   -1.6356    1.0719 C   0  0  0  0  0  0  0  0  0  0  0  0
  -10.8888   -2.8700    0.5585 C   0  0  0  0  0  0  0  0  0  0  0  0
   -7.7986   -1.7422    0.1767 C   0  0  0  0  0  0  0  0  0  0  0  0
   -6.4572   -2.0583    0.3029 C   0  0  0  0  0  0  0  0  0  0  0  0
   -3.9427   -2.4448    2.9651 C   0  0  0  0  0  0  0  0  0  0  0  0
   -3.0369   -3.1853    3.7103 C   0  0  0  0  0  0  0  0  0  0  0  0
   -2.5040   -2.6716    4.8784 C   0  0  0  0  0  0  0  0  0  0  0  0
   -2.8540   -1.4058    5.3267 C   0  0  0  0  0  0  0  0  0  0  0  0
   -2.2441   -0.8299    6.5724 C   0  0  0  0  0  0  0  0  0  0  0  0
   -0.9892   -0.0245    6.2302 C   0  0  0  0  0  0  0  0  0  0  0  0
   -3.7480   -0.6614    4.5678 C   0  0  0  0  0  0  0  0  0  0  0  0
   -4.2867   -1.1717    3.4027 C   0  0  0  0  0  0  0  0  0  0  0  0
   -4.4625   -4.4758    1.5362 C   0  0  0  0  0  0  0  0  0  0  0  0
   -3.7659   -4.8380    0.3968 C   0  0  0  0  0  0  0  0  0  0  0  0
   -3.2364   -3.6840   -0.2583 C   0  0  0  0  0  0  0  0  0  0  0  0
   -2.4245   -3.5632   -1.3841 C   0  0  0  0  0  0  0  0  0  0  0  0
   -1.9811   -2.3042   -1.7107 C   0  0  0  0  0  0  0  0  0  0  0  0
   -1.0524   -1.8833   -2.8493 C   0  0  0  0  0  0  0  0  0  0  0  0
    0.2458   -2.6702   -2.7934 C   0  0  0  0  0  0  0  0  0  0  0  0
    0.9394   -2.6955   -1.5869 C   0  0  0  0  0  0  0  0  0  0  0  0
    2.1431   -3.3623   -1.4774 C   0  0  0  0  0  0  0  0  0  0  0  0
    2.6911   -4.0278   -2.5679 C   0  0  0  0  0  0  0  0  0  0  0  0
    3.9779   -4.7892   -2.4343 C   0  0  0  0  0  0  0  0  0  0  0  0
    3.7051   -6.2153   -1.9528 C   0  0  0  0  0  0  0  0  0  0  0  0
    1.9952   -4.0042   -3.7674 C   0  0  0  0  0  0  0  0  0  0  0  0
    0.7925   -3.3283   -3.8849 C   0  0  0  0  0  0  0  0  0  0  0  0
   -1.7956   -2.0088   -4.1674 C   0  0  0  0  0  0  0  0  0  0  0  0
   -2.1224   -0.8920   -4.9259 C   0  0  0  0  0  0  0  0  0  0  0  0
   -2.7990   -1.0233   -6.1253 C   0  0  0  0  0  0  0  0  0  0  0  0
   -3.1750   -2.2704   -6.6030 C   0  0  0  0  0  0  0  0  0  0  0  0
   -3.9362   -2.4042   -7.8900 C   0  0  0  0  0  0  0  0  0  0  0  0
   -5.4362   -2.2276   -7.6487 C   0  0  0  0  0  0  0  0  0  0  0  0
   -2.8644   -3.3850   -5.8351 C   0  0  0  0  0  0  0  0  0  0  0  0
   -2.1865   -3.2582   -4.6380 C   0  0  0  0  0  0  0  0  0  0  0  0
   -0.7825   -0.4437   -2.4730 C   0  0  0  0  0  0  0  0  0  0  0  0
    0.0668    0.5991   -2.8624 C   0  0  0  0  0  0  0  0  0  0  0  0
    1.0241    0.8526   -3.8097 N   0  0  0  0  0  0  0  0  0  0  0  0
    1.5309    2.1012   -3.5559 C   0  0  0  0  0  0  0  0  0  0  0  0
    2.5389    2.9209   -4.0789 C   0  0  0  0  0  0  0  0  0  0  0  0
    1.4571   -0.0324   -4.8600 C   0  0  0  0  0  0  0  0  0  0  0  0
    2.7909   -0.6904   -4.5261 C   0  0  0  0  0  0  0  0  0  0  0  0
   -3.6599   -6.5506    0.1489 S   0  0  0  0  0  0  0  0  0  0  0  0
   -4.5529   -6.7934    1.6267 C   0  0  0  0  0  0  0  0  0  0  0  0
   -4.9357   -7.9138    2.3421 C   0  0  0  0  0  0  0  0  0  0  0  0
   -5.6047   -7.5895    3.5186 C   0  0  0  0  0  0  0  0  0  0  0  0
   -5.7824   -5.8505    3.7143 S   0  0  0  0  0  0  0  0  0  0  0  0
   -4.9228   -5.5842    2.2448 C   0  0  0  0  0  0  0  0  0  0  0  0
   -6.0313   -8.5528    4.4591 C   0  0  0  0  0  0  0  0  0  0  0  0
   -5.5860  -10.2138    4.1528 S   0  0  0  0  0  0  0  0  0  0  0  0
   -6.3530  -10.7717    5.6169 C   0  0  0  0  0  0  0  0  0  0  0  0
   -6.9238   -9.7106    6.2988 C   0  0  0  0  0  0  0  0  0  0  0  0
   -7.6527   -9.8857    7.5649 C   0  0  0  0  0  0  0  0  0  0  0  0
   -7.7702  -10.9677    8.1158 O   0  0  0  0  0  0  0  0  0  0  0  0
   -8.2176   -8.6451    8.0892 C   0  0  0  0  0  0  0  0  0  0  0  0
   -9.0035   -8.5639    9.2121 C   0  0  0  0  0  0  0  0  0  0  0  0
   -9.3770   -9.6380   10.1665 C   0  0  0  0  0  0  0  0  0  0  0  0
   -8.2697   -9.8519   11.2031 C   0  0  0  0  0  0  0  0  0  0  0  0
   -9.5336   -6.9381    9.4758 S   0  0  0  0  0  0  0  0  0  0  0  0
   -8.7051   -6.3581    8.0722 C   0  0  0  0  0  0  0  0  0  0  0  0
   -8.7487   -4.9144    7.7240 C   0  0  0  0  0  0  0  0  0  0  0  0
   -7.4942   -4.1925    8.2251 C   0  0  0  0  0  0  0  0  0  0  0  0
   -8.0463   -7.3817    7.4362 C   0  0  0  0  0  0  0  0  0  0  0  0
   -7.2723   -7.2206    6.2092 C   0  0  0  0  0  0  0  0  0  0  0  0
   -7.0739   -6.1204    5.7019 O   0  0  0  0  0  0  0  0  0  0  0  0
   -6.7527   -8.4587    5.6525 C   0  0  0  0  0  0  0  0  0  0  0  0
   -6.2607  -12.1234    6.0377 C   0  0  0  0  0  0  0  0  0  0  0  0
   -6.1077  -13.2299    5.2676 C   0  0  0  0  0  0  0  0  0  0  0  0
   -5.5605  -14.4880    5.8518 C   0  0  0  0  0  0  0  0  0  0  0  0
   -5.4439  -14.7534    7.0247 O   0  0  0  0  0  0  0  0  0  0  0  0
   -5.1321  -15.2947    4.6919 C   0  0  0  0  0  0  0  0  0  0  0  0
   -4.4318  -16.4991    4.7173 C   0  0  0  0  0  0  0  0  0  0  0  0
   -4.1417  -17.0053    3.4732 C   0  0  0  0  0  0  0  0  0  0  0  0
   -4.5154  -16.3618    2.2849 C   0  0  0  0  0  0  0  0  0  0  0  0
   -5.2128  -15.1784    2.2428 C   0  0  0  0  0  0  0  0  0  0  0  0
   -5.5218  -14.6499    3.4985 C   0  0  0  0  0  0  0  0  0  0  0  0
   -6.2699  -13.4455    3.8445 C   0  0  0  0  0  0  0  0  0  0  0  0
   -7.1658  -12.7986    3.0347 C   0  0  0  0  0  0  0  0  0  0  0  0
   -7.3633  -13.1030    1.6730 C   0  0  0  0  0  0  0  0  0  0  0  0
   -7.5521  -13.3016    0.5579 N   0  0  0  0  0  0  0  0  0  0  0  0
   -8.0621  -11.8136    3.5009 C   0  0  0  0  0  0  0  0  0  0  0  0
   -8.8391  -11.0415    3.8446 N   0  0  0  0  0  0  0  0  0  0  0  0
   -3.8741  -17.4158    1.4185 C   0  0  0  0  0  0  0  0  0  0  0  0
   -2.5083  -17.0807    0.7693 C   0  0  0  0  0  0  0  0  0  0  0  0
   -1.8464  -16.0609    1.6625 C   0  0  0  0  0  0  0  0  0  0  0  0
   -1.4950  -16.6733    2.7854 C   0  0  0  0  0  0  0  0  0  0  0  0
   -1.9135  -18.1182    2.6719 C   0  0  0  0  0  0  0  0  0  0  0  0
   -1.7182  -18.3388    1.1633 C   0  0  0  0  0  0  0  0  0  0  0  0
   -3.4610  -18.1350    2.7411 C   0  0  0  0  0  0  0  0  0  0  0  0
    8.1812    9.6355   -4.6106 H   0  0  0  0  0  0  0  0  0  0  0  0
    6.5138   12.0437    0.8922 H   0  0  0  0  0  0  0  0  0  0  0  0
    9.3023   14.6576   -2.4294 H   0  0  0  0  0  0  0  0  0  0  0  0
    8.3937   16.6618    0.2186 H   0  0  0  0  0  0  0  0  0  0  0  0
   10.8071   16.4436    0.7863 H   0  0  0  0  0  0  0  0  0  0  0  0
   11.3942   13.9027    0.5974 H   0  0  0  0  0  0  0  0  0  0  0  0
    9.9179   12.5743    2.3599 H   0  0  0  0  0  0  0  0  0  0  0  0
    8.4183   14.2975    3.6355 H   0  0  0  0  0  0  0  0  0  0  0  0
   10.5349   15.8638    3.3561 H   0  0  0  0  0  0  0  0  0  0  0  0
    9.0958   16.7770    2.8377 H   0  0  0  0  0  0  0  0  0  0  0  0
    6.9569   15.3633    1.9232 H   0  0  0  0  0  0  0  0  0  0  0  0
    4.2097   12.0295   -1.4979 H   0  0  0  0  0  0  0  0  0  0  0  0
    4.7699   14.3126   -2.2073 H   0  0  0  0  0  0  0  0  0  0  0  0
    5.2786   15.8861   -3.9516 H   0  0  0  0  0  0  0  0  0  0  0  0
    5.2874   15.3529   -5.6412 H   0  0  0  0  0  0  0  0  0  0  0  0
    6.7490   15.2303   -4.6715 H   0  0  0  0  0  0  0  0  0  0  0  0
    5.6499   12.8772   -6.1276 H   0  0  0  0  0  0  0  0  0  0  0  0
    5.1061   10.5996   -5.4246 H   0  0  0  0  0  0  0  0  0  0  0  0
    1.9425   10.8327   -3.3122 H   0  0  0  0  0  0  0  0  0  0  0  0
    0.0019   10.4692   -1.8457 H   0  0  0  0  0  0  0  0  0  0  0  0
   -0.4285    7.9551    0.3428 H   0  0  0  0  0  0  0  0  0  0  0  0
   -0.9546    9.6320    0.1680 H   0  0  0  0  0  0  0  0  0  0  0  0
    0.1353    9.1701    1.4842 H   0  0  0  0  0  0  0  0  0  0  0  0
    2.4141    8.1204    0.7734 H   0  0  0  0  0  0  0  0  0  0  0  0
    4.3684    8.5072   -0.6871 H   0  0  0  0  0  0  0  0  0  0  0  0
    6.1418    1.7700   -5.5900 H   0  0  0  0  0  0  0  0  0  0  0  0
    6.1873   -0.3789   -4.4205 H   0  0  0  0  0  0  0  0  0  0  0  0
    5.9080   -1.6928   -2.4722 H   0  0  0  0  0  0  0  0  0  0  0  0
    4.5601   -1.1193   -1.4859 H   0  0  0  0  0  0  0  0  0  0  0  0
    6.2147   -0.8694   -0.9359 H   0  0  0  0  0  0  0  0  0  0  0  0
    5.0435    1.5590   -0.7992 H   0  0  0  0  0  0  0  0  0  0  0  0
    5.0662    3.7190   -1.9394 H   0  0  0  0  0  0  0  0  0  0  0  0
    4.9513    5.4297   -6.7344 H   0  0  0  0  0  0  0  0  0  0  0  0
    6.4614    5.9325   -8.6082 H   0  0  0  0  0  0  0  0  0  0  0  0
    9.3097    6.3174   -8.8708 H   0  0  0  0  0  0  0  0  0  0  0  0
    8.5824    5.0468   -9.8465 H   0  0  0  0  0  0  0  0  0  0  0  0
    9.9844    4.6870   -8.8286 H   0  0  0  0  0  0  0  0  0  0  0  0
    9.6115    3.8484   -6.6281 H   0  0  0  0  0  0  0  0  0  0  0  0
    8.1145    3.3626   -4.7452 H   0  0  0  0  0  0  0  0  0  0  0  0
   -3.3947   -0.4427    0.8030 H   0  0  0  0  0  0  0  0  0  0  0  0
   -6.4830   -3.1794    3.4839 H   0  0  0  0  0  0  0  0  0  0  0  0
   -8.8576   -2.6245    3.2488 H   0  0  0  0  0  0  0  0  0  0  0  0
  -10.5669   -1.3353    2.0330 H   0  0  0  0  0  0  0  0  0  0  0  0
  -10.2815   -0.8135    0.3662 H   0  0  0  0  0  0  0  0  0  0  0  0
  -10.7649   -3.7003    1.2499 H   0  0  0  0  0  0  0  0  0  0  0  0
  -11.9508   -2.6596    0.4538 H   0  0  0  0  0  0  0  0  0  0  0  0
  -10.4969   -3.1717   -0.4102 H   0  0  0  0  0  0  0  0  0  0  0  0
   -8.1622   -1.3385   -0.7578 H   0  0  0  0  0  0  0  0  0  0  0  0
   -5.7914   -1.9017   -0.5333 H   0  0  0  0  0  0  0  0  0  0  0  0
   -2.7461   -4.1721    3.3805 H   0  0  0  0  0  0  0  0  0  0  0  0
   -1.8072   -3.2668    5.4518 H   0  0  0  0  0  0  0  0  0  0  0  0
   -1.9796   -1.6339    7.2622 H   0  0  0  0  0  0  0  0  0  0  0  0
   -2.9653   -0.1774    7.0690 H   0  0  0  0  0  0  0  0  0  0  0  0
   -0.2455   -0.6644    5.7602 H   0  0  0  0  0  0  0  0  0  0  0  0
   -0.5570    0.4091    7.1293 H   0  0  0  0  0  0  0  0  0  0  0  0
   -1.2327    0.7792    5.5388 H   0  0  0  0  0  0  0  0  0  0  0  0
   -4.0306    0.3287    4.8966 H   0  0  0  0  0  0  0  0  0  0  0  0
   -4.9916   -0.5822    2.8341 H   0  0  0  0  0  0  0  0  0  0  0  0
   -2.1354   -4.4439   -1.9354 H   0  0  0  0  0  0  0  0  0  0  0  0
    0.5291   -2.1845   -0.7274 H   0  0  0  0  0  0  0  0  0  0  0  0
    2.6672   -3.3659   -0.5320 H   0  0  0  0  0  0  0  0  0  0  0  0
    4.4888   -4.8259   -3.3985 H   0  0  0  0  0  0  0  0  0  0  0  0
    4.6323   -4.2871   -1.7186 H   0  0  0  0  0  0  0  0  0  0  0  0
    3.1982   -6.1987   -0.9907 H   0  0  0  0  0  0  0  0  0  0  0  0
    4.6365   -6.7665   -1.8461 H   0  0  0  0  0  0  0  0  0  0  0  0
    3.0702   -6.7394   -2.6637 H   0  0  0  0  0  0  0  0  0  0  0  0
    2.4017   -4.5137   -4.6296 H   0  0  0  0  0  0  0  0  0  0  0  0
    0.2876   -3.3182   -4.8395 H   0  0  0  0  0  0  0  0  0  0  0  0
   -1.8510    0.0958   -4.5844 H   0  0  0  0  0  0  0  0  0  0  0  0
   -3.0345   -0.1385   -6.6996 H   0  0  0  0  0  0  0  0  0  0  0  0
   -3.5956   -1.6479   -8.6002 H   0  0  0  0  0  0  0  0  0  0  0  0
   -3.7552   -3.3884   -8.3263 H   0  0  0  0  0  0  0  0  0  0  0  0
   -5.9855   -2.3259   -8.5821 H   0  0  0  0  0  0  0  0  0  0  0  0
   -5.6388   -1.2455   -7.2276 H   0  0  0  0  0  0  0  0  0  0  0  0
   -5.7982   -2.9793   -6.9513 H   0  0  0  0  0  0  0  0  0  0  0  0
   -3.1523   -4.3679   -6.1806 H   0  0  0  0  0  0  0  0  0  0  0  0
   -1.9499   -4.1453   -4.0721 H   0  0  0  0  0  0  0  0  0  0  0  0
    3.1564    2.6794   -4.9235 H   0  0  0  0  0  0  0  0  0  0  0  0
    1.5493    0.5486   -5.7838 H   0  0  0  0  0  0  0  0  0  0  0  0
    0.6835   -0.7899   -5.0006 H   0  0  0  0  0  0  0  0  0  0  0  0
    2.7128   -1.2509   -3.5987 H   0  0  0  0  0  0  0  0  0  0  0  0
    3.0765   -1.3734   -5.3209 H   0  0  0  0  0  0  0  0  0  0  0  0
    3.5655    0.0627   -4.4114 H   0  0  0  0  0  0  0  0  0  0  0  0
   -4.7405   -8.9277    2.0405 H   0  0  0  0  0  0  0  0  0  0  0  0
  -10.3073   -9.3718   10.6718 H   0  0  0  0  0  0  0  0  0  0  0  0
   -9.5181  -10.5672    9.6108 H   0  0  0  0  0  0  0  0  0  0  0  0
   -8.0694   -8.9306   11.7465 H   0  0  0  0  0  0  0  0  0  0  0  0
   -8.5713  -10.6183   11.9115 H   0  0  0  0  0  0  0  0  0  0  0  0
   -7.3586  -10.1774   10.7086 H   0  0  0  0  0  0  0  0  0  0  0  0
   -9.6370   -4.4600    8.1670 H   0  0  0  0  0  0  0  0  0  0  0  0
   -8.7940   -4.8150    6.6375 H   0  0  0  0  0  0  0  0  0  0  0  0
   -7.3888   -4.3086    9.3017 H   0  0  0  0  0  0  0  0  0  0  0  0
   -7.5600   -3.1335    7.9909 H   0  0  0  0  0  0  0  0  0  0  0  0
   -6.6143   -4.5993    7.7345 H   0  0  0  0  0  0  0  0  0  0  0  0
   -6.2501  -12.2806    7.1125 H   0  0  0  0  0  0  0  0  0  0  0  0
   -4.1606  -16.9627    5.6528 H   0  0  0  0  0  0  0  0  0  0  0  0
   -5.4895  -14.6863    1.3248 H   0  0  0  0  0  0  0  0  0  0  0  0
   -4.5393  -17.9423    0.7371 H   0  0  0  0  0  0  0  0  0  0  0  0
   -2.5603  -16.8317   -0.2872 H   0  0  0  0  0  0  0  0  0  0  0  0
   -1.7566  -15.0187    1.4179 H   0  0  0  0  0  0  0  0  0  0  0  0
   -1.0531  -16.2448    3.6658 H   0  0  0  0  0  0  0  0  0  0  0  0
   -1.4235  -18.8147    3.3471 H   0  0  0  0  0  0  0  0  0  0  0  0
   -0.6725  -18.2909    0.8627 H   0  0  0  0  0  0  0  0  0  0  0  0
   -2.1640  -19.2630    0.7984 H   0  0  0  0  0  0  0  0  0  0  0  0
   -3.8578  -19.1316    2.9245 H   0  0  0  0  0  0  0  0  0  0  0  0
  1  2  2  0  0  0  0
  2  3  1  0  0  0  0
  3  4  2  0  0  0  0
  3  5  1  0  0  0  0
  5  6  2  0  0  0  0
  6  7  1  0  0  0  0
  7  8  2  0  0  0  0
  8  9  1  0  0  0  0
  9 10  2  0  0  0  0
 10 11  1  0  0  0  0
 11 12  2  0  0  0  0
 12 13  1  0  0  0  0
 13 14  3  0  0  0  0
 12 15  1  0  0  0  0
 15 16  3  0  0  0  0
  8 17  1  0  0  0  0
 17 18  1  0  0  0  0
 18 19  1  0  0  0  0
 19 20  2  0  0  0  0
 20 21  1  0  0  0  0
 21 22  1  0  0  0  0
 21 23  1  0  0  0  0
  1 24  1  0  0  0  0
 24 25  2  0  0  0  0
 25 26  1  0  0  0  0
 26 27  1  0  0  0  0
 27 28  2  0  0  0  0
 28 29  1  0  0  0  0
 29 30  2  0  0  0  0
 30 31  1  0  0  0  0
 30 32  1  0  0  0  0
 32 33  2  0  0  0  0
 26 34  1  0  0  0  0
 34 35  2  0  0  0  0
 35 36  1  0  0  0  0
 36 37  2  0  0  0  0
 37 38  1  0  0  0  0
 37 39  1  0  0  0  0
 39 40  2  0  0  0  0
 25 41  1  0  0  0  0
 41 42  1  0  0  0  0
 42 43  1  0  0  0  0
 43 44  2  0  0  0  0
 44 45  1  0  0  0  0
 45 46  1  0  0  0  0
 46 47  2  0  0  0  0
 47 48  1  0  0  0  0
 48 49  2  0  0  0  0
 49 50  1  0  0  0  0
 49 51  1  0  0  0  0
 51 52  2  0  0  0  0
 45 53  1  0  0  0  0
 53 54  2  0  0  0  0
 54 55  1  0  0  0  0
 55 56  2  0  0  0  0
 56 57  1  0  0  0  0
 56 58  1  0  0  0  0
 58 59  2  0  0  0  0
 44 60  1  0  0  0  0
 60 61  1  0  0  0  0
 43 62  1  0  0  0  0
 62 63  1  0  0  0  0
 63 64  1  0  0  0  0
 64 65  1  0  0  0  0
 65 66  1  0  0  0  0
 66 67  1  0  0  0  0
 67 68  1  0  0  0  0
 68 69  2  0  0  0  0
 69 70  1  0  0  0  0
 70 71  1  0  0  0  0
 71 72  1  0  0  0  0
 72 73  2  0  0  0  0
 73 74  1  0  0  0  0
 74 75  2  0  0  0  0
 75 76  1  0  0  0  0
 76 77  1  0  0  0  0
 75 78  1  0  0  0  0
 78 79  2  0  0  0  0
 71 80  1  0  0  0  0
 80 81  2  0  0  0  0
 81 82  1  0  0  0  0
 82 83  2  0  0  0  0
 83 84  1  0  0  0  0
 84 85  1  0  0  0  0
 83 86  1  0  0  0  0
 86 87  2  0  0  0  0
 71 88  1  0  0  0  0
 88 89  2  0  0  0  0
 89 90  1  0  0  0  0
 90 91  1  0  0  0  0
 91 92  2  0  0  0  0
 92 93  1  0  0  0  0
 93 94  1  0  0  0  0
 94 95  2  0  0  0  0
 95 96  1  0  0  0  0
 96 97  2  0  0  0  0
 97 98  1  0  0  0  0
 98 99  1  0  0  0  0
 97100  1  0  0  0  0
100101  2  0  0  0  0
 93102  1  0  0  0  0
102103  2  0  0  0  0
103104  1  0  0  0  0
104105  2  0  0  0  0
105106  1  0  0  0  0
106107  1  0  0  0  0
105108  1  0  0  0  0
108109  2  0  0  0  0
 93110  1  0  0  0  0
110111  1  0  0  0  0
111112  1  0  0  0  0
112113  1  0  0  0  0
113114  1  0  0  0  0
112115  1  0  0  0  0
115116  1  0  0  0  0
 89117  1  0  0  0  0
117118  1  0  0  0  0
118119  1  0  0  0  0
119120  2  0  0  0  0
120121  1  0  0  0  0
121122  1  0  0  0  0
120123  1  0  0  0  0
123124  1  0  0  0  0
124125  1  0  0  0  0
125126  2  0  0  0  0
126127  1  0  0  0  0
127128  2  0  0  0  0
127129  1  0  0  0  0
129130  2  0  0  0  0
130131  1  0  0  0  0
131132  1  0  0  0  0
130133  1  0  0  0  0
133134  1  0  0  0  0
134135  1  0  0  0  0
135136  1  0  0  0  0
134137  2  0  0  0  0
137138  1  0  0  0  0
138139  2  0  0  0  0
138140  1  0  0  0  0
125141  1  0  0  0  0
141142  2  0  0  0  0
142143  1  0  0  0  0
143144  2  0  0  0  0
143145  1  0  0  0  0
145146  2  0  0  0  0
146147  1  0  0  0  0
147148  2  0  0  0  0
148149  1  0  0  0  0
149150  2  0  0  0  0
150151  1  0  0  0  0
151152  2  0  0  0  0
152153  1  0  0  0  0
153154  3  0  0  0  0
152155  1  0  0  0  0
155156  3  0  0  0  0
148157  1  0  0  0  0
157158  1  0  0  0  0
158159  1  0  0  0  0
159160  2  0  0  0  0
160161  1  0  0  0  0
161162  1  0  0  0  0
161163  1  0  0  0  0
 11  2  1  0  0  0  0
 23 17  1  0  0  0  0
 61 24  1  0  0  0  0
114 62  2  0  0  0  0
122118  2  0  0  0  0
140123  2  0  0  0  0
151142  1  0  0  0  0
163157  1  0  0  0  0
 10  5  1  0  0  0  0
 22 18  1  0  0  0  0
 33 27  1  0  0  0  0
 40 34  1  0  0  0  0
 60 41  2  0  0  0  0
113 64  2  0  0  0  0
140126  1  0  0  0  0
150145  1  0  0  0  0
162158  1  0  0  0  0
 23  7  1  0  0  0  0
 52 46  1  0  0  0  0
 59 53  1  0  0  0  0
111 65  2  0  0  0  0
137129  1  0  0  0  0
163147  1  0  0  0  0
110 67  2  0  0  0  0
 92 68  1  0  0  0  0
101 94  1  0  0  0  0
109102  1  0  0  0  0
 90 70  2  0  0  0  0
 79 72  1  0  0  0  0
 87 80  1  0  0  0  0
122 88  1  0  0  0  0
  1164  1  0  0  0  0
  6165  1  0  0  0  0
  9166  1  0  0  0  0
 17167  1  0  0  0  0
 18168  1  0  0  0  0
 19169  1  0  0  0  0
 20170  1  0  0  0  0
 21171  1  0  0  0  0
 22172  1  0  0  0  0
 22173  1  0  0  0  0
 23174  1  0  0  0  0
 28175  1  0  0  0  0
 29176  1  0  0  0  0
 31177  1  0  0  0  0
 31178  1  0  0  0  0
 31179  1  0  0  0  0
 32180  1  0  0  0  0
 33181  1  0  0  0  0
 35182  1  0  0  0  0
 36183  1  0  0  0  0
 38184  1  0  0  0  0
 38185  1  0  0  0  0
 38186  1  0  0  0  0
 39187  1  0  0  0  0
 40188  1  0  0  0  0
 47189  1  0  0  0  0
 48190  1  0  0  0  0
 50191  1  0  0  0  0
 50192  1  0  0  0  0
 50193  1  0  0  0  0
 51194  1  0  0  0  0
 52195  1  0  0  0  0
 54196  1  0  0  0  0
 55197  1  0  0  0  0
 57198  1  0  0  0  0
 57199  1  0  0  0  0
 57200  1  0  0  0  0
 58201  1  0  0  0  0
 59202  1  0  0  0  0
 69203  1  0  0  0  0
 73204  1  0  0  0  0
 74205  1  0  0  0  0
 76206  1  0  0  0  0
 76207  1  0  0  0  0
 77208  1  0  0  0  0
 77209  1  0  0  0  0
 77210  1  0  0  0  0
 78211  1  0  0  0  0
 79212  1  0  0  0  0
 81213  1  0  0  0  0
 82214  1  0  0  0  0
 84215  1  0  0  0  0
 84216  1  0  0  0  0
 85217  1  0  0  0  0
 85218  1  0  0  0  0
 85219  1  0  0  0  0
 86220  1  0  0  0  0
 87221  1  0  0  0  0
 91222  1  0  0  0  0
 95223  1  0  0  0  0
 96224  1  0  0  0  0
 98225  1  0  0  0  0
 98226  1  0  0  0  0
 99227  1  0  0  0  0
 99228  1  0  0  0  0
 99229  1  0  0  0  0
100230  1  0  0  0  0
101231  1  0  0  0  0
103232  1  0  0  0  0
104233  1  0  0  0  0
106234  1  0  0  0  0
106235  1  0  0  0  0
107236  1  0  0  0  0
107237  1  0  0  0  0
107238  1  0  0  0  0
108239  1  0  0  0  0
109240  1  0  0  0  0
114241  1  0  0  0  0
115242  1  0  0  0  0
115243  1  0  0  0  0
116244  1  0  0  0  0
116245  1  0  0  0  0
116246  1  0  0  0  0
119247  1  0  0  0  0
131248  1  0  0  0  0
131249  1  0  0  0  0
132250  1  0  0  0  0
132251  1  0  0  0  0
132252  1  0  0  0  0
135253  1  0  0  0  0
135254  1  0  0  0  0
136255  1  0  0  0  0
136256  1  0  0  0  0
136257  1  0  0  0  0
141258  1  0  0  0  0
146259  1  0  0  0  0
149260  1  0  0  0  0
157261  1  0  0  0  0
158262  1  0  0  0  0
159263  1  0  0  0  0
160264  1  0  0  0  0
161265  1  0  0  0  0
162266  1  0  0  0  0
162267  1  0  0  0  0
163268  1  0  0  0  0
M  END
