227

C         -1.17580       -3.02170       -9.70440
C         -0.51970       -4.20080       -9.98570
C         -0.32780       -5.32720       -9.07260
O         -0.63850       -5.40090       -7.89450
C          0.30840       -6.39720       -9.86370
C          0.68050       -7.66200       -9.41790
C          1.26140       -8.44720      -10.38510
C          1.45150       -8.00690      -11.70050
C          1.08460       -6.76120      -12.15370
C          0.49730       -5.94490      -11.18430
C          0.01350       -4.56590      -11.27480
C          0.10110       -3.76920      -12.39270
C          0.57060       -4.20300      -13.64770
N          0.92190       -4.48400      -14.70520
C         -0.22140       -2.40050      -12.45340
N         -0.41700       -1.27490      -12.58900
C          2.09940       -9.30130      -12.12520
C          3.64060       -9.32030      -12.27550
C          4.17470       -8.25340      -11.35250
C          3.99630       -8.67020      -10.10610
C          3.33770      -10.02620      -10.16390
C          3.96670      -10.57750      -11.45350
C          1.88850       -9.79180      -10.65810
C         -1.68750       -2.53710       -8.50440
C         -2.31040       -1.26670       -8.38480
N         -2.71230       -0.47180       -9.42290
C         -2.72590        0.92540       -9.23450
C         -3.83650        1.68000       -9.59510
C         -3.83180        3.04820       -9.40620
C         -2.73120        3.69340       -8.85720
C         -2.71320        5.17860       -8.66710
C         -1.62490        2.92900       -8.50200
C         -1.61480        1.56220       -8.68790
C         -3.23670       -0.99160      -10.62060
C         -3.00480       -0.32830      -11.82310
C         -3.51670       -0.83550      -13.00040
C         -4.25910       -2.01050      -13.01520
C         -4.76880       -2.56750      -14.30850
C         -4.50150       -2.65360      -11.80690
C         -4.00820       -2.15110      -10.61960
C         -2.46870       -0.91460       -7.03440
S         -3.12310        0.47220       -6.22380
C         -2.84320       -0.29650       -4.66550
C         -2.31170       -1.57550       -4.78340
N         -2.06460       -2.45790       -3.74660
C         -1.02810       -3.39710       -3.90370
C         -1.22990       -4.72960       -3.56080
C         -0.23010       -5.65640       -3.77600
C          0.98580       -5.28390       -4.33560
C          2.03990       -6.30400       -4.63640
C          1.18970       -3.94510       -4.64420
C          0.20050       -3.00690       -4.42820
C         -2.83680       -2.46210       -2.58120
C         -2.24080       -2.71270       -1.34640
C         -2.97270       -2.58030       -0.18240
C         -4.30640       -2.19270       -0.21000
C         -5.07500       -1.95080        1.05280
C         -4.91220       -2.01220       -1.44900
C         -4.19660       -2.15890       -2.61850
C         -2.08100       -1.90580       -6.14230
S         -1.47380       -3.31660       -6.93340
C         -3.13240        0.43210       -3.47190
C         -4.17560        1.30320       -3.22550
C         -5.24960        1.62000       -4.16990
C         -5.93390        0.62260       -4.85780
C         -6.93460        0.95810       -5.74850
C         -7.26080        2.28540       -5.96320
C         -6.59920        3.29390       -5.27490
C         -6.91460        4.73760       -5.54000
C         -6.03040        5.26560       -6.67110
C         -5.59910        2.94960       -4.37890
C         -4.09940        1.83710       -1.92280
S         -5.15550        2.89120       -1.01210
C         -4.11840        2.70400        0.36360
C         -4.04640        3.09890        1.70900
C         -4.93810        3.86710        2.48740
C         -4.64970        4.06420        3.87740
N         -5.58310        4.77240        4.49400
S         -6.72670        5.16000        3.41430
N         -6.07400        4.43890        2.11900
C         -3.44310        3.55340        4.40090
C         -2.86070        3.71580        5.66720
S         -3.20150        4.47050        7.18760
C         -1.62460        3.97740        7.76160
C         -0.93260        4.19990        8.97110
C         -1.44770        5.04970       10.04320
C         -0.61640        5.96310       10.68890
C         -1.12710        6.77720       11.68040
C         -2.46470        6.69890       12.02970
C         -3.30990        5.80220       11.38940
C         -4.77430        5.74780       11.71530
C         -5.56860        6.58720       10.71240
C         -2.79100        4.98470       10.39710
C          0.32350        3.62430        8.93670
S          0.68020        2.85940        7.40110
C         -0.89130        3.26470        6.81120
C         -1.60620        3.10870        5.61600
N         -1.39840        2.56930        4.37660
C         -2.51960        2.81340        3.60420
C         -2.86810        2.51240        2.25710
N         -2.27380        1.74900        1.26500
C         -3.01910        1.87970        0.12540
C         -3.00820        1.38160       -1.18370
S         -2.00930        0.33530       -2.12220
C         -1.25600        0.72450        1.30890
C          0.03300        1.16260        0.61300
C         -0.10120        2.01550        4.07310
C          0.06410        0.60890        4.64970
C          1.34880        3.56790        9.94580
C          2.69930        3.74890        9.57210
N          3.23280        4.04330        8.37780
N          4.50790        4.15300        8.61770
C          5.43980        4.49260        7.58160
C          5.62160        6.00550        7.50260
N          4.89450        3.97500        9.84930
C          3.76580        3.69300       10.51140
C          3.52790        3.43010       11.87860
C          2.18990        3.27190       12.22950
C          1.13720        3.30520       11.29590
Cl        -0.44960        2.93400       11.85790
Cl         1.80770        2.92950       13.87210
C          4.59110        3.40120       12.84260
C          5.81660        2.86500       12.62140
C          6.14060        1.90630       11.52860
O          5.40040        1.46940       10.67510
C          7.53070        1.47960       11.77570
C          8.27140        0.57920       11.01170
C          9.53880        0.34850       11.48840
C         10.03150        0.95590       12.65190
C          9.30970        1.83600       13.42110
C          8.01910        2.09600       12.94530
C          6.98350        2.97260       13.48130
C          7.11900        3.80960       14.55650
C          6.13600        4.71500       15.01180
N          5.40810        5.49430       15.43800
C          8.27970        3.90960       15.35250
N          9.18930        4.04030       16.04120
C         11.37010        0.26960       12.53930
C         12.54040        1.12640       12.01160
C         13.56000        0.10650       11.55880
C         13.09500       -0.46690       10.45620
C         11.75310        0.15590       10.14540
C         12.00160        1.58330       10.64970
C         10.82190       -0.40550       11.24120
H         -1.30340       -2.34580      -10.54020
H          0.51170       -7.96060       -8.39490
H          1.23720       -6.44000      -13.17040
H          1.59860       -9.84760      -12.92210
H          3.99450       -9.28710      -13.30240
H          4.56130       -7.30930      -11.68910
H          4.20430       -8.14340       -9.19300
H          3.41650      -10.63700       -9.26810
H          5.03730      -10.75330      -11.35860
H          3.47750      -11.47720      -11.82450
H          1.25060      -10.65920      -10.49790
H         -4.70000        1.18840      -10.01790
H         -4.70140        3.62350       -9.68860
H         -3.69490        5.60800       -8.84810
H         -2.00380        5.63580       -9.35690
H         -2.39990        5.43060       -7.65540
H         -0.75670        3.41450       -8.08070
H         -0.74610        0.97870       -8.42030
H         -2.41200        0.57260      -11.83060
H         -3.31820       -0.31970      -13.92760
H         -3.93660       -2.93350      -14.91000
H         -5.45700       -3.39110      -14.13600
H         -5.27880       -1.79680      -14.88390
H         -5.09150       -3.55880      -11.79170
H         -4.21160       -2.65930       -9.68830
H         -2.17870       -5.03310       -3.14290
H         -0.40540       -6.69190       -3.52260
H          3.03630       -5.89050       -4.49390
H          1.92650       -7.18290       -4.00620
H          1.95140       -6.61710       -5.67720
H          2.13430       -3.63310       -5.06620
H          0.36870       -1.96790       -4.67290
H         -1.19440       -2.97660       -1.30710
H         -2.48930       -2.76160        0.76770
H         -6.06710       -2.39380        0.99230
H         -5.20050       -0.87870        1.21300
H         -4.55610       -2.36690        1.91310
H         -5.95830       -1.74580       -1.49650
H         -4.68300       -2.02740       -3.57290
H         -5.68890       -0.41390       -4.68450
H         -7.46390        0.17960       -6.27850
H         -8.04100        2.54120       -6.66560
H         -7.96420        4.84370       -5.82130
H         -6.74020        5.32700       -4.63800
H         -6.24960        6.31200       -6.87180
H         -6.20000        4.69110       -7.57910
H         -4.98090        5.17180       -6.40210
H         -5.07230        3.72560       -3.84250
H          0.42300        6.03820       10.40350
H         -0.47890        7.48050       12.18220
H         -2.85560        7.34020       12.80650
H         -5.12410        4.71420       11.67460
H         -4.94560        6.12810       12.72410
H         -6.62990        6.55740       10.94760
H         -5.23550        7.62240       10.73970
H         -5.42410        6.20820        9.70320
H         -3.43530        4.26950        9.90720
H         -1.65230       -0.15050        0.78000
H         -1.08010        0.43440        2.34100
H          0.38830        2.12020        0.98840
H          0.80560        0.41420        0.76610
H         -0.13740        1.26600       -0.45490
H          0.64700        2.66830        4.53610
H          0.06090        2.03460        3.00000
H          0.06570        0.65040        5.73550
H         -0.74710       -0.04700        4.34000
H          1.00760        0.18310        4.32020
H          6.38640        4.00440        7.81990
H          5.03960        4.10450        6.64340
H          6.00000        6.38740        8.44750
H          6.32920        6.25170        6.71630
H          4.67170        6.48660        7.28310
H          4.36220        3.83950       13.80580
H          7.84800        0.12510       10.12950
H          9.69800        2.28370       14.32040
H         11.65090       -0.36440       13.37790
H         12.88690        1.89470       12.69720
H         14.45860       -0.12470       12.10000
H         13.52730       -1.27290        9.89280
H         11.38350        0.03970        9.12990
H         12.75710        2.10180       10.06150
H         11.10370        2.19550       10.71050
H         10.73780       -1.49030       11.21330
