156

C          9.27660        5.36810        2.29880
C         10.36540        4.66990        1.88180
C         10.41670        3.68770        0.76420
O          9.49810        3.22920        0.11990
C         11.84900        3.43180        0.52420
C         12.38650        2.59020       -0.44860
C         13.75870        2.53530       -0.44420
C         14.54260        3.27080        0.45610
C         14.02640        4.10420        1.41860
C         12.62830        4.16960        1.43660
C         11.73440        4.91870        2.31210
C         12.11930        5.65950        3.39810
C         11.24750        6.30710        4.29990
N         10.61640        6.84410        5.09530
C         13.45840        5.86130        3.79460
N         14.52180        6.07570        4.17080
C         15.83530        2.74130       -0.11320
C         16.62090        3.68870       -1.04440
C         17.54290        2.76370       -1.80570
C         16.80160        2.06450       -2.65560
C         15.36590        2.50530       -2.48330
C         15.58360        3.98360       -2.13570
C         14.96150        1.91890       -1.11400
C          7.89130        5.13590        1.99600
C          7.01340        6.23200        1.99080
C          5.68300        6.07900        1.68800
C          5.16170        4.80970        1.40130
C          6.01880        3.70670        1.49090
C          7.35430        3.86170        1.77530
C          3.77110        4.62230        1.06940
C          2.87260        5.50450        0.50260
C          3.17950        6.82210       -0.06030
C          4.26500        6.99570       -0.91590
C          4.49970        8.23290       -1.48310
C          3.65940        9.29940       -1.21050
C          2.57020        9.14170       -0.36360
C          1.61810       10.27350       -0.10720
C          0.44770       10.21040       -1.09080
C          2.33830        7.89690        0.20270
C          1.58170        4.94070        0.41630
S          0.06900        5.55260       -0.20940
C         -0.66960        4.03160        0.15920
C         -1.93500        3.42480        0.10830
C         -3.20520        3.94160       -0.22680
C         -4.36240        3.11210       -0.04230
N         -5.48890        3.74390       -0.33280
S         -5.12580        5.24980       -0.80380
N         -3.51610        5.15570       -0.65330
C         -4.18280        1.76570        0.34290
C         -5.09540        0.70180        0.44390
S         -6.79490        0.40920        0.29200
C         -6.50230       -1.29300        0.56550
C         -7.35280       -2.41860        0.57940
C         -8.78000       -2.31730        0.26440
C         -9.36290       -3.16400       -0.67600
C        -10.69680       -3.01340       -1.00100
C        -11.45610       -2.02280       -0.40110
C        -10.88940       -1.16740        0.53470
C        -11.68690       -0.05330        1.14780
C        -11.48910        1.23730        0.35010
C         -9.54880       -1.32170        0.85620
C         -6.64540       -3.58270        0.81320
S         -4.91920       -3.28830        0.98350
C         -5.15430       -1.59370        0.76410
C         -4.34970       -0.44940        0.70110
N         -3.01670       -0.14150        0.80350
C         -2.89110        1.22430        0.58990
C         -1.77400        2.09910        0.59980
N         -0.45800        1.93580        0.99230
C          0.20800        3.10150        0.72100
C          1.49680        3.62830        0.88170
S          3.02600        3.07980        1.46510
C          0.13160        0.96100        1.88110
C          1.15620        0.07520        1.17350
C         -2.05290       -1.18990        0.54550
C         -1.69040       -1.24450       -0.93720
C         -7.11810       -4.93260        0.98280
C         -6.26680       -6.01380        0.72210
C         -6.69530       -7.31110        0.86260
C         -8.00140       -7.58740        1.28970
C         -8.82810       -6.50120        1.62690
C         -8.40720       -5.20550        1.46420
C         -8.50990       -8.91420        1.47540
C         -8.17410      -10.06340        0.82480
C         -7.44420      -10.17030       -0.46720
O         -6.87730       -9.29940       -1.09060
C         -7.61700      -11.56970       -0.90290
C         -7.16480      -12.15930       -2.04800
C         -7.44200      -13.52530       -2.27490
C         -6.99200      -14.18700       -3.43570
C         -7.27010      -15.50900       -3.64520
C         -8.01490      -16.20570       -2.68370
F         -8.27870      -17.50610       -2.90790
C         -8.47480      -15.61290       -1.54110
C         -8.19610      -14.25180       -1.30780
C         -8.65320      -13.61260       -0.13220
C         -8.36260      -12.28930        0.07110
C         -8.68010      -11.38310        1.16850
C         -9.27230      -11.74520        2.35000
C         -9.48770      -10.89080        3.45230
N         -9.67740      -10.27020        4.39990
C         -9.72110      -13.05090        2.63970
N        -10.11450      -14.08900        2.93190
H          9.45370        6.24330        2.91370
H         11.74460        2.04210       -1.12040
H         14.64290        4.66250        2.10280
H         16.47470        2.20400        0.58450
H         17.08100        4.53780       -0.54670
H         18.59630        2.67610       -1.61470
H         17.11180        1.27610       -3.31600
H         14.68260        2.27670       -3.29670
H         14.69080        4.49080       -1.77450
H         16.00900        4.54330       -2.96710
H         15.01750        0.83240       -1.08280
H          7.39980        7.21690        2.21040
H          5.02920        6.93690        1.68900
H          5.62210        2.71620        1.31930
H          7.98410        2.99160        1.85200
H          4.91230        6.16000       -1.13700
H          5.34070        8.36550       -2.14780
H          3.84960       10.26270       -1.66140
H          2.13540       11.22840       -0.21950
H          1.23330       10.20960        0.91260
H         -0.24890       11.02450       -0.90540
H         -0.08290        9.26660       -0.98700
H          0.80940       10.28830       -2.11370
H          1.49820        7.76390        0.86900
H         -8.76630       -3.92800       -1.15220
H        -11.14650       -3.66900       -1.73200
H        -12.49830       -1.91110       -0.66360
H        -11.36500        0.10900        2.17850
H        -12.74670       -0.31540        1.15690
H        -12.06070        2.04930        0.79340
H        -10.43810        1.51680        0.33710
H        -11.81890        1.10040       -0.67730
H         -9.09840       -0.66690        1.58820
H         -0.66720        0.38030        2.34450
H          0.64260        1.50960        2.68100
H          0.73570       -0.39540        0.28940
H          1.50710       -0.69620        1.85370
H          2.01010        0.67160        0.86440
H         -2.52480       -2.12930        0.84430
H         -1.15950       -1.06240        1.14940
H         -2.58120       -1.42230       -1.53550
H         -1.24590       -0.30400       -1.25700
H         -0.98440       -2.05030       -1.11900
H         -5.25610       -5.81950        0.39230
H         -6.01060       -8.11860        0.66760
H         -9.82140       -6.69460        2.00560
H         -9.06100       -4.38960        1.72950
H         -9.29750       -8.98420        2.21770
H         -6.59980      -11.58930       -2.77050
H         -6.42050      -13.62870       -4.16190
H         -6.93380      -16.03010       -4.52740
H         -9.04390      -16.18070       -0.82170
H         -9.22700      -14.18790        0.57630
