260

C         -5.49950       -9.71780       -2.78780
C         -5.30090      -10.83190       -2.00480
C         -5.64870      -10.96850       -0.58920
O         -6.09930      -10.11360        0.15500
C         -5.37330      -12.37160       -0.22960
C         -5.54460      -12.96750        1.01740
C         -5.19310      -14.29580        1.05440
C         -4.70680      -14.98030       -0.06630
C         -4.52990      -14.40230       -1.30160
C         -4.88300      -13.05130       -1.36200
C         -4.80560      -12.10350       -2.47470
C         -4.30720      -12.38820       -3.72410
C         -4.08380      -11.45120       -4.75060
N         -3.82790      -10.75350       -5.62860
C         -3.90610      -13.66930       -4.15150
N         -3.58660      -14.68600       -4.58090
C         -4.55770      -16.27740        0.69010
C         -5.64210      -17.34810        0.44710
C         -5.51430      -18.26930        1.63870
C         -5.97420      -17.62090        2.70120
C         -6.42080      -16.25060        2.24530
C         -6.91880      -16.59070        0.83470
C         -5.09950      -15.51350        1.94080
C         -5.91730       -8.43280       -2.44450
C         -6.03740       -7.38700       -3.39590
N         -5.97010       -7.52900       -4.75640
C         -5.40770       -6.47750       -5.50690
C         -4.22310       -5.88160       -5.08210
C         -3.67360       -4.84190       -5.80410
C         -4.27940       -4.37820       -6.96590
C         -3.68930       -3.23370       -7.73010
C         -5.45470       -4.98850       -7.38820
C         -6.01940       -6.02440       -6.67100
C         -6.52900       -8.62800       -5.43230
C         -7.69320       -9.23230       -4.96360
C         -8.22620      -10.31630       -5.63160
C         -7.63040      -10.81300       -6.78510
C         -8.19210      -12.00360       -7.49910
C         -6.48550      -10.18420       -7.26020
C         -5.93250       -9.10810       -6.59580
C         -6.21140       -6.14870       -2.75380
S         -6.36470       -4.50730       -3.29940
C         -6.50290       -3.95520       -1.63820
C         -6.47340       -4.99070       -0.73190
N         -6.50450       -4.81320        0.65280
C         -5.44600       -5.36140        1.38520
C         -4.16200       -5.35080        0.84340
C         -3.10490       -5.90090        1.54050
C         -3.28990       -6.46590        2.79500
C         -2.14590       -7.07870        3.54480
C         -4.57310       -6.47040        3.32980
C         -5.64050       -5.93370        2.64000
C         -7.69300       -4.39950        1.26680
C         -7.65510       -3.60590        2.40980
C         -8.82770       -3.24990        3.04540
C        -10.06200       -3.66590        2.56180
C        -11.32990       -3.34370        3.29180
C        -10.09200       -4.42420        1.39860
C         -8.92770       -4.78560        0.75260
C         -6.29690       -6.24200       -1.37180
S         -6.16290       -7.85930       -0.79100
C         -6.37540       -2.55300       -1.31520
C         -7.25550       -1.65350       -0.76390
C         -8.69680       -1.85080       -0.63540
C         -9.39140       -2.65510       -1.53740
C        -10.76760       -2.74120       -1.46950
C        -11.46970       -2.01760       -0.52080
C        -10.79570       -1.21700        0.39070
C        -11.53440       -0.36190        1.37880
C        -11.61950        1.07830        0.86900
C         -9.41250       -1.15540        0.33270
C         -6.59680       -0.43420       -0.44960
S         -7.12620        1.07150        0.26730
C         -5.52330        1.70540        0.10430
C         -4.79450        2.87720        0.38480
C         -5.18430        4.13020        0.90430
C         -4.19750        5.16690        1.03930
N         -4.71200        6.29770        1.49630
S         -6.29810        6.07820        1.74080
N         -6.39090        4.53060        1.27360
C         -2.84650        4.86690        0.75910
C         -1.66390        5.59080        0.98680
S         -1.16840        7.13480        1.59460
C          0.49880        6.63030        1.45150
C          1.71580        7.26340        1.77930
C          1.76270        8.55860        2.46240
C          2.50110        8.71250        3.63400
C          2.44810        9.90470        4.32900
C          1.66490       10.94950        3.86630
C          0.93900       10.82040        2.69020
C          0.05310       11.92850        2.20050
C         -1.38640       11.69730        2.66460
C          0.99110        9.61760        2.00040
C          2.79340        6.45100        1.48090
S          2.30780        4.89040        0.84360
C          0.64220        5.33610        0.94970
C         -0.59830        4.74100        0.68290
N         -1.07380        3.52840        0.25880
C         -2.45460        3.58550        0.28330
C         -3.45590        2.62970       -0.02280
N         -3.38560        1.36260       -0.58230
C         -4.63620        0.80670       -0.48310
C         -5.24960       -0.41330       -0.79720
S         -4.74750       -1.90750       -1.49300
C         -2.51150        0.89170       -1.63540
C         -3.12810        1.13090       -3.01410
C         -0.19050        2.38490        0.20520
C          0.68770        2.39240       -1.04660
C          4.18560        6.75600        1.53860
C          4.77440        7.98610        1.54660
C          6.19010        7.93960        1.56990
C          7.09370        9.02090        1.56010
C          6.61300       10.38700        1.60950
C          5.59190       10.87680        2.36220
C          5.34980       12.26210        2.15740
C          4.37970       13.07720        2.74090
C          4.29430       14.40990        2.39320
C          3.27550       15.30160        3.04490
C          3.85080       15.93550        4.31280
C          5.19560       14.93990        1.46200
C          6.16510       14.15920        0.86850
C          6.23620       12.81990        1.21770
S          7.34820       11.62880        0.60890
C          8.44490        8.69770        1.49100
C          8.91920        7.36680        1.50130
C          8.02200        6.28830        1.50210
C          8.48830        4.91400        1.39300
S          7.82710        3.90030        0.12150
C          8.78930        2.55710        0.65740
C          8.77990        1.26980        0.14210
C          9.55040        0.31180        0.76450
C         10.34500        0.61790        1.87740
C         11.08330       -0.48840        2.57750
C         10.13550       -1.24270        3.51270
C         10.38110        1.91320        2.35540
C          9.59290        2.90180        1.76080
C          9.41420        4.26280        2.14230
C          6.67170        6.60820        1.52850
S          5.36490        5.45900        1.53010
C         10.33620        7.30430        1.41060
C         10.92540        8.51550        1.29580
S          9.77050        9.82370        1.36280
C         12.36210        8.81340        0.98270
C         13.28690        7.94680        1.77850
C         13.59730        6.70990        1.37530
C         12.99290        6.14410        0.19640
C         12.86120        4.79970        0.04020
S         11.93550        4.09510       -1.28060
C         12.31130        2.47710       -0.73480
C         11.79050        1.39070       -1.38920
C         10.90350        1.59150       -2.46710
N         10.17690        1.74090       -3.34200
C         12.03220        0.03900       -1.09420
N         12.19690       -1.08500       -0.92140
N         13.12480        2.49650        0.35110
C         13.73860        1.32530        0.94620
C         14.96950        0.88650        0.16170
C         13.42490        3.74710        0.87720
O         14.08530        3.88090        1.88440
C         12.41630        7.06560       -0.83960
C         12.63220        8.53930       -0.50860
H         -5.28240       -9.83920       -3.84140
H         -5.91550      -12.39940        1.85640
H         -4.14790      -14.94230       -2.15160
H         -3.55180      -16.69150        0.72810
H         -5.61240      -17.81120       -0.53550
H         -5.06480      -19.24430        1.59810
H         -5.98560      -17.94610        3.72510
H         -7.10120      -15.71410        2.90140
H         -7.12310      -15.71970        0.21480
H         -7.79320      -17.23930        0.85200
H         -4.45400      -15.41870        2.81230
H         -3.73530       -6.24420       -4.18890
H         -2.75470       -4.38750       -5.46350
H         -2.60420       -3.23690       -7.65640
H         -4.05130       -2.28960       -7.32160
H         -3.97300       -3.27830       -8.77870
H         -5.94020       -4.64300       -8.28920
H         -6.93740       -6.48480       -7.00510
H         -8.17300       -8.85350       -4.07290
H         -9.12630      -10.77880       -5.25260
H         -7.53210      -12.86150       -7.36920
H         -8.27350      -11.80770       -8.56670
H         -9.17440      -12.26420       -7.11300
H         -6.00690      -10.55430       -8.15420
H         -5.03180       -8.64470       -6.96580
H         -3.99410       -4.90400       -0.12650
H         -2.11690       -5.88440        1.10210
H         -2.23800       -6.89100        4.61260
H         -1.19530       -6.68040        3.19750
H         -2.13660       -8.15890        3.39420
H         -4.74190       -6.91430        4.30060
H         -6.63240       -5.96590        3.06480
H         -6.70040       -3.28410        2.79950
H         -8.78210       -2.64130        3.93760
H        -11.62590       -4.19040        3.91270
H        -11.20050       -2.48020        3.93940
H        -12.13710       -3.14470        2.59090
H        -11.04180       -4.74960        1.00000
H         -8.96770       -5.39160       -0.14070
H         -8.85510       -3.18820       -2.30750
H        -11.29980       -3.36400       -2.17410
H        -12.54890       -2.07210       -0.49210
H        -11.00990       -0.37070        2.33580
H        -12.54270       -0.75030        1.53350
H        -10.62250        1.48840        0.72610
H        -12.14320        1.11160       -0.08410
H        -12.15410        1.70300        1.58090
H         -8.88610       -0.55520        1.05870
H          3.09570        7.88970        4.00300
H          3.01010       10.01680        5.24550
H          1.60640       11.86960        4.43110
H          0.07830       11.96570        1.10960
H          0.40910       12.88770        2.58190
H         -1.75690       10.74640        2.28870
H         -1.43450       11.67600        3.75110
H         -2.03480       12.49200        2.30340
H          0.42450        9.50210        1.08780
H         -1.56350        1.41270       -1.58730
H         -2.34640       -0.17990       -1.48430
H         -2.43750        0.79920       -3.78470
H         -4.05900        0.58170       -3.12540
H         -3.33040        2.19070       -3.15620
H         -0.78470        1.47390        0.28310
H          0.46260        2.42820        1.08450
H          0.09830        2.51800       -1.95240
H          1.24190        1.46030       -1.11240
H          1.40010        3.21110       -0.99840
H          4.20930        8.89700        1.48890
H          5.04000       10.28780        3.07300
H          3.69380       12.64690        3.45450
H          2.97450       16.09000        2.35220
H          2.38910       14.71930        3.30440
H          3.11340       16.57990        4.78580
H          4.14430       15.16360        5.02090
H          4.72950       16.53010        4.07330
H          5.12430       15.98550        1.20000
H          6.85230       14.57460        0.14780
H          8.17060        1.02800       -0.71460
H          9.54040       -0.70210        0.39310
H         11.90920       -0.07910        3.16330
H         11.48770       -1.18850        1.84230
H          9.72720       -0.56760        4.26180
H          9.30900       -1.67040        2.95020
H         10.66440       -2.04660        4.01890
H         10.99600        2.16720        3.20750
H          9.91910        4.71060        2.98070
H         10.86960        6.37280        1.42350
H         12.55340        9.86860        1.19750
H         13.67940        8.33900        2.70390
H         14.23160        6.07020        1.96820
H         13.00490        0.52270        1.00010
H         14.02820        1.62380        1.95740
H         14.70390        0.60020       -0.85350
H         15.41860        0.02750        0.65090
H         15.70140        1.69050        0.12470
H         12.87350        6.83120       -1.80550
H         11.34780        6.85340       -0.94560
H         11.97900        9.15560       -1.12720
H         13.66690        8.81650       -0.71930
