270

C          9.37110       -9.57420        1.24140
C          9.28290      -10.79830        0.61850
C          8.34670      -11.17140       -0.44380
O          7.64580      -10.43670       -1.11950
C          8.40180      -12.64360       -0.53860
C          7.64320      -13.46160       -1.37060
C          7.89410      -14.80440       -1.21710
C          8.83380      -15.29720       -0.30360
C          9.59430      -14.49970        0.51920
C          9.35200      -13.13120        0.38040
C          9.95560      -11.99140        1.07100
C         10.98070      -12.06530        1.98420
C         11.66430      -10.96330        2.53170
N         12.30110      -10.12770        2.99990
C         11.51780      -13.26450        2.48910
N         11.98610      -14.19520        2.97420
C          8.56430      -16.73330       -0.67880
C          9.59060      -17.44840       -1.59120
C         10.26380      -16.37130       -2.40480
C          9.37550      -15.90400       -3.27180
C          8.08540      -16.65670       -3.05980
C          8.63780      -18.03050       -2.64760
C          7.51780      -16.18360       -1.69880
C          8.66290       -8.39430        1.02180
C          8.67430       -7.29790        1.92110
N          9.26070       -7.28880        3.16190
C          9.74410       -6.06890        3.66920
C          9.50850       -5.70860        4.99340
C          9.98390       -4.50730        5.47600
C         10.69930       -3.63590        4.66040
C         11.20540       -2.33590        5.20570
C         10.93580       -4.00780        3.34400
C         10.46970       -5.21020        2.84900
C          9.30710       -8.43110        3.98300
C          8.24390       -9.33110        4.01170
C          8.33240      -10.48090        4.77030
C          9.46030      -10.75100        5.53690
C          9.58200      -12.02060        6.32140
C         10.49000       -9.81720        5.54680
C         10.42440       -8.67250        4.77800
C          7.94770       -6.21750        1.39850
S          7.53550       -4.63930        1.99290
C          6.53930       -4.34570        0.56960
C          6.60660       -5.39000       -0.34770
N          6.03410       -5.39100       -1.60770
C          5.58450       -6.62780       -2.10800
C          4.81010       -7.45420       -1.29870
C          4.42510       -8.70050       -1.74830
C          4.79240       -9.14960       -3.01040
C          4.42620      -10.52930       -3.46090
C          5.53840       -8.30520       -3.82250
C          5.93570       -7.05840       -3.38260
C          6.09030       -4.26730       -2.43670
C          5.10780       -4.06830       -3.40540
C          5.13250       -2.94140       -4.20250
C          6.12240       -1.97850       -4.05640
C          6.13080       -0.73430       -4.89100
C          7.10660       -2.18920       -3.09690
C          7.10120       -3.31640       -2.30230
C          7.38240       -6.46320        0.15200
S          7.68710       -8.06570       -0.41200
C          5.73760       -3.17630        0.54020
C          5.89560       -2.04470        1.32330
C          4.86710       -1.12730        1.14350
C          4.48220        0.23830        1.68940
C          5.53280        1.23670        1.24720
C          5.25530        2.24970        0.34200
C          6.24680        3.13020       -0.05390
C          7.53990        3.02150        0.43610
C          8.62360        3.95190       -0.02850
C          9.33600        3.37310       -1.25260
C          7.81830        1.99680        1.33210
C          6.83170        1.11680        1.73090
C          4.28720        0.18520        3.19500
C          3.49470       -0.82630        3.72560
C          3.26920       -0.90710        5.08570
C          3.82530        0.02210        5.95560
C          3.62050       -0.09010        7.43930
C          4.73540       -0.92660        8.07010
C          4.61170        1.03290        5.42070
C          4.83840        1.11910        4.05850
C          3.13960        0.43620        1.01270
C          2.86350       -0.62300        0.16810
C          3.91190       -1.57080        0.23500
S          4.27450       -3.10750       -0.42650
S          1.33620       -0.51210       -0.61960
C          1.02430        0.98820        0.22250
C         -0.16850        1.71930        0.10770
C         -0.26500        2.89300        0.89390
C          0.80350        3.30110        1.72350
C          1.96310        2.57700        1.81660
O          3.05090        2.89760        2.55760
C          2.99190        3.99270        3.44770
C          2.18980        3.68200        4.70740
C          2.08340        1.37410        1.05930
C         -1.47500        3.60120        0.80440
C         -2.54030        3.18920       -0.01180
C         -2.40300        2.00880       -0.79960
C         -1.23020        1.30640       -0.72700
O         -3.49120        1.67960       -1.53510
C         -3.41210        0.61480       -2.45990
C         -2.63300        0.99340       -3.71530
C         -3.64450        4.06140        0.10530
C         -3.40440        5.10570        0.97860
S         -1.83580        5.06280        1.69540
C         -4.54580        5.94610        1.03070
S         -5.05180        7.37480        1.82950
C         -6.60230        7.30070        1.00770
C         -6.67580        6.21210        0.16120
C         -5.51500        5.44460        0.17060
C         -5.02600        4.17610       -0.50370
C         -4.87700        4.37780       -2.00430
C         -5.33240        3.45660       -2.93480
C         -5.14450        3.67540       -4.28810
C         -4.49530        4.81210       -4.74890
C         -4.25280        5.02020       -6.21650
C         -2.92570        4.38520       -6.63700
C         -4.03170        5.72740       -3.81280
C         -4.21940        5.51450       -2.46110
C         -5.96340        3.04870       -0.12450
C         -5.58770        2.04040        0.75000
C         -6.48030        1.04130        1.09600
C         -7.77130        1.02580        0.58880
C         -8.75080       -0.03600        0.99910
C         -9.53730        0.41110        2.23300
C         -8.15130        2.04850       -0.27120
C         -7.26270        3.04580       -0.62150
C         -7.61290        8.29390        1.25960
C         -8.92440        8.11040        0.78280
C         -9.86650        9.07410        1.04000
C        -11.30380        9.09810        0.65500
O        -11.92420        8.24770        0.06320
C        -11.80230       10.39600        1.18380
C        -10.75410       11.06000        1.85620
C         -9.55530       10.24230        1.76550
C         -8.27080       10.42500        2.24550
C         -7.31880        9.45240        1.98930
C        -10.99330       12.27650        2.47110
C        -12.26480       12.82000        2.39240
C        -13.29510       12.19420        1.67970
C        -13.05710       10.94350        1.08470
C        -14.59210       12.82550        1.63110
C        -15.45960       12.81270        0.58990
C        -15.12380       12.42080       -0.81020
O        -14.06640       12.01140       -1.23480
C        -16.32120       12.73510       -1.60920
C        -16.47810       12.53110       -2.97880
C        -17.70520       12.91120       -3.46420
C        -18.70440       13.46060       -2.64770
C        -18.56200       13.67000       -1.29760
C        -17.31900       13.28740       -0.78080
C        -16.81490       13.34750        0.58630
C        -17.51970       13.77810        1.67860
C        -18.83800       14.28050        1.63500
N        -19.90380       14.70490        1.67650
C        -17.05020       13.78180        3.00980
N        -16.75900       13.81240        4.12050
C        -19.66990       13.61280       -3.79600
C        -19.86240       15.02750       -4.39600
C        -18.58370       15.78340       -4.13240
C        -17.63900       15.26290       -4.90430
C        -18.26190       14.14550       -5.70420
C        -19.68250       14.70290       -5.88770
C        -18.55790       12.99990       -4.70470
H         10.05680       -9.52570        2.07710
H          6.92860      -13.04110       -2.06100
H         10.31300      -14.89420        1.21810
H          8.20470      -17.37530        0.12310
H         10.24890      -18.14120       -1.07380
H         11.26750      -16.02980       -2.23200
H          9.48890      -15.09360       -3.96800
H          7.37300      -16.62960       -3.88050
H          9.16330      -18.53410       -3.45770
H          7.88170      -18.69470       -2.23060
H          6.47610      -16.46900       -1.56270
H          8.94700       -6.37250        5.63380
H          9.79080       -4.23400        6.50330
H         10.39250       -1.77190        5.66090
H         11.95590       -2.51580        5.97490
H         11.65390       -1.73210        4.42110
H         11.49830       -3.35230        2.69520
H         10.67230       -5.49460        1.82690
H          7.36060       -9.13550        3.42130
H          7.50800      -11.17970        4.76750
H          8.64520      -12.57230        6.32100
H         10.35550      -12.65420        5.88620
H          9.86690      -11.81070        7.35090
H         11.37070      -10.00330        6.14270
H         11.24690       -7.97450        4.76920
H          4.52340       -7.11310       -0.31400
H          3.83600       -9.33910       -1.10610
H          3.42960      -10.80130       -3.11890
H          4.46590      -10.61310       -4.54430
H          5.13440      -11.24080       -3.03620
H          5.83230       -8.63580       -4.80830
H          6.53490       -6.41970       -4.01490
H          4.31910       -4.79710       -3.51670
H          4.35740       -2.80250       -4.94250
H          5.82930        0.12280       -4.28800
H          5.44320       -0.82240       -5.72840
H          7.12980       -0.53530       -5.27540
H          7.89280       -1.45820       -2.97260
H          7.88310       -3.46280       -1.57170
H          6.73300       -1.93290        1.98810
H          4.25990        2.36270       -0.05830
H          6.00740        3.91760       -0.75490
H          8.19360        4.92160       -0.28760
H          9.35070        4.10340        0.77210
H         10.11940        4.04670       -1.59240
H          9.78410        2.41230       -1.00970
H          8.62850        3.22400       -2.06530
H          8.81970        1.88950        1.72530
H          7.06890        0.33490        2.43660
H          3.04930       -1.55750        3.06590
H          2.64960       -1.70110        5.47800
H          3.61870        0.90470        7.89050
H          2.65690       -0.56020        7.64590
H          4.74770       -1.92540        7.63940
H          5.70330       -0.46470        7.88810
H          4.58720       -1.01220        9.14420
H          5.05190        1.76940        6.07940
H          5.44110        1.92500        3.67030
H          0.66280        4.21290        2.28230
H          4.03670        4.18100        3.70860
H          2.59730        4.88220        2.94080
H          1.14780        3.48690        4.46740
H          2.60170        2.80000        5.19220
H          2.24190        4.52480        5.39100
H         -1.07780        0.40190       -1.29460
H         -4.45400        0.40480       -2.71620
H         -2.98720       -0.27940       -1.98760
H         -2.68180        0.18180       -4.43610
H         -1.59070        1.19410       -3.48050
H         -3.06640        1.89000       -4.15210
H         -7.53480        6.00210       -0.44740
H         -5.83140        2.55880       -2.60690
H         -5.51280        2.94800       -4.99870
H         -5.06450        4.57220       -6.79360
H         -4.22560        6.08890       -6.43830
H         -2.74180        4.55280       -7.69580
H         -2.10380        4.81550       -6.06890
H         -2.94220        3.31280       -6.45420
H         -3.51970        6.61910       -4.14620
H         -3.84950        6.24140       -1.75180
H         -4.59220        2.02430        1.16570
H         -6.16410        0.25940        1.77230
H         -8.21940       -0.96230        1.22700
H         -9.44740       -0.23340        0.18150
H        -10.08300        1.32790        2.02180
H        -10.24840       -0.35620        2.53060
H         -8.86110        0.60020        3.06380
H         -9.15440        2.06230       -0.67380
H         -7.57780        3.82350       -1.30150
H         -9.20200        7.22470        0.23450
H         -8.00630       11.30750        2.80820
H         -6.31210        9.58830        2.35820
H        -10.21140       12.79330        3.00690
H        -12.46640       13.76940        2.86800
H        -13.84600       10.40320        0.58740
H        -14.86470       13.37570        2.52370
H        -15.68220       12.10220       -3.56730
H        -19.34020       14.09440       -0.68580
H        -20.60880       13.07080       -3.70260
H        -20.78270       15.52230       -4.09800
H        -18.48730       16.55700       -3.39330
H        -16.59510       15.51450       -4.93890
H        -17.72520       13.83760       -6.59770
H        -20.39300       13.96630       -6.26030
H        -19.70830       15.59060       -6.51790
H        -18.77060       12.05720       -5.20510
