240

C         10.33610       -4.91340       -2.23160
C         10.51550       -6.02870       -3.01820
C          9.45980       -6.85960       -3.59910
O          8.25910       -6.79530       -3.39260
C         10.13180       -7.80090       -4.51420
C          9.53140       -8.77560       -5.30590
C         10.41750       -9.50700       -6.06040
C         11.79920       -9.28130       -6.03230
C         12.40390       -8.32090       -5.25540
C         11.52100       -7.56860       -4.47710
C         11.78590       -6.49240       -3.52140
C         13.03420       -6.03890       -3.16530
C         13.30740       -5.11290       -2.14110
N         13.62570       -4.39660       -1.29910
C         14.23880       -6.46710       -3.75640
N         15.26100       -6.74450       -4.20250
C         12.08030      -10.38210       -7.02470
C         12.63880      -11.71970       -6.47960
C         12.16560      -11.83100       -5.05170
C         10.85700      -12.04600       -5.07460
C         10.42190      -12.08440       -6.51860
C         11.67360      -12.70220       -7.16200
C         10.54000      -10.63570       -7.05370
C          9.17400       -4.34160       -1.71730
C          9.17230       -3.12930       -0.97940
N         10.23230       -2.27510       -0.84180
C         10.31420       -1.49350        0.32820
C         10.12840       -2.08570        1.57380
C         10.20240       -1.32080        2.71970
C         10.45590        0.04370        2.65580
C         10.49020        0.87210        3.90170
C         10.65240        0.62290        1.40760
C         10.58550       -0.13110        0.25330
C         11.16040       -2.03790       -1.87300
C         10.76030       -2.03220       -3.20720
C         11.68930       -1.81900       -4.20550
C         13.02670       -1.58640       -3.90500
C         14.04280       -1.39130       -4.98740
C         13.40720       -1.55480       -2.56880
C         12.49280       -1.78180       -1.55980
C          7.90750       -2.89050       -0.41390
S          7.22960       -1.62470        0.56000
C          5.64660       -2.39930        0.50050
C          5.65370       -3.54140       -0.27960
N          4.56230       -4.37890       -0.51810
C          3.46690       -3.90410       -1.23980
C          3.60680       -2.83710       -2.12780
C          2.51290       -2.35940       -2.81990
C          1.25560       -2.92790       -2.65790
C          0.08460       -2.41020       -3.43800
C          1.12350       -3.99210       -1.77400
C          2.20740       -4.47650       -1.07010
C          4.78620       -5.75280       -0.33330
C          4.31980       -6.70270       -1.23750
C          4.58520       -8.04110       -1.03260
C          5.32450       -8.47230        0.06270
C          5.63740       -9.92520        0.25110
C          5.78930       -7.51860        0.95840
C          5.52310       -6.17760        0.76950
C          6.95090       -3.83150       -0.76670
S          7.56840       -5.07740       -1.78960
C          4.58710       -1.78820        1.24730
C          4.70180       -1.24340        2.51430
C          5.83810       -1.44720        3.41270
C          6.27180       -0.43070        4.25810
C          7.29420       -0.67100        5.15630
C          7.89490       -1.91580        5.21890
C          7.48480       -2.93940        4.37340
C          8.10130       -4.30720        4.45060
C          7.27930       -5.21440        5.36800
C          6.45230       -2.69420        3.48420
C          3.51930       -0.57450        2.89460
S          3.06230        0.30710        4.33280
C          1.50630        0.60060        3.63240
C          0.33760        1.33100        3.90370
C          0.02900        2.25360        4.92740
C         -1.16310        3.04770        4.81130
N         -1.28130        3.92850        5.79210
S         -0.00970        3.76800        6.78210
N          0.74540        2.57170        5.99390
C         -2.05870        2.78620        3.75150
C         -3.30980        3.33860        3.42410
S         -4.36430        4.60870        3.94970
C         -5.49800        4.14560        2.70320
C         -6.75010        4.65530        2.32250
C         -7.39800        5.80260        2.98150
C         -8.31490        5.60140        4.00600
C         -8.92340        6.69030        4.60220
C         -8.63170        7.97380        4.17460
C         -7.71350        8.18960        3.15600
C         -7.43420        9.57130        2.64020
C         -8.20750        9.81530        1.34260
C         -7.09330        7.09350        2.57280
C         -7.28230        3.94710        1.26220
S         -6.23310        2.63920        0.73360
C         -5.06940        3.05650        1.93890
C         -3.80940        2.60490        2.34630
N         -2.91110        1.63610        1.97300
C         -1.81120        1.75020        2.81010
C         -0.54030        1.12070        2.80410
N          0.10540        0.32660        1.87540
C          1.34250        0.01950        2.37310
C          2.50270       -0.63970        1.94290
S          3.00430       -1.51150        0.53780
C         -0.20500        0.06460        0.48950
C         -0.54890       -1.40670        0.24960
C         -3.41640        0.45890        1.30020
C         -4.37230       -0.32390        2.20080
C         -8.51320        4.16760        0.58120
C         -9.39000        5.20670        0.71330
C        -10.52130        5.10710       -0.13120
C        -11.57620        6.02250       -0.26110
C        -11.66640        7.21800        0.58920
C        -11.62040        7.10190        1.97780
C        -11.75590        8.22890        2.76370
C        -11.91690        9.48060        2.19380
C        -11.94370        9.60660        0.81110
S        -12.11720       11.12650       -0.06720
C        -12.26420       12.41760        1.21700
C        -10.92250       12.81230        1.80660
C        -11.82610        8.47000        0.01640
C        -12.54060        5.73230       -1.21390
C        -12.50480        4.56490       -2.02280
C        -11.44590        3.64570       -1.89010
C        -11.33730        2.44140       -2.72340
C        -11.39940        2.52050       -4.11230
C        -11.23460        1.38510       -4.88540
C        -10.99990        0.15880       -4.28830
C        -10.93460        0.07850       -2.90620
S        -10.60240       -1.48800       -2.11400
C         -8.80630       -1.58470       -2.45960
C         -8.01880       -0.56370       -1.66280
C        -11.11150        1.20520       -2.12510
C        -10.48570        3.94240       -0.94060
S         -9.05460        3.00060       -0.61330
C        -13.63470        4.47970       -2.86130
C        -14.50630        5.53510       -2.72830
S        -13.95610        6.69600       -1.53430
C        -15.70660        5.67680       -3.46950
C        -16.62160        6.67980       -3.40070
C        -16.51300        7.78290       -2.52830
N        -16.45030        8.69170       -1.83090
C        -17.83430        6.68430       -4.25610
O        -18.69260        7.53020       -4.22220
O        -17.87310        5.62910       -5.08460
C        -19.01090        5.55680       -5.94430
C        -18.88280        4.31160       -6.80070
H         11.23830       -4.37450       -1.97260
H          8.46140       -8.91420       -5.29760
H         13.46900       -8.16040       -5.24680
H         12.56400      -10.07750       -7.95080
H         13.70280      -11.86570       -6.64540
H         12.80120      -11.68760       -4.19750
H         10.18070      -12.11760       -4.24300
H          9.46720      -12.56370       -6.71970
H         11.83810      -13.73480       -6.85730
H         11.68140      -12.63360       -8.24900
H         10.01910      -10.49980       -7.99980
H          9.93670       -3.14670        1.63680
H         10.06090       -1.79080        3.68010
H         10.84500        0.28720        4.74680
H         11.13140        1.74120        3.77600
H          9.48400        1.22190        4.13410
H         10.85460        1.68170        1.33690
H         10.73530        0.33000       -0.71170
H          9.72370       -2.20500       -3.45700
H         11.36670       -1.82740       -5.23680
H         14.67910       -2.27350       -5.06240
H         13.56380       -1.23140       -5.95020
H         14.68300       -0.53970       -4.76540
H         14.43990       -1.37190       -2.31350
H         12.80740       -1.77760       -0.52820
H          4.57920       -2.39090       -2.27610
H          2.63890       -1.53460       -3.50660
H          0.00580       -1.32810       -3.34200
H         -0.84300       -2.86450       -3.09800
H          0.20780       -2.63940       -4.49650
H          0.15420       -4.44760       -1.62860
H          2.08650       -5.29730       -0.37900
H          3.76500       -6.38600       -2.10770
H          4.22370       -8.76620       -1.74740
H          6.51220      -10.19510       -0.34160
H          5.85430      -10.14530        1.29380
H          4.80680      -10.54700       -0.07610
H          6.36610       -7.82850        1.81840
H          5.89010       -5.44860        1.47790
H          5.81120        0.54390        4.20670
H          7.62020        0.11710        5.81920
H          8.68570       -2.09720        5.93350
H          8.14330       -4.74930        3.45230
H          9.12120       -4.23630        4.83430
H          6.26210       -5.30950        4.99420
H          7.72410       -6.20540        5.42240
H          7.23600       -4.79700        6.37150
H          6.10090       -3.49200        2.84510
H         -8.54760        4.59670        4.32630
H         -9.63290        6.53570        5.40180
H         -9.11810        8.81930        4.63900
H         -7.73030       10.31240        3.38500
H         -6.36490        9.68670        2.45030
H         -8.02950       10.82300        0.97490
H         -7.89910        9.10820        0.57590
H         -9.27460        9.68550        1.50770
H         -6.37350        7.24120        1.78000
H         -1.00830        0.73190        0.17420
H          0.68340        0.31190       -0.10270
H         -0.95920       -1.53300       -0.74770
H         -1.26860       -1.77220        0.97930
H          0.34620       -2.01780        0.32700
H         -3.94370        0.78810        0.39900
H         -2.59530       -0.18890        1.01890
H         -5.23920        0.27710        2.46140
H         -3.86650       -0.62070        3.11730
H         -4.71390       -1.21630        1.68340
H         -9.22910        6.03770        1.37260
H        -11.50690        6.13010        2.43360
H        -11.73960        8.13660        3.83920
H        -12.02420       10.33870        2.83740
H        -12.71330       13.25840        0.68830
H        -12.96790       12.06790        1.97110
H        -11.05930       13.60480        2.54030
H        -10.44080       11.96670        2.29170
H        -10.26270       13.17480        1.02190
H        -11.84670        8.58110       -1.05710
H        -11.55140        3.48020       -4.58410
H        -11.28400        1.45620       -5.96200
H        -10.86970       -0.73060       -4.88620
H         -8.52960       -2.60180       -2.18440
H         -8.66870       -1.45080       -3.53250
H         -8.31030        0.44860       -1.93610
H         -8.19550       -0.69460       -0.59800
H         -6.95440       -0.68130       -1.85710
H        -11.08160        1.11570       -1.05010
H        -13.81450        3.65800       -3.53190
H        -15.90620        4.88010       -4.17520
H        -19.91730        5.52870       -5.32900
H        -19.04760        6.46380       -6.55820
H        -19.74140        4.23480       -7.46100
H        -18.83830        3.42640       -6.17160
H        -17.97710        4.35940       -7.39970
