
  xtb     02082222383D
 energy: -428.384754977655 gnorm: 0.000343055752 xtb: 6.4.1 (unknown)
266294  0     0  0            999 V2000
  -10.0297   -6.9504    1.3525 C   0  0  0  0  0  0  0  0  0  0  0  0
  -10.8232   -6.6798    2.4465 C   0  0  0  0  0  0  0  0  0  0  0  0
  -11.2749   -5.3312    2.8223 C   0  0  0  0  0  0  0  0  0  0  0  0
  -11.0066   -4.2807    2.2683 O   0  0  0  0  0  0  0  0  0  0  0  0
  -12.2322   -5.5241    3.9328 C   0  0  0  0  0  0  0  0  0  0  0  0
  -12.9288   -4.5363    4.6222 C   0  0  0  0  0  0  0  0  0  0  0  0
  -13.7341   -5.0172    5.6279 C   0  0  0  0  0  0  0  0  0  0  0  0
  -13.8489   -6.3816    5.9182 C   0  0  0  0  0  0  0  0  0  0  0  0
  -13.1718   -7.3678    5.2398 C   0  0  0  0  0  0  0  0  0  0  0  0
  -12.3406   -6.8979    4.2208 C   0  0  0  0  0  0  0  0  0  0  0  0
  -11.4513   -7.6293    3.3204 C   0  0  0  0  0  0  0  0  0  0  0  0
  -11.1309   -8.9627    3.4124 C   0  0  0  0  0  0  0  0  0  0  0  0
  -10.1522   -9.5932    2.6194 C   0  0  0  0  0  0  0  0  0  0  0  0
   -9.3459  -10.1651    2.0337 N   0  0  0  0  0  0  0  0  0  0  0  0
  -11.6671   -9.8471    4.3649 C   0  0  0  0  0  0  0  0  0  0  0  0
  -12.0511  -10.6145    5.1298 N   0  0  0  0  0  0  0  0  0  0  0  0
  -14.8351   -6.1443    7.0356 C   0  0  0  0  0  0  0  0  0  0  0  0
  -16.3181   -6.4334    6.7224 C   0  0  0  0  0  0  0  0  0  0  0  0
  -17.0687   -5.6734    7.7920 C   0  0  0  0  0  0  0  0  0  0  0  0
  -16.9577   -4.3794    7.5205 C   0  0  0  0  0  0  0  0  0  0  0  0
  -16.1307   -4.2432    6.2625 C   0  0  0  0  0  0  0  0  0  0  0  0
  -16.5673   -5.5130    5.5206 C   0  0  0  0  0  0  0  0  0  0  0  0
  -14.7043   -4.6208    6.7143 C   0  0  0  0  0  0  0  0  0  0  0  0
   -9.1123   -6.0742    0.7661 C   0  0  0  0  0  0  0  0  0  0  0  0
   -8.4148   -4.9683    1.2944 C   0  0  0  0  0  0  0  0  0  0  0  0
   -8.3872   -4.5563    2.5972 N   0  0  0  0  0  0  0  0  0  0  0  0
   -8.0913   -3.2052    2.8754 C   0  0  0  0  0  0  0  0  0  0  0  0
   -8.7080   -2.1892    2.1506 C   0  0  0  0  0  0  0  0  0  0  0  0
   -8.4009   -0.8709    2.4177 C   0  0  0  0  0  0  0  0  0  0  0  0
   -7.4846   -0.5330    3.4083 C   0  0  0  0  0  0  0  0  0  0  0  0
   -7.1423    0.9019    3.6665 C   0  0  0  0  0  0  0  0  0  0  0  0
   -6.8901   -1.5554    4.1372 C   0  0  0  0  0  0  0  0  0  0  0  0
   -7.1848   -2.8802    3.8782 C   0  0  0  0  0  0  0  0  0  0  0  0
   -8.5970   -5.4283    3.6728 C   0  0  0  0  0  0  0  0  0  0  0  0
   -9.2985   -4.9929    4.7952 C   0  0  0  0  0  0  0  0  0  0  0  0
   -9.5441   -5.8603    5.8431 C   0  0  0  0  0  0  0  0  0  0  0  0
   -9.0976   -7.1744    5.8075 C   0  0  0  0  0  0  0  0  0  0  0  0
   -9.4066   -8.1333    6.9136 C   0  0  0  0  0  0  0  0  0  0  0  0
   -8.3577   -7.5882    4.7020 C   0  0  0  0  0  0  0  0  0  0  0  0
   -8.1077   -6.7342    3.6492 C   0  0  0  0  0  0  0  0  0  0  0  0
   -7.5994   -4.3797    0.2993 C   0  0  0  0  0  0  0  0  0  0  0  0
   -6.4642   -3.0708    0.3089 S   0  0  0  0  0  0  0  0  0  0  0  0
   -6.0349   -3.4104   -1.3574 C   0  0  0  0  0  0  0  0  0  0  0  0
   -6.6878   -4.5171   -1.8640 C   0  0  0  0  0  0  0  0  0  0  0  0
   -6.4192   -5.0951   -3.0966 N   0  0  0  0  0  0  0  0  0  0  0  0
   -5.0921   -5.2786   -3.4997 C   0  0  0  0  0  0  0  0  0  0  0  0
   -4.7526   -5.3041   -4.8519 C   0  0  0  0  0  0  0  0  0  0  0  0
   -3.4374   -5.4480   -5.2412 C   0  0  0  0  0  0  0  0  0  0  0  0
   -2.4161   -5.5789   -4.3066 C   0  0  0  0  0  0  0  0  0  0  0  0
   -0.9938   -5.7281   -4.7544 C   0  0  0  0  0  0  0  0  0  0  0  0
   -2.7615   -5.5819   -2.9627 C   0  0  0  0  0  0  0  0  0  0  0  0
   -4.0755   -5.4390   -2.5601 C   0  0  0  0  0  0  0  0  0  0  0  0
   -7.5038   -5.5378   -3.8674 C   0  0  0  0  0  0  0  0  0  0  0  0
   -8.6842   -4.7996   -3.8805 C   0  0  0  0  0  0  0  0  0  0  0  0
   -9.7587   -5.2192   -4.6388 C   0  0  0  0  0  0  0  0  0  0  0  0
   -9.6896   -6.3772   -5.4022 C   0  0  0  0  0  0  0  0  0  0  0  0
  -10.8598   -6.8363   -6.2173 C   0  0  0  0  0  0  0  0  0  0  0  0
   -8.5126   -7.1170   -5.3704 C   0  0  0  0  0  0  0  0  0  0  0  0
   -7.4332   -6.7132   -4.6111 C   0  0  0  0  0  0  0  0  0  0  0  0
   -7.6001   -5.0429   -0.9189 C   0  0  0  0  0  0  0  0  0  0  0  0
   -8.6388   -6.4159   -0.9075 S   0  0  0  0  0  0  0  0  0  0  0  0
   -5.0948   -2.5850   -2.0651 C   0  0  0  0  0  0  0  0  0  0  0  0
   -5.3239   -1.9065   -3.2432 C   0  0  0  0  0  0  0  0  0  0  0  0
   -6.6841   -1.7343   -3.7779 C   0  0  0  0  0  0  0  0  0  0  0  0
   -7.6568   -1.3199   -2.8666 C   0  0  0  0  0  0  0  0  0  0  0  0
   -8.9607   -1.0994   -3.2611 C   0  0  0  0  0  0  0  0  0  0  0  0
   -9.3075   -1.2828   -4.5883 C   0  0  0  0  0  0  0  0  0  0  0  0
   -8.3492   -1.6877   -5.4975 C   0  0  0  0  0  0  0  0  0  0  0  0
   -7.0329   -1.9262   -5.1184 C   0  0  0  0  0  0  0  0  0  0  0  0
   -6.0222   -2.3816   -6.1336 C   0  0  0  0  0  0  0  0  0  0  0  0
   -6.5978   -3.3093   -7.2029 C   0  0  0  0  0  0  0  0  0  0  0  0
   -4.1461   -1.2625   -3.6884 C   0  0  0  0  0  0  0  0  0  0  0  0
   -3.7692   -0.2386   -5.0553 S   0  0  0  0  0  0  0  0  0  0  0  0
   -2.1523   -0.0540   -4.4609 C   0  0  0  0  0  0  0  0  0  0  0  0
   -0.9441    0.5822   -4.8061 C   0  0  0  0  0  0  0  0  0  0  0  0
   -0.5341    1.2901   -5.9574 C   0  0  0  0  0  0  0  0  0  0  0  0
    0.8279    1.7457   -6.0496 C   0  0  0  0  0  0  0  0  0  0  0  0
    1.0846    2.3374   -7.2050 N   0  0  0  0  0  0  0  0  0  0  0  0
   -0.2659    2.3287   -8.0992 S   0  0  0  0  0  0  0  0  0  0  0  0
   -1.2335    1.5684   -7.0460 N   0  0  0  0  0  0  0  0  0  0  0  0
    1.6758    1.6070   -4.9278 C   0  0  0  0  0  0  0  0  0  0  0  0
    2.9401    2.1457   -4.6352 C   0  0  0  0  0  0  0  0  0  0  0  0
    4.1918    3.0561   -5.4135 S   0  0  0  0  0  0  0  0  0  0  0  0
    5.0471    3.1354   -3.8915 C   0  0  0  0  0  0  0  0  0  0  0  0
    6.2630    3.7259   -3.5144 C   0  0  0  0  0  0  0  0  0  0  0  0
    7.1932    4.3810   -4.4516 C   0  0  0  0  0  0  0  0  0  0  0  0
    7.0021    5.6947   -4.8784 C   0  0  0  0  0  0  0  0  0  0  0  0
    5.8464    6.5222   -4.3921 C   0  0  0  0  0  0  0  0  0  0  0  0
    4.8363    6.7861   -5.5086 C   0  0  0  0  0  0  0  0  0  0  0  0
    7.9222    6.2441   -5.7617 C   0  0  0  0  0  0  0  0  0  0  0  0
    9.0050    5.5159   -6.2147 C   0  0  0  0  0  0  0  0  0  0  0  0
    9.1874    4.2109   -5.7893 C   0  0  0  0  0  0  0  0  0  0  0  0
    8.2835    3.6480   -4.9108 C   0  0  0  0  0  0  0  0  0  0  0  0
    6.5260    3.5416   -2.1679 C   0  0  0  0  0  0  0  0  0  0  0  0
    5.2494    2.6360   -1.3631 S   0  0  0  0  0  0  0  0  0  0  0  0
    4.3848    2.4809   -2.8498 C   0  0  0  0  0  0  0  0  0  0  0  0
    3.1932    1.8879   -3.2845 C   0  0  0  0  0  0  0  0  0  0  0  0
    2.1629    1.1633   -2.7474 N   0  0  0  0  0  0  0  0  0  0  0  0
    1.2253    0.9646   -3.7424 C   0  0  0  0  0  0  0  0  0  0  0  0
   -0.0325    0.3130   -3.7506 C   0  0  0  0  0  0  0  0  0  0  0  0
   -0.6446   -0.5201   -2.8283 N   0  0  0  0  0  0  0  0  0  0  0  0
   -1.9278   -0.7324   -3.2636 C   0  0  0  0  0  0  0  0  0  0  0  0
   -3.0599   -1.4328   -2.8297 C   0  0  0  0  0  0  0  0  0  0  0  0
   -3.4576   -2.4107   -1.4675 S   0  0  0  0  0  0  0  0  0  0  0  0
   -0.0222   -1.5089   -1.9754 C   0  0  0  0  0  0  0  0  0  0  0  0
    0.0427   -2.8705   -2.6672 C   0  0  0  0  0  0  0  0  0  0  0  0
    2.0418    1.0113   -1.3154 C   0  0  0  0  0  0  0  0  0  0  0  0
    3.0201   -0.0247   -0.7601 C   0  0  0  0  0  0  0  0  0  0  0  0
    7.5944    4.0982   -1.4159 C   0  0  0  0  0  0  0  0  0  0  0  0
    7.9987    3.7903   -0.1192 C   0  0  0  0  0  0  0  0  0  0  0  0
    7.5407    2.7318    0.6520 N   0  0  0  0  0  0  0  0  0  0  0  0
    7.5001    2.9517    2.0452 C   0  0  0  0  0  0  0  0  0  0  0  0
    6.8683    4.0894    2.5368 C   0  0  0  0  0  0  0  0  0  0  0  0
    6.8954    4.3675    3.8889 C   0  0  0  0  0  0  0  0  0  0  0  0
    7.5427    3.5211    4.7794 C   0  0  0  0  0  0  0  0  0  0  0  0
    7.6321    3.8596    6.2350 C   0  0  0  0  0  0  0  0  0  0  0  0
    8.1436    2.3709    4.2818 C   0  0  0  0  0  0  0  0  0  0  0  0
    8.1284    2.0841    2.9323 C   0  0  0  0  0  0  0  0  0  0  0  0
    7.4352    1.4370    0.1425 C   0  0  0  0  0  0  0  0  0  0  0  0
    8.1388    1.0358   -0.9931 C   0  0  0  0  0  0  0  0  0  0  0  0
    7.9729   -0.2357   -1.5012 C   0  0  0  0  0  0  0  0  0  0  0  0
    7.1194   -1.1509   -0.8945 C   0  0  0  0  0  0  0  0  0  0  0  0
    6.9474   -2.5242   -1.4687 C   0  0  0  0  0  0  0  0  0  0  0  0
    6.4394   -0.7532    0.2490 C   0  0  0  0  0  0  0  0  0  0  0  0
    6.5855    0.5205    0.7612 C   0  0  0  0  0  0  0  0  0  0  0  0
    8.9751    4.7010    0.3454 C   0  0  0  0  0  0  0  0  0  0  0  0
    9.8335    4.8600    1.8360 S   0  0  0  0  0  0  0  0  0  0  0  0
   10.7059    6.2557    1.1922 C   0  0  0  0  0  0  0  0  0  0  0  0
   10.3885    6.4937   -0.1729 C   0  0  0  0  0  0  0  0  0  0  0  0
   10.9881    7.4202   -0.9825 N   0  0  0  0  0  0  0  0  0  0  0  0
   12.3634    7.7073   -0.9031 C   0  0  0  0  0  0  0  0  0  0  0  0
   12.8241    8.9929   -1.1760 C   0  0  0  0  0  0  0  0  0  0  0  0
   14.1730    9.2739   -1.0942 C   0  0  0  0  0  0  0  0  0  0  0  0
   15.0918    8.2955   -0.7329 C   0  0  0  0  0  0  0  0  0  0  0  0
   16.5460    8.6312   -0.6080 C   0  0  0  0  0  0  0  0  0  0  0  0
   14.6237    7.0112   -0.4814 C   0  0  0  0  0  0  0  0  0  0  0  0
   13.2793    6.7114   -0.5729 C   0  0  0  0  0  0  0  0  0  0  0  0
   10.2300    8.0169   -2.0093 C   0  0  0  0  0  0  0  0  0  0  0  0
   10.7451    8.1371   -3.2955 C   0  0  0  0  0  0  0  0  0  0  0  0
   10.0050    8.7594   -4.2812 C   0  0  0  0  0  0  0  0  0  0  0  0
    8.7425    9.2737   -4.0147 C   0  0  0  0  0  0  0  0  0  0  0  0
    7.9593    9.9957   -5.0684 C   0  0  0  0  0  0  0  0  0  0  0  0
    8.2289    9.1318   -2.7302 C   0  0  0  0  0  0  0  0  0  0  0  0
    8.9582    8.5134   -1.7356 C   0  0  0  0  0  0  0  0  0  0  0  0
    9.3622    5.6400   -0.6021 C   0  0  0  0  0  0  0  0  0  0  0  0
    8.5115    5.4379   -2.1009 S   0  0  0  0  0  0  0  0  0  0  0  0
   11.4904    7.1185    1.9494 C   0  0  0  0  0  0  0  0  0  0  0  0
   11.8488    7.0668    3.2812 C   0  0  0  0  0  0  0  0  0  0  0  0
   11.5866    5.9671    4.2073 C   0  0  0  0  0  0  0  0  0  0  0  0
   10.9662    4.9374    4.0000 O   0  0  0  0  0  0  0  0  0  0  0  0
   12.2525    6.3350    5.4751 C   0  0  0  0  0  0  0  0  0  0  0  0
   12.2950    5.6373    6.6565 C   0  0  0  0  0  0  0  0  0  0  0  0
   12.9911    6.1940    7.7392 C   0  0  0  0  0  0  0  0  0  0  0  0
   12.9901    5.4587    8.8758 O   0  0  0  0  0  0  0  0  0  0  0  0
   13.6630    5.9512   10.0111 C   0  0  0  0  0  0  0  0  0  0  0  0
   13.6198    7.4296    7.5897 C   0  0  0  0  0  0  0  0  0  0  0  0
   13.5696    8.1266    6.3900 C   0  0  0  0  0  0  0  0  0  0  0  0
   12.8823    7.5839    5.3181 C   0  0  0  0  0  0  0  0  0  0  0  0
   12.6256    8.0722    3.9671 C   0  0  0  0  0  0  0  0  0  0  0  0
   13.0329    9.2922    3.4779 C   0  0  0  0  0  0  0  0  0  0  0  0
   13.8521   10.1895    4.1895 C   0  0  0  0  0  0  0  0  0  0  0  0
   14.5315   10.9595    4.7057 N   0  0  0  0  0  0  0  0  0  0  0  0
   12.6731    9.8451    2.2356 C   0  0  0  0  0  0  0  0  0  0  0  0
   12.3973   10.3944    1.2630 N   0  0  0  0  0  0  0  0  0  0  0  0
  -10.1253   -7.9163    0.8709 H   0  0  0  0  0  0  0  0  0  0  0  0
  -12.8119   -3.4941    4.3682 H   0  0  0  0  0  0  0  0  0  0  0  0
  -13.2739   -8.4156    5.4687 H   0  0  0  0  0  0  0  0  0  0  0  0
  -14.5322   -6.4971    8.0199 H   0  0  0  0  0  0  0  0  0  0  0  0
  -16.5622   -7.4859    6.6071 H   0  0  0  0  0  0  0  0  0  0  0  0
  -17.5398   -6.1370    8.6389 H   0  0  0  0  0  0  0  0  0  0  0  0
  -17.3175   -3.5461    8.0955 H   0  0  0  0  0  0  0  0  0  0  0  0
  -16.2050   -3.2999    5.7278 H   0  0  0  0  0  0  0  0  0  0  0  0
  -17.6177   -5.4830    5.2356 H   0  0  0  0  0  0  0  0  0  0  0  0
  -15.9595   -5.7478    4.6489 H   0  0  0  0  0  0  0  0  0  0  0  0
  -14.3128   -3.9588    7.4850 H   0  0  0  0  0  0  0  0  0  0  0  0
   -9.4427   -2.4487    1.4047 H   0  0  0  0  0  0  0  0  0  0  0  0
   -8.8851   -0.0875    1.8530 H   0  0  0  0  0  0  0  0  0  0  0  0
   -6.4663    1.2672    2.8930 H   0  0  0  0  0  0  0  0  0  0  0  0
   -6.6529    1.0199    4.6300 H   0  0  0  0  0  0  0  0  0  0  0  0
   -8.0365    1.5216    3.6461 H   0  0  0  0  0  0  0  0  0  0  0  0
   -6.1804   -1.3141    4.9152 H   0  0  0  0  0  0  0  0  0  0  0  0
   -6.7115   -3.6675    4.4469 H   0  0  0  0  0  0  0  0  0  0  0  0
   -9.6602   -3.9764    4.8331 H   0  0  0  0  0  0  0  0  0  0  0  0
  -10.1087   -5.5107    6.6953 H   0  0  0  0  0  0  0  0  0  0  0  0
   -8.5150   -8.6859    7.2037 H   0  0  0  0  0  0  0  0  0  0  0  0
   -9.7996   -7.6122    7.7828 H   0  0  0  0  0  0  0  0  0  0  0  0
  -10.1511   -8.8593    6.5848 H   0  0  0  0  0  0  0  0  0  0  0  0
   -7.9787   -8.5991    4.6635 H   0  0  0  0  0  0  0  0  0  0  0  0
   -7.5344   -7.0793    2.8018 H   0  0  0  0  0  0  0  0  0  0  0  0
   -5.5271   -5.2177   -5.5955 H   0  0  0  0  0  0  0  0  0  0  0  0
   -3.1961   -5.4545   -6.2946 H   0  0  0  0  0  0  0  0  0  0  0  0
   -0.3256   -5.8334   -3.9036 H   0  0  0  0  0  0  0  0  0  0  0  0
   -0.8876   -6.6062   -5.3903 H   0  0  0  0  0  0  0  0  0  0  0  0
   -0.6844   -4.8598   -5.3357 H   0  0  0  0  0  0  0  0  0  0  0  0
   -1.9942   -5.7045   -2.2114 H   0  0  0  0  0  0  0  0  0  0  0  0
   -4.3138   -5.4609   -1.5068 H   0  0  0  0  0  0  0  0  0  0  0  0
   -8.7506   -3.8891   -3.3044 H   0  0  0  0  0  0  0  0  0  0  0  0
  -10.6629   -4.6280   -4.6425 H   0  0  0  0  0  0  0  0  0  0  0  0
  -11.5117   -6.0019   -6.4647 H   0  0  0  0  0  0  0  0  0  0  0  0
  -10.5285   -7.3118   -7.1380 H   0  0  0  0  0  0  0  0  0  0  0  0
  -11.4427   -7.5660   -5.6543 H   0  0  0  0  0  0  0  0  0  0  0  0
   -8.4430   -8.0297   -5.9445 H   0  0  0  0  0  0  0  0  0  0  0  0
   -6.5330   -7.3090   -4.5864 H   0  0  0  0  0  0  0  0  0  0  0  0
   -7.3755   -1.1516   -1.8370 H   0  0  0  0  0  0  0  0  0  0  0  0
   -9.6977   -0.7817   -2.5386 H   0  0  0  0  0  0  0  0  0  0  0  0
  -10.3220   -1.1086   -4.9151 H   0  0  0  0  0  0  0  0  0  0  0  0
   -8.6341   -1.8213   -6.5289 H   0  0  0  0  0  0  0  0  0  0  0  0
   -5.5957   -1.5011   -6.6241 H   0  0  0  0  0  0  0  0  0  0  0  0
   -5.2064   -2.8894   -5.6158 H   0  0  0  0  0  0  0  0  0  0  0  0
   -7.2070   -2.7619   -7.9175 H   0  0  0  0  0  0  0  0  0  0  0  0
   -7.2151   -4.0843   -6.7508 H   0  0  0  0  0  0  0  0  0  0  0  0
   -5.7880   -3.7819   -7.7545 H   0  0  0  0  0  0  0  0  0  0  0  0
    6.2332    7.4723   -4.0154 H   0  0  0  0  0  0  0  0  0  0  0  0
    5.3475    6.0135   -3.5655 H   0  0  0  0  0  0  0  0  0  0  0  0
    4.0113    7.3904   -5.1376 H   0  0  0  0  0  0  0  0  0  0  0  0
    4.4360    5.8480   -5.8855 H   0  0  0  0  0  0  0  0  0  0  0  0
    5.3066    7.3119   -6.3361 H   0  0  0  0  0  0  0  0  0  0  0  0
    7.7880    7.2631   -6.0904 H   0  0  0  0  0  0  0  0  0  0  0  0
    9.7102    5.9654   -6.8981 H   0  0  0  0  0  0  0  0  0  0  0  0
   10.0316    3.6353   -6.1388 H   0  0  0  0  0  0  0  0  0  0  0  0
    8.4142    2.6313   -4.5674 H   0  0  0  0  0  0  0  0  0  0  0  0
    0.9862   -1.1945   -1.7331 H   0  0  0  0  0  0  0  0  0  0  0  0
   -0.6114   -1.5879   -1.0562 H   0  0  0  0  0  0  0  0  0  0  0  0
   -0.9535   -3.2416   -2.8911 H   0  0  0  0  0  0  0  0  0  0  0  0
    0.5411   -3.5848   -2.0172 H   0  0  0  0  0  0  0  0  0  0  0  0
    0.6030   -2.7918   -3.5967 H   0  0  0  0  0  0  0  0  0  0  0  0
    1.0073    0.7654   -1.0720 H   0  0  0  0  0  0  0  0  0  0  0  0
    2.2705    1.9804   -0.8569 H   0  0  0  0  0  0  0  0  0  0  0  0
    2.8152   -0.1929    0.2934 H   0  0  0  0  0  0  0  0  0  0  0  0
    4.0424    0.3304   -0.8566 H   0  0  0  0  0  0  0  0  0  0  0  0
    2.9473   -0.9728   -1.2887 H   0  0  0  0  0  0  0  0  0  0  0  0
    6.3725    4.7592    1.8486 H   0  0  0  0  0  0  0  0  0  0  0  0
    6.4137    5.2623    4.2566 H   0  0  0  0  0  0  0  0  0  0  0  0
    7.6352    2.9600    6.8464 H   0  0  0  0  0  0  0  0  0  0  0  0
    8.5616    4.3983    6.4221 H   0  0  0  0  0  0  0  0  0  0  0  0
    6.8046    4.4953    6.5417 H   0  0  0  0  0  0  0  0  0  0  0  0
    8.6528    1.7015    4.9593 H   0  0  0  0  0  0  0  0  0  0  0  0
    8.6224    1.2009    2.5551 H   0  0  0  0  0  0  0  0  0  0  0  0
    8.8169    1.7244   -1.4752 H   0  0  0  0  0  0  0  0  0  0  0  0
    8.5219   -0.5283   -2.3850 H   0  0  0  0  0  0  0  0  0  0  0  0
    6.2463   -3.1077   -0.8772 H   0  0  0  0  0  0  0  0  0  0  0  0
    6.5762   -2.4654   -2.4915 H   0  0  0  0  0  0  0  0  0  0  0  0
    7.9017   -3.0492   -1.4928 H   0  0  0  0  0  0  0  0  0  0  0  0
    5.7735   -1.4466    0.7428 H   0  0  0  0  0  0  0  0  0  0  0  0
    6.0332    0.8207    1.6390 H   0  0  0  0  0  0  0  0  0  0  0  0
   12.1217    9.7688   -1.4355 H   0  0  0  0  0  0  0  0  0  0  0  0
   14.5156   10.2777   -1.2945 H   0  0  0  0  0  0  0  0  0  0  0  0
   16.7060    9.2791    0.2539 H   0  0  0  0  0  0  0  0  0  0  0  0
   17.1453    7.7334   -0.4794 H   0  0  0  0  0  0  0  0  0  0  0  0
   16.8943    9.1637   -1.4913 H   0  0  0  0  0  0  0  0  0  0  0  0
   15.3212    6.2297   -0.2161 H   0  0  0  0  0  0  0  0  0  0  0  0
   12.9332    5.7062   -0.3818 H   0  0  0  0  0  0  0  0  0  0  0  0
   11.7263    7.7436   -3.5151 H   0  0  0  0  0  0  0  0  0  0  0  0
   10.4192    8.8482   -5.2748 H   0  0  0  0  0  0  0  0  0  0  0  0
    7.9510   11.0653   -4.8569 H   0  0  0  0  0  0  0  0  0  0  0  0
    6.9250    9.6564   -5.0874 H   0  0  0  0  0  0  0  0  0  0  0  0
    8.3990    9.8488   -6.0519 H   0  0  0  0  0  0  0  0  0  0  0  0
    7.2502    9.5285   -2.5008 H   0  0  0  0  0  0  0  0  0  0  0  0
    8.5571    8.4266   -0.7365 H   0  0  0  0  0  0  0  0  0  0  0  0
   11.8543    7.9775    1.4001 H   0  0  0  0  0  0  0  0  0  0  0  0
   11.8076    4.6815    6.7634 H   0  0  0  0  0  0  0  0  0  0  0  0
   14.7329    6.0785    9.8199 H   0  0  0  0  0  0  0  0  0  0  0  0
   13.2367    6.9007   10.3493 H   0  0  0  0  0  0  0  0  0  0  0  0
   13.5227    5.1978   10.7843 H   0  0  0  0  0  0  0  0  0  0  0  0
   14.1601    7.8699    8.4126 H   0  0  0  0  0  0  0  0  0  0  0  0
   14.0683    9.0792    6.3168 H   0  0  0  0  0  0  0  0  0  0  0  0
  1  2  2  0  0  0  0
  2  3  1  0  0  0  0
  3  4  2  0  0  0  0
  3  5  1  0  0  0  0
  5  6  2  0  0  0  0
  6  7  1  0  0  0  0
  7  8  2  0  0  0  0
  8  9  1  0  0  0  0
  9 10  2  0  0  0  0
 10 11  1  0  0  0  0
 11 12  2  0  0  0  0
 12 13  1  0  0  0  0
 13 14  3  0  0  0  0
 12 15  1  0  0  0  0
 15 16  3  0  0  0  0
  8 17  1  0  0  0  0
 17 18  1  0  0  0  0
 18 19  1  0  0  0  0
 19 20  2  0  0  0  0
 20 21  1  0  0  0  0
 21 22  1  0  0  0  0
 21 23  1  0  0  0  0
  1 24  1  0  0  0  0
 24 25  2  0  0  0  0
 25 26  1  0  0  0  0
 26 27  1  0  0  0  0
 27 28  2  0  0  0  0
 28 29  1  0  0  0  0
 29 30  2  0  0  0  0
 30 31  1  0  0  0  0
 30 32  1  0  0  0  0
 32 33  2  0  0  0  0
 26 34  1  0  0  0  0
 34 35  2  0  0  0  0
 35 36  1  0  0  0  0
 36 37  2  0  0  0  0
 37 38  1  0  0  0  0
 37 39  1  0  0  0  0
 39 40  2  0  0  0  0
 25 41  1  0  0  0  0
 41 42  1  0  0  0  0
 42 43  1  0  0  0  0
 43 44  2  0  0  0  0
 44 45  1  0  0  0  0
 45 46  1  0  0  0  0
 46 47  2  0  0  0  0
 47 48  1  0  0  0  0
 48 49  2  0  0  0  0
 49 50  1  0  0  0  0
 49 51  1  0  0  0  0
 51 52  2  0  0  0  0
 45 53  1  0  0  0  0
 53 54  2  0  0  0  0
 54 55  1  0  0  0  0
 55 56  2  0  0  0  0
 56 57  1  0  0  0  0
 56 58  1  0  0  0  0
 58 59  2  0  0  0  0
 44 60  1  0  0  0  0
 60 61  1  0  0  0  0
 43 62  1  0  0  0  0
 62 63  2  0  0  0  0
 63 64  1  0  0  0  0
 64 65  2  0  0  0  0
 65 66  1  0  0  0  0
 66 67  2  0  0  0  0
 67 68  1  0  0  0  0
 68 69  2  0  0  0  0
 69 70  1  0  0  0  0
 70 71  1  0  0  0  0
 63 72  1  0  0  0  0
 72 73  1  0  0  0  0
 73 74  1  0  0  0  0
 74 75  1  0  0  0  0
 75 76  1  0  0  0  0
 76 77  1  0  0  0  0
 77 78  2  0  0  0  0
 78 79  1  0  0  0  0
 79 80  1  0  0  0  0
 77 81  1  0  0  0  0
 81 82  1  0  0  0  0
 82 83  1  0  0  0  0
 83 84  1  0  0  0  0
 84 85  1  0  0  0  0
 85 86  1  0  0  0  0
 86 87  2  0  0  0  0
 87 88  1  0  0  0  0
 88 89  1  0  0  0  0
 87 90  1  0  0  0  0
 90 91  2  0  0  0  0
 91 92  1  0  0  0  0
 92 93  2  0  0  0  0
 85 94  2  0  0  0  0
 94 95  1  0  0  0  0
 95 96  1  0  0  0  0
 96 97  1  0  0  0  0
 97 98  1  0  0  0  0
 98 99  1  0  0  0  0
 99100  1  0  0  0  0
100101  1  0  0  0  0
101102  1  0  0  0  0
102103  1  0  0  0  0
103104  1  0  0  0  0
101105  1  0  0  0  0
105106  1  0  0  0  0
 98107  1  0  0  0  0
107108  1  0  0  0  0
 94109  1  0  0  0  0
109110  2  0  0  0  0
110111  1  0  0  0  0
111112  1  0  0  0  0
112113  2  0  0  0  0
113114  1  0  0  0  0
114115  2  0  0  0  0
115116  1  0  0  0  0
115117  1  0  0  0  0
117118  2  0  0  0  0
111119  1  0  0  0  0
119120  2  0  0  0  0
120121  1  0  0  0  0
121122  2  0  0  0  0
122123  1  0  0  0  0
122124  1  0  0  0  0
124125  2  0  0  0  0
110126  1  0  0  0  0
126127  1  0  0  0  0
127128  1  0  0  0  0
128129  2  0  0  0  0
129130  1  0  0  0  0
130131  1  0  0  0  0
131132  2  0  0  0  0
132133  1  0  0  0  0
133134  2  0  0  0  0
134135  1  0  0  0  0
134136  1  0  0  0  0
136137  2  0  0  0  0
130138  1  0  0  0  0
138139  2  0  0  0  0
139140  1  0  0  0  0
140141  2  0  0  0  0
141142  1  0  0  0  0
141143  1  0  0  0  0
143144  2  0  0  0  0
129145  1  0  0  0  0
145146  1  0  0  0  0
128147  1  0  0  0  0
147148  2  0  0  0  0
148149  1  0  0  0  0
149150  2  0  0  0  0
149151  1  0  0  0  0
151152  2  0  0  0  0
152153  1  0  0  0  0
153154  1  0  0  0  0
154155  1  0  0  0  0
153156  2  0  0  0  0
156157  1  0  0  0  0
157158  2  0  0  0  0
158159  1  0  0  0  0
159160  2  0  0  0  0
160161  1  0  0  0  0
161162  3  0  0  0  0
160163  1  0  0  0  0
163164  3  0  0  0  0
 11  2  1  0  0  0  0
 23 17  1  0  0  0  0
 61 24  1  0  0  0  0
104 62  1  0  0  0  0
146109  1  0  0  0  0
159148  1  0  0  0  0
 10  5  1  0  0  0  0
 22 18  1  0  0  0  0
 33 27  1  0  0  0  0
 40 34  1  0  0  0  0
 60 41  2  0  0  0  0
 69 64  1  0  0  0  0
103 72  2  0  0  0  0
118112  1  0  0  0  0
125119  1  0  0  0  0
145126  2  0  0  0  0
158151  1  0  0  0  0
 23  7  1  0  0  0  0
 52 46  1  0  0  0  0
 59 53  1  0  0  0  0
102 74  2  0  0  0  0
137131  1  0  0  0  0
144138  1  0  0  0  0
100 75  2  0  0  0  0
 80 76  2  0  0  0  0
 99 81  2  0  0  0  0
 97 82  2  0  0  0  0
 96 84  2  0  0  0  0
 93 86  1  0  0  0  0
  1165  1  0  0  0  0
  6166  1  0  0  0  0
  9167  1  0  0  0  0
 17168  1  0  0  0  0
 18169  1  0  0  0  0
 19170  1  0  0  0  0
 20171  1  0  0  0  0
 21172  1  0  0  0  0
 22173  1  0  0  0  0
 22174  1  0  0  0  0
 23175  1  0  0  0  0
 28176  1  0  0  0  0
 29177  1  0  0  0  0
 31178  1  0  0  0  0
 31179  1  0  0  0  0
 31180  1  0  0  0  0
 32181  1  0  0  0  0
 33182  1  0  0  0  0
 35183  1  0  0  0  0
 36184  1  0  0  0  0
 38185  1  0  0  0  0
 38186  1  0  0  0  0
 38187  1  0  0  0  0
 39188  1  0  0  0  0
 40189  1  0  0  0  0
 47190  1  0  0  0  0
 48191  1  0  0  0  0
 50192  1  0  0  0  0
 50193  1  0  0  0  0
 50194  1  0  0  0  0
 51195  1  0  0  0  0
 52196  1  0  0  0  0
 54197  1  0  0  0  0
 55198  1  0  0  0  0
 57199  1  0  0  0  0
 57200  1  0  0  0  0
 57201  1  0  0  0  0
 58202  1  0  0  0  0
 59203  1  0  0  0  0
 65204  1  0  0  0  0
 66205  1  0  0  0  0
 67206  1  0  0  0  0
 68207  1  0  0  0  0
 70208  1  0  0  0  0
 70209  1  0  0  0  0
 71210  1  0  0  0  0
 71211  1  0  0  0  0
 71212  1  0  0  0  0
 88213  1  0  0  0  0
 88214  1  0  0  0  0
 89215  1  0  0  0  0
 89216  1  0  0  0  0
 89217  1  0  0  0  0
 90218  1  0  0  0  0
 91219  1  0  0  0  0
 92220  1  0  0  0  0
 93221  1  0  0  0  0
105222  1  0  0  0  0
105223  1  0  0  0  0
106224  1  0  0  0  0
106225  1  0  0  0  0
106226  1  0  0  0  0
107227  1  0  0  0  0
107228  1  0  0  0  0
108229  1  0  0  0  0
108230  1  0  0  0  0
108231  1  0  0  0  0
113232  1  0  0  0  0
114233  1  0  0  0  0
116234  1  0  0  0  0
116235  1  0  0  0  0
116236  1  0  0  0  0
117237  1  0  0  0  0
118238  1  0  0  0  0
120239  1  0  0  0  0
121240  1  0  0  0  0
123241  1  0  0  0  0
123242  1  0  0  0  0
123243  1  0  0  0  0
124244  1  0  0  0  0
125245  1  0  0  0  0
132246  1  0  0  0  0
133247  1  0  0  0  0
135248  1  0  0  0  0
135249  1  0  0  0  0
135250  1  0  0  0  0
136251  1  0  0  0  0
137252  1  0  0  0  0
139253  1  0  0  0  0
140254  1  0  0  0  0
142255  1  0  0  0  0
142256  1  0  0  0  0
142257  1  0  0  0  0
143258  1  0  0  0  0
144259  1  0  0  0  0
147260  1  0  0  0  0
152261  1  0  0  0  0
155262  1  0  0  0  0
155263  1  0  0  0  0
155264  1  0  0  0  0
156265  1  0  0  0  0
157266  1  0  0  0  0
M  END
