237

C         -5.00850        3.71390        0.33920
C         -3.75850        4.20110        0.63500
C         -2.90470        3.77920        1.75460
O         -3.26010        3.36780        2.84430
C         -1.51820        3.97660        1.29750
C         -0.36060        3.50250        1.90870
C          0.78640        3.72720        1.18360
C          0.78140        4.40930       -0.04080
C         -0.35320        4.90590       -0.64090
C         -1.53450        4.65540        0.06210
C         -2.92690        4.91760       -0.30660
C         -3.35370        5.65740       -1.38040
C         -4.70480        5.92320       -1.68030
N         -5.78110        6.19470       -1.97690
C         -2.49860        6.27550       -2.31060
N         -1.86150        6.78020       -3.12320
C          2.26960        4.24410       -0.22800
C          2.75310        3.16580       -1.22860
C          1.67580        2.11140       -1.28550
C          1.68510        1.45930       -0.13050
C          2.76440        2.06350        0.73150
C          3.78750        2.44440       -0.35060
C          2.27490        3.47880        1.13260
C         -5.66040        2.61590        0.91820
C         -6.47880        1.72330        0.18750
N         -6.83570        1.86470       -1.13590
C         -8.02890        1.25400       -1.56170
C         -8.06700        0.48890       -2.72350
C         -9.24960       -0.09860       -3.12550
C        -10.41950        0.06780       -2.39510
C        -11.70840       -0.54300       -2.85130
C        -10.37220        0.83860       -1.23840
C         -9.19350        1.41980       -0.81690
C         -5.93520        2.34780       -2.10530
C         -4.57690        2.04200       -2.03960
C         -3.70630        2.55230       -2.98130
C         -4.16140        3.35380       -4.02320
C         -3.21060        3.91480       -5.03390
C         -5.52260        3.62640       -4.09670
C         -6.40270        3.13660       -3.15190
C         -6.72850        0.55020        0.91860
S         -7.29960       -1.04000        0.47300
C         -6.48590       -1.73780        1.87270
C         -5.95610       -0.75820        2.69760
N         -5.18720       -1.03540        3.84820
C         -5.94450       -0.93350        5.04680
C         -6.92800       -1.87770        5.30810
C         -7.70560       -1.77320        6.44650
C         -7.52370       -0.72850        7.34220
C         -8.35060       -0.61880        8.58660
C         -6.54740        0.22180        7.06100
C         -5.76960        0.13180        5.92420
C         -3.82620       -0.70720        3.83250
C         -3.05460       -0.86400        4.98430
C         -1.70350       -0.58650        4.96770
C         -1.06680       -0.14340        3.81320
C          0.39690        0.18400        3.82530
C         -1.82820       -0.03710        2.65880
C         -3.17630       -0.33950        2.65590
C         -6.11660        0.53430        2.16690
S         -5.28690        2.00030        2.52960
C         -6.07640       -3.09860        1.91230
C         -6.25870       -4.08540        0.94880
C         -7.35170       -4.03160       -0.01920
C         -7.12920       -4.21790       -1.38020
C         -8.18430       -4.10500       -2.26450
C         -9.45890       -3.81970       -1.80490
C         -9.70490       -3.66070       -0.44760
C        -11.08450       -3.36370        0.06820
C        -11.12740       -2.03540        0.82340
C         -8.64130       -3.76950        0.43440
C         -5.23500       -5.05300        1.00860
S         -4.68650       -6.32380       -0.07700
C         -3.15680       -6.37390        0.75840
C         -1.82240       -6.78440        0.54350
C         -1.17060       -7.64170       -0.37560
C          0.27500       -7.68010       -0.41410
N          0.72860       -8.55030       -1.29890
S         -0.53270       -9.26160       -2.02490
N         -1.71470       -8.47870       -1.24180
C          1.01240       -6.73070        0.33720
C          2.30150       -6.18070        0.18230
S          3.73590       -6.39430       -0.77120
C          4.32020       -4.82920       -0.23780
C          5.43090       -4.03280       -0.58890
C          6.57190       -4.52560       -1.35080
C          7.86920       -4.16790       -0.98320
C          8.94740       -4.66630       -1.68550
C          8.74970       -5.53180       -2.74940
C          7.46520       -5.90550       -3.12410
C          7.23460       -6.87400       -4.24820
C          7.01230       -8.28300       -3.69550
C          6.38540       -5.40010       -2.41580
C          5.33740       -2.76890       -0.01950
S          3.96130       -2.62460        1.06990
C          3.45080       -4.21880        0.66860
C          2.32800       -5.00370        0.93860
N          1.16190       -4.85350        1.63820
C          0.33570       -5.89470        1.26240
C         -1.04300       -6.07960        1.50070
N         -1.87300       -5.40080        2.36570
C         -3.14430       -5.53840        1.88080
C         -4.32790       -4.81970        2.04170
S         -4.74950       -3.46280        3.01460
C         -1.61270       -5.03170        3.73880
C         -2.46140       -5.86140        4.70060
C          0.78910       -3.54320        2.12730
C         -0.04840       -2.78410        1.10300
C          6.08560       -1.57290       -0.18870
S          6.01780       -0.42010        1.10770
C          7.01170        0.71130        0.23520
C          7.36270        0.19300       -1.01780
C          8.19180        0.91290       -2.00200
O          8.53400        2.08010       -1.88360
C          8.57550        0.09190       -3.14300
C          9.53650        0.44820       -4.05880
C         10.36210        1.68170       -4.06900
C         11.54040        1.61220       -5.02940
S          9.69470       -0.76780       -5.27830
C          8.43470       -1.73620       -4.58440
C          8.01240       -2.99740       -5.24380
C          6.82470       -2.75090       -6.17840
C          7.94360       -1.15460       -3.44560
C          6.88140       -1.70780       -2.60560
O          6.10590       -2.57010       -2.98220
C          6.81440       -1.08280       -1.27540
C          7.42540        1.96560        0.72320
C          6.94380        2.68580        1.77890
C          5.77700        2.36010        2.61270
O          5.21750        1.28350        2.72580
C          5.39580        3.61280        3.28560
C          4.28440        3.82280        4.10130
C          4.16300        5.11190        4.56150
C          5.08490        6.11840        4.24060
C          6.19480        5.92140        3.45310
C          6.33410        4.61740        2.97020
C          7.37050        4.03130        2.12410
C          8.56620        4.60690        1.79160
C          9.61860        3.94460        1.11960
N         10.54240        3.46420        0.63700
C          8.94210        5.91680        2.15570
N          9.29770        6.97690        2.41540
C          4.34910        7.15850        5.04590
C          3.47430        8.18510        4.28630
C          3.02950        7.52150        3.00610
C          2.15250        6.57760        3.32060
C          1.99730        6.57740        4.82120
C          2.18010        8.07650        5.10950
C          3.32510        6.03700        5.40910
H         -5.46590        4.07840       -0.57170
H         -0.40930        2.98480        2.85390
H         -0.33970        5.42220       -1.58670
H          2.84890        5.16300       -0.29500
H          3.09330        3.55590       -2.18420
H          1.00440        1.98640       -2.11510
H          1.02420        0.67590        0.19340
H          3.12200        1.45270        1.55630
H          4.22560        1.57610       -0.84170
H          4.58120        3.09880        0.00940
H          2.86380        3.89870        1.94620
H         -7.16490        0.35160       -3.30080
H         -9.26210       -0.69970       -4.02280
H        -12.30360        0.19810       -3.38600
H        -12.29340       -0.89120       -2.00300
H        -11.52480       -1.37710       -3.52390
H        -11.27490        0.99740       -0.66590
H         -9.16950        2.01720        0.08290
H         -4.20700        1.40930       -1.24510
H         -2.65390        2.31480       -2.91120
H         -2.88100        4.90960       -4.73110
H         -2.32920        3.28480       -5.12950
H         -3.68980        4.00530       -6.00570
H         -5.89800        4.24570       -4.89720
H         -7.45460        3.37050       -3.21130
H         -7.08130       -2.69300        4.61730
H         -8.46510       -2.51730        6.63980
H         -9.19260       -1.30570        8.55740
H         -8.72760        0.39510        8.70830
H         -7.74510       -0.85530        9.46170
H         -6.40460        1.05220        7.73740
H         -5.03100        0.88840        5.70360
H         -3.52090       -1.20810        5.89500
H         -1.12930       -0.70880        5.87540
H          0.98720       -0.70000        4.06790
H          0.72330        0.56020        2.85880
H          0.61010        0.93830        4.58190
H         -1.36920        0.30100        1.73890
H         -3.72000       -0.28480        1.72520
H         -6.13290       -4.42860       -1.73790
H         -8.01150       -4.23730       -3.32230
H        -10.27440       -3.73000       -2.50790
H        -11.40310       -4.16860        0.73660
H        -11.78350       -3.32930       -0.76940
H        -10.54180       -2.08830        1.73760
H        -10.71560       -1.24140        0.20510
H        -12.15170       -1.78370        1.08950
H         -8.81020       -3.66260        1.49640
H          8.02690       -3.50930       -0.14150
H          9.95050       -4.38440       -1.39990
H          9.59990       -5.91670       -3.29430
H          6.35520       -6.56980       -4.81920
H          8.09590       -6.87830       -4.91920
H          7.88270       -8.60860       -3.12990
H          6.84170       -8.98710       -4.50640
H          6.14900       -8.29740       -3.03430
H          5.38340       -5.66010       -2.71980
H         -0.55950       -5.22430        3.94870
H         -1.84090       -3.96840        3.88080
H         -2.28920       -6.92340        4.53930
H         -3.51790       -5.65130        4.56110
H         -2.19430       -5.61440        5.72430
H          0.25150       -3.61360        3.06950
H          1.72040       -3.00240        2.31250
H         -0.96270       -3.32670        0.87490
H         -0.31750       -1.81270        1.50530
H          0.51420       -2.64720        0.18230
H          9.71320        2.52420       -4.33210
H         10.70440        1.87850       -3.04840
H         12.19720        0.78470       -4.76980
H         11.19480        1.46880       -6.05140
H         12.11310        2.53450       -4.98480
H          7.70860       -3.71100       -4.47580
H          8.84840       -3.41200       -5.81080
H          5.97320       -2.40330       -5.60010
H          6.55150       -3.67590       -6.67870
H          7.07430       -2.00540       -6.93060
H          8.17950        2.43790        0.10280
H          3.60500        3.01630        4.33120
H          6.89840        6.70350        3.22090
H          4.91350        7.61640        5.85580
H          3.92230        9.16970        4.18380
H          3.42130        7.76920        2.03690
H          1.65060        5.88790        2.66750
H          1.10240        6.09790        5.20890
H          2.31750        8.30300        6.16590
H          1.37140        8.68320        4.70530
H          3.22930        5.75870        6.45690
