203

C         -3.04140       -6.19720       -4.45210
C         -4.20150       -5.78130       -3.83530
C         -4.31280       -4.51520       -3.09450
O         -3.46130       -3.65460       -2.96350
C         -5.62500       -4.56050       -2.41770
C         -6.17080       -3.58860       -1.58660
C         -7.42400       -3.89800       -1.11310
C         -8.07730       -5.09480       -1.42840
C         -7.54170       -6.06910       -2.23860
C         -6.27590       -5.76590       -2.74240
C         -5.41300       -6.52580       -3.64560
C         -5.76090       -7.66870       -4.32520
C         -4.93930       -8.28780       -5.28700
N         -4.33460       -8.82650       -6.10220
C         -7.00450       -8.31420       -4.21050
N         -8.00790       -8.87390       -4.17290
C         -9.29940       -4.73330       -0.62060
C        -10.55260       -4.25080       -1.39180
C        -10.05520       -3.64950       -2.68250
C         -9.43730       -2.51330       -2.38810
C         -9.50510       -2.32700       -0.89270
C        -10.86930       -2.97160       -0.60060
C         -8.57170       -3.39650       -0.27270
C         -2.02870       -5.35000       -4.91260
C         -2.06920       -4.01080       -5.35300
N         -3.18150       -3.26420       -5.60760
C         -3.08830       -1.85260       -5.59640
C         -2.49220       -1.18870       -4.52910
C         -2.40190        0.18890       -4.54190
C         -2.90410        0.93110       -5.60480
C         -2.76550        2.42230       -5.62400
C         -3.52020        0.25730       -6.65240
C         -3.61530       -1.12090       -6.65420
C         -4.44830       -3.81670       -5.84680
C         -4.61170       -4.93690       -6.65950
C         -5.86710       -5.47430       -6.85340
C         -6.99130       -4.92130       -6.24480
C         -8.33780       -5.55100       -6.41550
C         -6.82480       -3.78420       -5.46550
C         -5.57370       -3.23030       -5.27110
C         -0.75670       -3.53560       -5.58810
S         -0.09650       -1.99670       -6.02980
C          1.53590       -2.61490       -5.84710
C          1.56210       -3.94580       -5.45930
N          2.69950       -4.64650       -5.08600
C          3.67890       -4.01360       -4.30430
C          5.03140       -4.27170       -4.51720
C          5.99090       -3.58190       -3.80570
C          5.63920       -2.61830       -2.86610
C          6.69930       -1.85640       -2.13140
C          4.28960       -2.39870       -2.62770
C          3.31870       -3.09050       -3.32630
C          2.79240       -6.00690       -5.40680
C          2.26750       -6.47900       -6.60840
C          2.33510       -7.82230       -6.91680
C          2.93530       -8.72840       -6.05080
C          2.98340      -10.18650       -6.38960
C          3.46710       -8.24750       -4.86080
C          3.39550       -6.90810       -4.53380
C          0.24830       -4.46710       -5.36770
S         -0.38460       -6.01100       -4.94080
C          2.62440       -1.68290       -5.81550
C          3.91510       -1.79680       -6.27300
C          4.38560       -2.78420       -7.29080
C          4.33780       -2.16050       -8.68750
C          4.73670       -0.79050       -5.72310
C          4.06350        0.09020       -4.88010
S          2.38370       -0.27180       -4.78540
C          4.93530        0.95210       -4.21070
C          6.27330        0.72360       -4.54070
S          6.46520       -0.52370       -5.73420
C          7.05040        1.55110       -3.70160
C          8.43240        1.82830       -3.59380
N          9.42350        1.36010       -4.33500
S         10.80710        2.04190       -3.84240
N         10.19940        2.95650       -2.65310
C          8.89150        2.76510       -2.59600
C          7.97620        3.27450       -1.64480
C          8.13660        3.96980       -0.42970
S          9.37820        4.72930        0.51660
C          8.21430        5.01680        1.79330
C          8.29280        5.57890        3.07620
C          7.09740        5.52080        3.74880
S          5.83500        4.78550        2.77440
C          6.93810        4.54830        1.47430
C          6.89070        3.96750        0.20370
N          5.95160        3.35190       -0.58030
C          4.74290        2.82370        0.02140
C          4.75940        1.30030        0.09790
C          6.60140        2.93190       -1.72720
C          6.13230        2.21380       -2.84760
N          4.84120        1.88230       -3.20940
C          3.67200        2.72220       -3.06430
C          3.22060        3.29510       -4.40690
C          6.75870        5.92600        5.09180
C          5.63200        5.35660        5.70830
C          5.30480        5.73350        6.98480
C          4.19150        5.24450        7.83930
O          3.37570        4.39360        7.57730
C          4.32810        6.02860        9.09360
C          5.44400        6.88670        8.99600
C          6.05910        6.69400        7.68840
C          7.17150        7.25610        7.08790
C          7.51420        6.86530        5.80080
C          5.77270        7.70080       10.06490
C          4.98250        7.65600       11.20420
C          3.85260        6.83540       11.29060
C          3.53960        5.98890       10.21540
C          3.07770        6.81700       12.51230
C          1.74300        6.62360       12.61040
C          0.76600        6.61520       11.47960
O          0.93890        7.02280       10.35350
C         -0.49180        6.10100       12.04880
C         -1.65200        5.77660       11.34830
C         -2.65960        5.27700       12.13660
C         -2.52640        5.11360       13.52360
C         -1.39320        5.43970       14.22820
C         -0.35410        5.95420       13.44460
C          0.98190        6.39090       13.83440
C          1.41840        6.57040       15.11820
C          2.69700        7.03990       15.48880
N          3.70930        7.42320       15.87190
C          0.62440        6.35590       16.26600
N          0.03660        6.20770       17.24060
C         -3.91840        4.55240       13.67040
C         -5.01770        5.48530       14.23540
C         -4.59780        6.89480       13.89890
C         -4.72350        7.05250       12.58800
C         -5.23090        5.75250       12.01420
C         -6.11120        5.26820       13.17730
C         -4.06710        4.73670       12.12720
H         -2.84780       -7.25960       -4.54060
H         -5.63160       -2.68080       -1.36380
H         -8.05010       -6.99250       -2.46260
H         -9.54900       -5.40520        0.19830
H        -11.34140       -4.99290       -1.48150
H        -10.15080       -4.12950       -3.63900
H         -8.91270       -1.84740       -3.04890
H         -9.34020       -1.31650       -0.52720
H        -11.70100       -2.40910       -1.02260
H        -11.04620       -3.15000        0.45920
H         -8.34820       -3.19500        0.77340
H         -2.13060       -1.76290       -3.69070
H         -1.93600        0.69760       -3.71060
H         -1.77590        2.69570       -5.99170
H         -2.87580        2.83480       -4.62350
H         -3.50670        2.87530       -6.27760
H         -3.92590        0.81740       -7.48250
H         -4.09300       -1.63710       -7.47440
H         -3.75330       -5.38750       -7.13490
H         -5.97650       -6.34570       -7.48240
H         -8.44690       -6.39380       -5.73150
H         -9.12980       -4.83720       -6.20320
H         -8.46280       -5.92950       -7.42760
H         -7.68290       -3.33300       -4.98880
H         -5.45730       -2.34810       -4.65950
H          5.32200       -5.00530       -5.25430
H          7.03610       -3.77730       -3.99620
H          7.21700       -2.51030       -1.42960
H          6.27020       -1.02720       -1.57410
H          7.43950       -1.46390       -2.82680
H          3.98790       -1.67460       -1.88380
H          2.27350       -2.90940       -3.12110
H          1.80980       -5.78680       -7.30090
H          1.91890       -8.17340       -7.84990
H          3.23440      -10.33120       -7.43860
H          2.00820      -10.64160       -6.21460
H          3.71630      -10.70530       -5.77680
H          3.93630       -8.93380       -4.17060
H          3.79940       -6.55360       -3.59720
H          5.41340       -3.06720       -7.05760
H          3.75970       -3.67600       -7.26960
H          3.31950       -1.87160       -8.93910
H          4.69060       -2.87390       -9.42780
H          4.96970       -1.27640       -8.72880
H          9.19660        5.97710        3.49890
H          3.85120        3.16440       -0.50710
H          4.69790        3.23630        1.03190
H          5.65190        0.95980        0.61850
H          4.74680        0.86090       -0.89610
H          3.88560        0.95420        0.64300
H          2.85760        2.14050       -2.61890
H          3.93690        3.55430       -2.41380
H          2.40360        3.99300       -4.24480
H          4.04220        3.82380       -4.88540
H          2.87430        2.50960       -5.07200
H          5.03330        4.61960        5.19320
H          7.76890        7.99290        7.60360
H          8.37540        7.31050        5.32610
H          6.62840        8.35770       10.02340
H          5.22790        8.28940       12.04480
H          2.71670        5.29470       10.26930
H          3.65430        6.94400       13.42040
H         -1.70730        5.90910       10.27920
H         -1.30400        5.30130       15.29280
H         -3.98350        3.54310       14.07200
H         -5.27930        5.29710       15.27310
H         -4.21030        7.59150       14.61880
H         -4.46180        7.90790       11.99300
H         -5.68750        5.80770       11.02950
H         -6.42310        4.22890       13.08210
H         -6.98300        5.90060       13.33700
H         -4.23170        3.84830       11.52050
