
  xtb     02202218183D
 energy: -351.893244582039 gnorm: 0.000455595545 xtb: 6.4.1 (unknown)
210233  0     0  0            999 V2000
   -9.1415    1.9534   -0.5858 C   0  0  0  0  0  0  0  0  0  0  0  0
   -9.9546    1.4128    0.3864 C   0  0  0  0  0  0  0  0  0  0  0  0
   -9.5513    1.0184    1.7369 C   0  0  0  0  0  0  0  0  0  0  0  0
   -8.4248    0.9839    2.2052 O   0  0  0  0  0  0  0  0  0  0  0  0
  -10.7941    0.6854    2.4583 C   0  0  0  0  0  0  0  0  0  0  0  0
  -10.9105    0.2660    3.7804 C   0  0  0  0  0  0  0  0  0  0  0  0
  -12.2038    0.0275    4.1800 C   0  0  0  0  0  0  0  0  0  0  0  0
  -13.3001    0.1895    3.3242 C   0  0  0  0  0  0  0  0  0  0  0  0
  -13.1975    0.5978    2.0148 C   0  0  0  0  0  0  0  0  0  0  0  0
  -11.8913    0.8519    1.5906 C   0  0  0  0  0  0  0  0  0  0  0  0
  -11.3871    1.2768    0.2838 C   0  0  0  0  0  0  0  0  0  0  0  0
  -12.1594    1.4740   -0.8366 C   0  0  0  0  0  0  0  0  0  0  0  0
  -13.5663    1.4113   -0.8585 C   0  0  0  0  0  0  0  0  0  0  0  0
  -14.7115    1.4016   -0.9532 N   0  0  0  0  0  0  0  0  0  0  0  0
  -11.6734    1.7351   -2.1316 C   0  0  0  0  0  0  0  0  0  0  0  0
  -11.3702    1.9118   -3.2270 N   0  0  0  0  0  0  0  0  0  0  0  0
  -14.2913   -0.2178    4.3860 C   0  0  0  0  0  0  0  0  0  0  0  0
  -15.1082    0.9008    5.0784 C   0  0  0  0  0  0  0  0  0  0  0  0
  -14.2740    2.1546    4.9942 C   0  0  0  0  0  0  0  0  0  0  0  0
  -13.2350    2.0046    5.8047 C   0  0  0  0  0  0  0  0  0  0  0  0
  -13.3481    0.6465    6.4519 C   0  0  0  0  0  0  0  0  0  0  0  0
  -14.8767    0.5197    6.5494 C   0  0  0  0  0  0  0  0  0  0  0  0
  -13.0691   -0.3961    5.3409 C   0  0  0  0  0  0  0  0  0  0  0  0
   -7.7607    2.1336   -0.6104 C   0  0  0  0  0  0  0  0  0  0  0  0
   -7.0738    2.7798   -1.6715 C   0  0  0  0  0  0  0  0  0  0  0  0
   -7.6543    3.4654   -2.7058 N   0  0  0  0  0  0  0  0  0  0  0  0
   -7.0183    3.4696   -3.9618 C   0  0  0  0  0  0  0  0  0  0  0  0
   -6.9472    4.6352   -4.7174 C   0  0  0  0  0  0  0  0  0  0  0  0
   -6.3708    4.6123   -5.9721 C   0  0  0  0  0  0  0  0  0  0  0  0
   -5.8422    3.4414   -6.4992 C   0  0  0  0  0  0  0  0  0  0  0  0
   -5.2711    3.3960   -7.8821 C   0  0  0  0  0  0  0  0  0  0  0  0
   -5.8913    2.2883   -5.7240 C   0  0  0  0  0  0  0  0  0  0  0  0
   -6.4763    2.2935   -4.4751 C   0  0  0  0  0  0  0  0  0  0  0  0
   -8.8286    4.2243   -2.5418 C   0  0  0  0  0  0  0  0  0  0  0  0
   -9.0533    4.9379   -1.3672 C   0  0  0  0  0  0  0  0  0  0  0  0
  -10.2223    5.6551   -1.2073 C   0  0  0  0  0  0  0  0  0  0  0  0
  -11.1819    5.6976   -2.2119 C   0  0  0  0  0  0  0  0  0  0  0  0
  -12.4659    6.4469   -2.0315 C   0  0  0  0  0  0  0  0  0  0  0  0
  -10.9297    5.0132   -3.3953 C   0  0  0  0  0  0  0  0  0  0  0  0
   -9.7728    4.2797   -3.5642 C   0  0  0  0  0  0  0  0  0  0  0  0
   -5.6852    2.6394   -1.5236 C   0  0  0  0  0  0  0  0  0  0  0  0
   -4.3137    3.1772   -2.4377 S   0  0  0  0  0  0  0  0  0  0  0  0
   -3.2128    2.4882   -1.2440 C   0  0  0  0  0  0  0  0  0  0  0  0
   -3.9012    1.8222   -0.2289 C   0  0  0  0  0  0  0  0  0  0  0  0
   -3.3576    1.1040    0.8338 N   0  0  0  0  0  0  0  0  0  0  0  0
   -4.0320    1.2408    2.0648 C   0  0  0  0  0  0  0  0  0  0  0  0
   -4.4409    0.1303    2.7955 C   0  0  0  0  0  0  0  0  0  0  0  0
   -5.1687    0.2988    3.9556 C   0  0  0  0  0  0  0  0  0  0  0  0
   -5.5119    1.5655    4.4117 C   0  0  0  0  0  0  0  0  0  0  0  0
   -6.3685    1.7354    5.6275 C   0  0  0  0  0  0  0  0  0  0  0  0
   -5.0791    2.6690    3.6878 C   0  0  0  0  0  0  0  0  0  0  0  0
   -4.3441    2.5146    2.5298 C   0  0  0  0  0  0  0  0  0  0  0  0
   -2.4415    0.0721    0.6425 C   0  0  0  0  0  0  0  0  0  0  0  0
   -2.2941   -0.5536   -0.5959 C   0  0  0  0  0  0  0  0  0  0  0  0
   -1.3021   -1.4929   -0.7875 C   0  0  0  0  0  0  0  0  0  0  0  0
   -0.4380   -1.8507    0.2415 C   0  0  0  0  0  0  0  0  0  0  0  0
    0.6558   -2.8476    0.0033 C   0  0  0  0  0  0  0  0  0  0  0  0
   -0.6172   -1.2558    1.4841 C   0  0  0  0  0  0  0  0  0  0  0  0
   -1.5994   -0.3086    1.6886 C   0  0  0  0  0  0  0  0  0  0  0  0
   -5.3021    1.9477   -0.3836 C   0  0  0  0  0  0  0  0  0  0  0  0
   -6.6468    1.4646    0.5866 S   0  0  0  0  0  0  0  0  0  0  0  0
   -1.8109    2.6392   -1.4281 C   0  0  0  0  0  0  0  0  0  0  0  0
   -1.1262    3.1033   -2.5442 C   0  0  0  0  0  0  0  0  0  0  0  0
   -1.7019    3.6919   -3.7613 C   0  0  0  0  0  0  0  0  0  0  0  0
   -1.5165    3.0692   -4.9899 C   0  0  0  0  0  0  0  0  0  0  0  0
   -1.9948    3.6668   -6.1403 C   0  0  0  0  0  0  0  0  0  0  0  0
   -2.6580    4.8789   -6.0739 C   0  0  0  0  0  0  0  0  0  0  0  0
   -2.8493    5.5149   -4.8550 C   0  0  0  0  0  0  0  0  0  0  0  0
   -3.5286    6.8512   -4.7793 C   0  0  0  0  0  0  0  0  0  0  0  0
   -2.4984    7.9812   -4.8252 C   0  0  0  0  0  0  0  0  0  0  0  0
   -2.3524    4.9194   -3.7060 C   0  0  0  0  0  0  0  0  0  0  0  0
    0.2629    2.9484   -2.3992 C   0  0  0  0  0  0  0  0  0  0  0  0
    1.6076    3.2367   -3.4806 S   0  0  0  0  0  0  0  0  0  0  0  0
    2.6759    2.5537   -2.2962 C   0  0  0  0  0  0  0  0  0  0  0  0
    4.0295    2.2041   -2.1514 C   0  0  0  0  0  0  0  0  0  0  0  0
    5.1696    2.4560   -2.9469 C   0  0  0  0  0  0  0  0  0  0  0  0
    6.4534    1.9943   -2.4932 C   0  0  0  0  0  0  0  0  0  0  0  0
    7.4341    2.3476   -3.3082 N   0  0  0  0  0  0  0  0  0  0  0  0
    6.8012    3.1847   -4.5415 S   0  0  0  0  0  0  0  0  0  0  0  0
    5.2495    3.1270   -4.0848 N   0  0  0  0  0  0  0  0  0  0  0  0
    6.5198    1.1764   -1.3423 C   0  0  0  0  0  0  0  0  0  0  0  0
    7.5559    0.3900   -0.8165 C   0  0  0  0  0  0  0  0  0  0  0  0
    9.2257    0.0590   -1.1270 S   0  0  0  0  0  0  0  0  0  0  0  0
    9.1740   -1.1885    0.0954 C   0  0  0  0  0  0  0  0  0  0  0  0
   10.1380   -2.0869    0.5646 C   0  0  0  0  0  0  0  0  0  0  0  0
   11.5197   -2.1196    0.0737 C   0  0  0  0  0  0  0  0  0  0  0  0
   12.5911   -1.9429    0.9457 C   0  0  0  0  0  0  0  0  0  0  0  0
   13.8833   -1.9975    0.4612 C   0  0  0  0  0  0  0  0  0  0  0  0
   14.1162   -2.2296   -0.8835 C   0  0  0  0  0  0  0  0  0  0  0  0
   13.0579   -2.3845   -1.7691 C   0  0  0  0  0  0  0  0  0  0  0  0
   13.3017   -2.6805   -3.2191 C   0  0  0  0  0  0  0  0  0  0  0  0
   13.3586   -4.1927   -3.4427 C   0  0  0  0  0  0  0  0  0  0  0  0
   11.7616   -2.3191   -1.2797 C   0  0  0  0  0  0  0  0  0  0  0  0
    9.6251   -2.9249    1.5526 C   0  0  0  0  0  0  0  0  0  0  0  0
    7.9384   -2.5646    1.9014 S   0  0  0  0  0  0  0  0  0  0  0  0
    7.9222   -1.3150    0.7120 C   0  0  0  0  0  0  0  0  0  0  0  0
    6.9999   -0.3980    0.1997 C   0  0  0  0  0  0  0  0  0  0  0  0
    5.6696   -0.0975    0.3473 N   0  0  0  0  0  0  0  0  0  0  0  0
    5.3560    0.8776   -0.5812 C   0  0  0  0  0  0  0  0  0  0  0  0
    4.1406    1.5269   -0.9047 C   0  0  0  0  0  0  0  0  0  0  0  0
    2.9080    1.5435   -0.2759 N   0  0  0  0  0  0  0  0  0  0  0  0
    2.0243    2.1528   -1.1257 C   0  0  0  0  0  0  0  0  0  0  0  0
    0.6503    2.4044   -1.1742 C   0  0  0  0  0  0  0  0  0  0  0  0
   -0.7075    2.1328   -0.1524 S   0  0  0  0  0  0  0  0  0  0  0  0
    2.6209    1.4734    1.1397 C   0  0  0  0  0  0  0  0  0  0  0  0
    2.3669    2.8628    1.7237 C   0  0  0  0  0  0  0  0  0  0  0  0
    4.7926   -1.0007    1.0607 C   0  0  0  0  0  0  0  0  0  0  0  0
    4.9336   -0.8724    2.5770 C   0  0  0  0  0  0  0  0  0  0  0  0
   10.2667   -4.0673    2.0911 C   0  0  0  0  0  0  0  0  0  0  0  0
   11.5399   -4.7998    1.1480 S   0  0  0  0  0  0  0  0  0  0  0  0
   11.7465   -6.1343    2.2565 C   0  0  0  0  0  0  0  0  0  0  0  0
   10.8459   -5.9919    3.3002 C   0  0  0  0  0  0  0  0  0  0  0  0
   10.5764   -6.9533    4.7089 S   0  0  0  0  0  0  0  0  0  0  0  0
    9.3858   -5.7998    5.2621 C   0  0  0  0  0  0  0  0  0  0  0  0
    8.7711   -6.1221    6.5507 C   0  0  0  0  0  0  0  0  0  0  0  0
    9.0631   -7.1148    7.1752 O   0  0  0  0  0  0  0  0  0  0  0  0
    7.8692   -5.2241    6.9516 O   0  0  0  0  0  0  0  0  0  0  0  0
    7.2364   -5.4934    8.2043 C   0  0  0  0  0  0  0  0  0  0  0  0
    6.2404   -4.3836    8.4797 C   0  0  0  0  0  0  0  0  0  0  0  0
    9.2059   -4.7461    4.4038 C   0  0  0  0  0  0  0  0  0  0  0  0
   10.0203   -4.8353    3.2374 C   0  0  0  0  0  0  0  0  0  0  0  0
    8.1656   -3.4485    4.7720 Cl  0  0  0  0  0  0  0  0  0  0  0  0
   12.7208   -7.1286    2.0860 C   0  0  0  0  0  0  0  0  0  0  0  0
   13.6689   -7.1772    1.1112 C   0  0  0  0  0  0  0  0  0  0  0  0
   13.9101   -6.0067   -0.1627 S   0  0  0  0  0  0  0  0  0  0  0  0
   15.3173   -6.8868   -0.7623 C   0  0  0  0  0  0  0  0  0  0  0  0
   16.2217   -6.3888   -2.0262 S   0  0  0  0  0  0  0  0  0  0  0  0
   15.5361   -7.9976   -0.0215 N   0  0  0  0  0  0  0  0  0  0  0  0
   16.6114   -8.9251   -0.3147 C   0  0  0  0  0  0  0  0  0  0  0  0
   16.2195   -9.8923   -1.4244 C   0  0  0  0  0  0  0  0  0  0  0  0
   14.6659   -8.2388    1.0343 C   0  0  0  0  0  0  0  0  0  0  0  0
   14.7600   -9.1952    1.7711 O   0  0  0  0  0  0  0  0  0  0  0  0
   -9.6461    2.3008   -1.4781 H   0  0  0  0  0  0  0  0  0  0  0  0
  -10.0372    0.1457    4.4027 H   0  0  0  0  0  0  0  0  0  0  0  0
  -14.0518    0.7132    1.3689 H   0  0  0  0  0  0  0  0  0  0  0  0
  -14.8955   -1.0950    4.1629 H   0  0  0  0  0  0  0  0  0  0  0  0
  -16.1369    0.9849    4.7384 H   0  0  0  0  0  0  0  0  0  0  0  0
  -14.4868    2.9717    4.3299 H   0  0  0  0  0  0  0  0  0  0  0  0
  -12.4059    2.6718    5.9528 H   0  0  0  0  0  0  0  0  0  0  0  0
  -12.7746    0.4999    7.3637 H   0  0  0  0  0  0  0  0  0  0  0  0
  -15.3155    1.2346    7.2441 H   0  0  0  0  0  0  0  0  0  0  0  0
  -15.2138   -0.4864    6.7951 H   0  0  0  0  0  0  0  0  0  0  0  0
  -12.8781   -1.3893    5.7433 H   0  0  0  0  0  0  0  0  0  0  0  0
   -7.3547    5.5532   -4.3206 H   0  0  0  0  0  0  0  0  0  0  0  0
   -6.3386    5.5219   -6.5540 H   0  0  0  0  0  0  0  0  0  0  0  0
   -5.9454    2.8517   -8.5439 H   0  0  0  0  0  0  0  0  0  0  0  0
   -5.1360    4.3967   -8.2834 H   0  0  0  0  0  0  0  0  0  0  0  0
   -4.3139    2.8798   -7.8842 H   0  0  0  0  0  0  0  0  0  0  0  0
   -5.4826    1.3680   -6.1147 H   0  0  0  0  0  0  0  0  0  0  0  0
   -6.5371    1.3827   -3.8975 H   0  0  0  0  0  0  0  0  0  0  0  0
   -8.3155    4.9171   -0.5784 H   0  0  0  0  0  0  0  0  0  0  0  0
  -10.3879    6.1954   -0.2862 H   0  0  0  0  0  0  0  0  0  0  0  0
  -13.3023    5.7489   -1.9944 H   0  0  0  0  0  0  0  0  0  0  0  0
  -12.4568    7.0237   -1.1100 H   0  0  0  0  0  0  0  0  0  0  0  0
  -12.6364    7.1227   -2.8678 H   0  0  0  0  0  0  0  0  0  0  0  0
  -11.6610    5.0350   -4.1889 H   0  0  0  0  0  0  0  0  0  0  0  0
   -9.6040    3.7327   -4.4781 H   0  0  0  0  0  0  0  0  0  0  0  0
   -4.2066   -0.8608    2.4361 H   0  0  0  0  0  0  0  0  0  0  0  0
   -5.4979   -0.5716    4.5042 H   0  0  0  0  0  0  0  0  0  0  0  0
   -6.2243    0.9146    6.3264 H   0  0  0  0  0  0  0  0  0  0  0  0
   -7.4164    1.7456    5.3266 H   0  0  0  0  0  0  0  0  0  0  0  0
   -6.1525    2.6747    6.1319 H   0  0  0  0  0  0  0  0  0  0  0  0
   -5.3283    3.6632    4.0301 H   0  0  0  0  0  0  0  0  0  0  0  0
   -4.0202    3.3784    1.9666 H   0  0  0  0  0  0  0  0  0  0  0  0
   -2.9507   -0.2867   -1.4110 H   0  0  0  0  0  0  0  0  0  0  0  0
   -1.1926   -1.9570   -1.7573 H   0  0  0  0  0  0  0  0  0  0  0  0
    1.3105   -2.5100   -0.8001 H   0  0  0  0  0  0  0  0  0  0  0  0
    0.2373   -3.8085   -0.2940 H   0  0  0  0  0  0  0  0  0  0  0  0
    1.2520   -2.9946    0.9009 H   0  0  0  0  0  0  0  0  0  0  0  0
    0.0333   -1.5259    2.3046 H   0  0  0  0  0  0  0  0  0  0  0  0
   -1.7047    0.1672    2.6519 H   0  0  0  0  0  0  0  0  0  0  0  0
   -1.0008    2.1216   -5.0368 H   0  0  0  0  0  0  0  0  0  0  0  0
   -1.8402    3.1867   -7.0956 H   0  0  0  0  0  0  0  0  0  0  0  0
   -3.0249    5.3421   -6.9777 H   0  0  0  0  0  0  0  0  0  0  0  0
   -4.2216    6.9595   -5.6152 H   0  0  0  0  0  0  0  0  0  0  0  0
   -4.1010    6.9187   -3.8520 H   0  0  0  0  0  0  0  0  0  0  0  0
   -1.9300    7.9367   -5.7514 H   0  0  0  0  0  0  0  0  0  0  0  0
   -2.9907    8.9492   -4.7652 H   0  0  0  0  0  0  0  0  0  0  0  0
   -1.8023    7.8928   -3.9943 H   0  0  0  0  0  0  0  0  0  0  0  0
   -2.4675    5.4154   -2.7525 H   0  0  0  0  0  0  0  0  0  0  0  0
   12.4032   -1.7668    1.9951 H   0  0  0  0  0  0  0  0  0  0  0  0
   14.7149   -1.8617    1.1368 H   0  0  0  0  0  0  0  0  0  0  0  0
   15.1299   -2.2888   -1.2515 H   0  0  0  0  0  0  0  0  0  0  0  0
   14.2456   -2.2348   -3.5371 H   0  0  0  0  0  0  0  0  0  0  0  0
   12.4983   -2.2540   -3.8233 H   0  0  0  0  0  0  0  0  0  0  0  0
   14.1819   -4.6261   -2.8807 H   0  0  0  0  0  0  0  0  0  0  0  0
   13.5051   -4.4161   -4.4966 H   0  0  0  0  0  0  0  0  0  0  0  0
   12.4343   -4.6605   -3.1105 H   0  0  0  0  0  0  0  0  0  0  0  0
   10.9264   -2.4448   -1.9537 H   0  0  0  0  0  0  0  0  0  0  0  0
    3.4734    1.0389    1.6505 H   0  0  0  0  0  0  0  0  0  0  0  0
    1.7372    0.8426    1.2874 H   0  0  0  0  0  0  0  0  0  0  0  0
    2.2036    2.7813    2.7948 H   0  0  0  0  0  0  0  0  0  0  0  0
    3.2253    3.5079    1.5473 H   0  0  0  0  0  0  0  0  0  0  0  0
    1.4889    3.3194    1.2766 H   0  0  0  0  0  0  0  0  0  0  0  0
    3.7662   -0.8282    0.7355 H   0  0  0  0  0  0  0  0  0  0  0  0
    5.0652   -2.0236    0.7750 H   0  0  0  0  0  0  0  0  0  0  0  0
    5.9215   -1.1969    2.8917 H   0  0  0  0  0  0  0  0  0  0  0  0
    4.7963    0.1535    2.9110 H   0  0  0  0  0  0  0  0  0  0  0  0
    4.1950   -1.5009    3.0663 H   0  0  0  0  0  0  0  0  0  0  0  0
    6.7448   -6.4711    8.1475 H   0  0  0  0  0  0  0  0  0  0  0  0
    8.0055   -5.5457    8.9831 H   0  0  0  0  0  0  0  0  0  0  0  0
    6.7504   -3.4248    8.5190 H   0  0  0  0  0  0  0  0  0  0  0  0
    5.7472   -4.5643    9.4301 H   0  0  0  0  0  0  0  0  0  0  0  0
    5.4934   -4.3469    7.6912 H   0  0  0  0  0  0  0  0  0  0  0  0
   12.7334   -7.9315    2.8134 H   0  0  0  0  0  0  0  0  0  0  0  0
   16.8093   -9.4679    0.6126 H   0  0  0  0  0  0  0  0  0  0  0  0
   17.4904   -8.3454   -0.6066 H   0  0  0  0  0  0  0  0  0  0  0  0
   16.0081   -9.3491   -2.3424 H   0  0  0  0  0  0  0  0  0  0  0  0
   15.3383  -10.4601   -1.1352 H   0  0  0  0  0  0  0  0  0  0  0  0
   17.0366  -10.5834   -1.6085 H   0  0  0  0  0  0  0  0  0  0  0  0
  1  2  2  0  0  0  0
  2  3  1  0  0  0  0
  3  4  2  0  0  0  0
  3  5  1  0  0  0  0
  5  6  2  0  0  0  0
  6  7  1  0  0  0  0
  7  8  2  0  0  0  0
  8  9  1  0  0  0  0
  9 10  2  0  0  0  0
 10 11  1  0  0  0  0
 11 12  2  0  0  0  0
 12 13  1  0  0  0  0
 13 14  3  0  0  0  0
 12 15  1  0  0  0  0
 15 16  3  0  0  0  0
  8 17  1  0  0  0  0
 17 18  1  0  0  0  0
 18 19  1  0  0  0  0
 19 20  2  0  0  0  0
 20 21  1  0  0  0  0
 21 22  1  0  0  0  0
 21 23  1  0  0  0  0
  1 24  1  0  0  0  0
 24 25  2  0  0  0  0
 25 26  1  0  0  0  0
 26 27  1  0  0  0  0
 27 28  2  0  0  0  0
 28 29  1  0  0  0  0
 29 30  2  0  0  0  0
 30 31  1  0  0  0  0
 30 32  1  0  0  0  0
 32 33  2  0  0  0  0
 26 34  1  0  0  0  0
 34 35  2  0  0  0  0
 35 36  1  0  0  0  0
 36 37  2  0  0  0  0
 37 38  1  0  0  0  0
 37 39  1  0  0  0  0
 39 40  2  0  0  0  0
 25 41  1  0  0  0  0
 41 42  1  0  0  0  0
 42 43  1  0  0  0  0
 43 44  2  0  0  0  0
 44 45  1  0  0  0  0
 45 46  1  0  0  0  0
 46 47  2  0  0  0  0
 47 48  1  0  0  0  0
 48 49  2  0  0  0  0
 49 50  1  0  0  0  0
 49 51  1  0  0  0  0
 51 52  2  0  0  0  0
 45 53  1  0  0  0  0
 53 54  2  0  0  0  0
 54 55  1  0  0  0  0
 55 56  2  0  0  0  0
 56 57  1  0  0  0  0
 56 58  1  0  0  0  0
 58 59  2  0  0  0  0
 44 60  1  0  0  0  0
 60 61  1  0  0  0  0
 43 62  1  0  0  0  0
 62 63  2  0  0  0  0
 63 64  1  0  0  0  0
 64 65  2  0  0  0  0
 65 66  1  0  0  0  0
 66 67  2  0  0  0  0
 67 68  1  0  0  0  0
 68 69  1  0  0  0  0
 69 70  1  0  0  0  0
 68 71  2  0  0  0  0
 63 72  1  0  0  0  0
 72 73  1  0  0  0  0
 73 74  1  0  0  0  0
 74 75  1  0  0  0  0
 75 76  1  0  0  0  0
 76 77  1  0  0  0  0
 77 78  2  0  0  0  0
 78 79  1  0  0  0  0
 79 80  1  0  0  0  0
 77 81  1  0  0  0  0
 81 82  1  0  0  0  0
 82 83  1  0  0  0  0
 83 84  1  0  0  0  0
 84 85  1  0  0  0  0
 85 86  1  0  0  0  0
 86 87  2  0  0  0  0
 87 88  1  0  0  0  0
 88 89  2  0  0  0  0
 89 90  1  0  0  0  0
 90 91  1  0  0  0  0
 91 92  1  0  0  0  0
 90 93  2  0  0  0  0
 85 94  2  0  0  0  0
 94 95  1  0  0  0  0
 95 96  1  0  0  0  0
 96 97  1  0  0  0  0
 97 98  1  0  0  0  0
 98 99  1  0  0  0  0
 99100  1  0  0  0  0
100101  1  0  0  0  0
101102  1  0  0  0  0
102103  1  0  0  0  0
103104  1  0  0  0  0
101105  1  0  0  0  0
105106  1  0  0  0  0
 98107  1  0  0  0  0
107108  1  0  0  0  0
 94109  1  0  0  0  0
109110  1  0  0  0  0
110111  1  0  0  0  0
111112  2  0  0  0  0
112113  1  0  0  0  0
113114  1  0  0  0  0
114115  1  0  0  0  0
115116  2  0  0  0  0
115117  1  0  0  0  0
117118  1  0  0  0  0
118119  1  0  0  0  0
114120  2  0  0  0  0
120121  1  0  0  0  0
120122  1  0  0  0  0
111123  1  0  0  0  0
123124  2  0  0  0  0
124125  1  0  0  0  0
125126  1  0  0  0  0
126127  2  0  0  0  0
126128  1  0  0  0  0
128129  1  0  0  0  0
129130  1  0  0  0  0
128131  1  0  0  0  0
131132  2  0  0  0  0
 11  2  1  0  0  0  0
 23 17  1  0  0  0  0
 61 24  1  0  0  0  0
104 62  1  0  0  0  0
121109  2  0  0  0  0
131124  1  0  0  0  0
 10  5  1  0  0  0  0
 22 18  1  0  0  0  0
 33 27  1  0  0  0  0
 40 34  1  0  0  0  0
 60 41  2  0  0  0  0
 71 64  1  0  0  0  0
103 72  2  0  0  0  0
121112  1  0  0  0  0
 23  7  1  0  0  0  0
 52 46  1  0  0  0  0
 59 53  1  0  0  0  0
102 74  2  0  0  0  0
100 75  2  0  0  0  0
 80 76  2  0  0  0  0
 99 81  2  0  0  0  0
 97 82  2  0  0  0  0
 96 84  2  0  0  0  0
 93 86  1  0  0  0  0
  1133  1  0  0  0  0
  6134  1  0  0  0  0
  9135  1  0  0  0  0
 17136  1  0  0  0  0
 18137  1  0  0  0  0
 19138  1  0  0  0  0
 20139  1  0  0  0  0
 21140  1  0  0  0  0
 22141  1  0  0  0  0
 22142  1  0  0  0  0
 23143  1  0  0  0  0
 28144  1  0  0  0  0
 29145  1  0  0  0  0
 31146  1  0  0  0  0
 31147  1  0  0  0  0
 31148  1  0  0  0  0
 32149  1  0  0  0  0
 33150  1  0  0  0  0
 35151  1  0  0  0  0
 36152  1  0  0  0  0
 38153  1  0  0  0  0
 38154  1  0  0  0  0
 38155  1  0  0  0  0
 39156  1  0  0  0  0
 40157  1  0  0  0  0
 47158  1  0  0  0  0
 48159  1  0  0  0  0
 50160  1  0  0  0  0
 50161  1  0  0  0  0
 50162  1  0  0  0  0
 51163  1  0  0  0  0
 52164  1  0  0  0  0
 54165  1  0  0  0  0
 55166  1  0  0  0  0
 57167  1  0  0  0  0
 57168  1  0  0  0  0
 57169  1  0  0  0  0
 58170  1  0  0  0  0
 59171  1  0  0  0  0
 65172  1  0  0  0  0
 66173  1  0  0  0  0
 67174  1  0  0  0  0
 69175  1  0  0  0  0
 69176  1  0  0  0  0
 70177  1  0  0  0  0
 70178  1  0  0  0  0
 70179  1  0  0  0  0
 71180  1  0  0  0  0
 87181  1  0  0  0  0
 88182  1  0  0  0  0
 89183  1  0  0  0  0
 91184  1  0  0  0  0
 91185  1  0  0  0  0
 92186  1  0  0  0  0
 92187  1  0  0  0  0
 92188  1  0  0  0  0
 93189  1  0  0  0  0
105190  1  0  0  0  0
105191  1  0  0  0  0
106192  1  0  0  0  0
106193  1  0  0  0  0
106194  1  0  0  0  0
107195  1  0  0  0  0
107196  1  0  0  0  0
108197  1  0  0  0  0
108198  1  0  0  0  0
108199  1  0  0  0  0
118200  1  0  0  0  0
118201  1  0  0  0  0
119202  1  0  0  0  0
119203  1  0  0  0  0
119204  1  0  0  0  0
123205  1  0  0  0  0
129206  1  0  0  0  0
129207  1  0  0  0  0
130208  1  0  0  0  0
130209  1  0  0  0  0
130210  1  0  0  0  0
M  END
