262

C         -7.92660        3.94610        8.43890
C         -7.24960        4.65980        9.39330
C         -7.70850        6.01650        9.76120
O         -8.78320        6.52130        9.51020
C         -6.55140        6.64750       10.43510
C         -6.43750        7.96720       10.86360
C         -5.22100        8.27170       11.42730
C         -4.18670        7.33590       11.55450
C         -4.28960        6.02520       11.15090
C         -5.51950        5.69660       10.57830
C         -6.00470        4.41360       10.07400
C         -5.51150        3.17930       10.42630
C         -4.30400        2.97340       11.11380
N         -3.31100        2.74540       11.64600
C         -6.22250        1.98730       10.18140
N         -6.81080        1.00940       10.04550
C         -3.25450        8.33380       12.19560
C         -2.13460        8.95340       11.32310
C         -2.62690        8.92020        9.89810
C         -3.60930        9.80420        9.78760
C         -3.79770       10.45310       11.13620
C         -2.34770       10.44090       11.64690
C         -4.41040        9.37470       12.06270
C         -7.42220        2.92760        7.61790
C         -8.12740        2.01230        6.81650
N         -9.48980        1.90400        6.71540
C        -10.30870        3.04270        6.67080
C         -9.91290        4.15560        5.93050
C        -10.70590        5.28400        5.89910
C        -11.91230        5.33200        6.58940
C        -12.74340        6.57630        6.58110
C        -12.30800        4.20970        7.30720
C        -11.52070        3.07580        7.35370
C        -10.06910        0.62190        6.69730
C        -11.16420        0.35340        5.88300
C        -11.76290       -0.89060        5.92020
C        -11.28590       -1.89180        6.75690
C        -11.98490       -3.21260        6.85710
C        -10.17010       -1.62210        7.54140
C         -9.56560       -0.38210        7.52130
C         -7.24190        1.14260        6.14350
S         -7.45780       -0.14390        5.00700
C         -5.71100       -0.31690        4.84270
C         -5.01270        0.51930        5.71220
N         -3.65040        0.49340        5.95220
C         -3.08300        1.66460        6.50440
C         -2.47930        1.63800        7.75740
C         -2.02060        2.80870        8.32770
C         -2.14690        4.02370        7.66520
C         -1.71960        5.30410        8.31400
C         -2.71230        4.03370        6.39530
C         -3.17840        2.86980        5.81560
C         -2.93720       -0.70750        6.05900
C         -3.55800       -1.91660        6.36640
C         -2.82170       -3.08220        6.41330
C         -1.45100       -3.08060        6.17740
C         -0.67450       -4.36120        6.21130
C         -0.83390       -1.86640        5.90660
C         -1.56120       -0.69480        5.84020
C         -5.89970        1.38160        6.39270
S         -5.67740        2.72250        7.45030
C         -5.17780       -1.15660        3.82740
C         -5.82400       -2.16240        3.13020
C         -7.16370       -2.66460        3.47200
C         -7.33130       -3.31800        4.68960
C         -8.56080       -3.83040        5.05170
C         -9.63720       -3.69020        4.19370
C         -9.47600       -3.03450        2.98800
C         -8.24700       -2.51710        2.60220
C         -8.12710       -1.77060        1.30360
C         -8.12940       -0.25860        1.53240
C         -5.01140       -2.68660        2.10980
S         -5.24240       -3.96750        0.94040
C         -3.65960       -3.65040        0.30880
C         -2.79840       -4.11340       -0.70540
C         -2.85880       -5.18640       -1.62340
C         -1.72780       -5.44870       -2.47960
N         -1.90810       -6.52080       -3.23480
S         -3.36630       -7.14350       -2.90950
N         -3.82930       -6.07090       -1.78930
C         -0.63860       -4.54830       -2.48230
C          0.51290       -4.42100       -3.28490
S          1.32660       -5.25650       -4.56280
C          2.50860       -3.97070       -4.64300
C          3.67180       -3.75940       -5.41790
C          4.28940       -4.67540       -6.39200
C          3.64710       -5.17940       -7.52500
C          2.21010       -4.89850       -7.86070
C          1.36600       -6.17370       -7.80700
C          4.37410       -5.98640       -8.39510
C          5.69000       -6.32390       -8.15160
C          6.31520       -5.84900       -7.01040
C          5.61920       -5.02690       -6.14850
C          4.31010       -2.59820       -5.03680
S          3.50160       -1.75910       -3.72600
C          2.27730       -2.97130       -3.69660
C          1.13500       -3.22330       -2.92730
N          0.43690       -2.60620       -1.91750
C         -0.64100       -3.42230       -1.62160
C         -1.63880       -3.30130       -0.63380
N         -1.75000       -2.41980        0.42750
C         -2.98880       -2.62630        0.98450
C         -3.75910       -2.07760        2.01430
S         -3.56880       -0.82770        3.18770
C         -0.65380       -1.94080        1.24640
C         -0.45940       -2.82020        2.48120
C          0.47260       -1.16260       -1.79630
C         -0.00370       -0.49180       -3.08420
C          5.51230       -2.04540       -5.60000
C          5.72010       -1.66420       -6.91240
N          4.74820       -1.63510       -7.89620
C          3.46130       -1.16780       -7.61700
C          3.23190       -0.24400       -6.60000
C          1.94900        0.18550       -6.31940
C          0.85980       -0.28080       -7.04190
C         -0.53680        0.16520       -6.73130
C          1.09900       -1.17570       -8.07960
C          2.37490       -1.61060       -8.36950
C          5.15240       -1.92400       -9.21310
C          6.01250       -2.99360       -9.44480
C          6.45420       -3.26320      -10.72370
C          6.05180       -2.48290      -11.80040
C          6.56880       -2.76210      -13.17710
C          5.18550       -1.42390      -11.56010
C          4.73960       -1.13930      -10.28460
C          7.05330       -1.23090       -7.11570
S          7.92390       -0.72950       -8.51600
C          9.35300       -0.43000       -7.52100
C          9.15730       -0.82890       -6.16590
N         10.12140       -0.85260       -5.20130
C          9.73910       -0.71890       -3.85010
C         10.26110       -1.57240       -2.88390
C          9.88920       -1.42690       -1.56240
C          8.99430       -0.43700       -1.17340
C          8.57300       -0.29860        0.25640
C          8.48390        0.41460       -2.14660
C          8.85060        0.28320       -3.47070
C         11.48280       -1.09050       -5.48100
C         12.46620       -0.42810       -4.75210
C         13.80070       -0.63020       -5.04930
C         14.18820       -1.47520       -6.08120
C         15.62820       -1.61730       -6.45800
C         13.19680       -2.16530       -6.77440
C         11.86190       -1.99210       -6.47440
C          7.83010       -1.24330       -5.96270
S          6.92720       -1.79620       -4.58770
C         10.49980        0.21340       -7.95980
C         10.92050        0.54770       -9.23500
C         10.26180        0.15880      -10.47510
O          9.17560       -0.37120      -10.61800
C         11.20030        0.52890      -11.56180
C         11.01790        0.42530      -12.92710
Cl         9.62290       -0.30120      -13.58460
C         12.00640        0.94820      -13.77250
Cl        11.84070        0.81200      -15.46990
C         13.10290        1.61230      -13.22920
Cl        14.25770        2.31390      -14.28010
C         13.27260        1.73170      -11.83980
Cl        14.56830        2.70120      -11.26960
C         12.34640        1.12690      -10.99820
C         12.21910        1.08730       -9.54300
C         13.19700        1.40420       -8.61960
C         12.94310        1.70900       -7.27030
N         12.81830        2.05610       -6.18010
C         14.58460        1.32870       -8.83380
N         15.71700        1.13030       -8.84720
H         -8.93800        4.28640        8.24690
H         -7.25650        8.66020       10.75010
H         -3.49330        5.30630       11.25570
H         -2.90660        8.08410       13.19620
H         -1.14500        8.53930       11.49820
H         -2.25670        8.24090        9.15300
H         -4.22850       10.00680        8.93330
H         -4.32190       11.40520       11.14150
H         -2.25970       10.67110       12.70780
H         -1.69300       11.09530       11.07300
H         -4.81900        9.79820       12.97840
H         -8.97780        4.12820        5.38990
H        -10.38410        6.14330        5.32940
H        -12.69710        7.06790        5.61160
H        -13.78110        6.35530        6.81860
H        -12.36340        7.27260        7.32900
H        -13.24110        4.22710        7.85110
H        -11.83140        2.21600        7.92830
H        -11.54710        1.12600        5.23250
H        -12.61960       -1.08370        5.29070
H        -11.27000       -4.02360        6.97420
H        -12.63840       -3.21750        7.73060
H        -12.59800       -3.39870        5.97870
H         -9.78210       -2.38750        8.19710
H         -8.72220       -0.17540        8.16380
H         -2.39870        0.70250        8.29090
H         -1.58540        2.77860        9.31550
H         -1.09360        5.11130        9.18140
H         -1.17130        5.93050        7.61230
H         -2.60040        5.85730        8.64410
H         -2.80270        4.96800        5.86020
H         -3.63560        2.88580        4.83680
H         -4.61670       -1.93870        6.57750
H         -3.31820       -4.01330        6.64660
H         -0.86310       -4.89850        7.13920
H          0.39260       -4.17170        6.12810
H         -0.97540       -5.00730        5.38660
H          0.23260       -1.83570        5.73600
H         -1.07130        0.24020        5.61310
H         -6.47970       -3.42730        5.34620
H         -8.67470       -4.34130        5.99580
H        -10.60110       -4.09490        4.45930
H        -10.32170       -2.92370        2.32430
H         -8.96950       -2.03580        0.66200
H         -7.21050       -2.05270        0.78470
H         -8.11820        0.26680        0.58010
H         -7.25460        0.04270        2.10320
H         -9.01690        0.03890        2.08680
H          1.79800       -4.15020       -7.18420
H          2.15830       -4.49720       -8.87580
H          0.31840       -5.93540       -7.97320
H          1.68460       -6.87900       -8.57040
H          1.45920       -6.65700       -6.83840
H          3.89110       -6.35080       -9.29000
H          6.22680       -6.95220       -8.84660
H          7.34090       -6.11110       -6.79670
H          6.10310       -4.65890       -5.25520
H          0.26310       -1.96510        0.65940
H         -0.86880       -0.91280        1.55590
H          0.41310       -2.48230        3.03280
H         -0.30660       -3.85530        2.18300
H         -1.32090       -2.76710        3.14090
H         -0.18020       -0.85140       -0.98360
H          1.50170       -0.86070       -1.57710
H          0.00880        0.58740       -2.95760
H          0.63960       -0.75280       -3.92000
H         -1.01990       -0.80520       -3.31440
H          4.06270        0.15290       -6.03530
H          1.79940        0.90650       -5.52810
H         -1.02070        0.55290       -7.62640
H         -1.13130       -0.67450       -6.37110
H         -0.53850        0.94110       -5.96990
H          0.26880       -1.53980       -8.66760
H          2.54500       -2.29450       -9.18590
H          6.32950       -3.60860       -8.61570
H          7.12540       -4.09360      -10.88780
H          5.92370       -2.32440      -13.93500
H          6.64840       -3.83290      -13.35320
H          7.56340       -2.33000      -13.28610
H          4.86550       -0.80030      -12.38240
H          4.08050       -0.30120      -10.11110
H         10.95420       -2.34720       -3.17610
H         10.29850       -2.09730       -0.82100
H          8.44540        0.74830        0.52260
H          9.30500       -0.74690        0.92340
H          7.61850       -0.80240        0.41130
H          7.79560        1.19670       -1.86200
H          8.46300        0.96190       -4.21630
H         12.18200        0.25960       -3.97110
H         14.55120       -0.09520       -4.48790
H         15.82350       -2.59150       -6.89960
H         16.27200       -1.48110       -5.59260
H         15.89110       -0.85430       -7.19350
H         13.47720       -2.85250       -7.55950
H         11.10620       -2.53860       -7.01950
H         11.18770        0.47400       -7.16670
