
  xtb     02092202283D
 energy: -428.505711815115 gnorm: 0.000555714955 xtb: 6.4.1 (unknown)
265293  0     0  0            999 V2000
   -4.0989    5.6741    3.4605 C   0  0  0  0  0  0  0  0  0  0  0  0
   -4.3844    4.4916    2.8316 C   0  0  0  0  0  0  0  0  0  0  0  0
   -3.3458    3.5350    2.3817 C   0  0  0  0  0  0  0  0  0  0  0  0
   -2.1451    3.5984    2.5648 O   0  0  0  0  0  0  0  0  0  0  0  0
   -4.0377    2.5748    1.5051 C   0  0  0  0  0  0  0  0  0  0  0  0
   -3.4558    1.5163    0.8123 C   0  0  0  0  0  0  0  0  0  0  0  0
   -4.3328    0.8092    0.0253 C   0  0  0  0  0  0  0  0  0  0  0  0
   -5.6930    1.1345   -0.0674 C   0  0  0  0  0  0  0  0  0  0  0  0
   -6.2778    2.1827    0.6054 C   0  0  0  0  0  0  0  0  0  0  0  0
   -5.4017    2.9166    1.4109 C   0  0  0  0  0  0  0  0  0  0  0  0
   -5.6403    4.1030    2.2316 C   0  0  0  0  0  0  0  0  0  0  0  0
   -6.8483    4.7271    2.4195 C   0  0  0  0  0  0  0  0  0  0  0  0
   -7.0551    5.8569    3.2358 C   0  0  0  0  0  0  0  0  0  0  0  0
   -7.3184    6.7696    3.8831 N   0  0  0  0  0  0  0  0  0  0  0  0
   -8.0579    4.3212    1.8212 C   0  0  0  0  0  0  0  0  0  0  0  0
   -9.0780    4.0495    1.3684 N   0  0  0  0  0  0  0  0  0  0  0  0
   -5.9727    0.0164   -1.0418 C   0  0  0  0  0  0  0  0  0  0  0  0
   -6.6644   -1.2617   -0.5080 C   0  0  0  0  0  0  0  0  0  0  0  0
   -6.3125   -1.3593    0.9556 C   0  0  0  0  0  0  0  0  0  0  0  0
   -5.0250   -1.6660    1.0436 C   0  0  0  0  0  0  0  0  0  0  0  0
   -4.4832   -1.7802   -0.3592 C   0  0  0  0  0  0  0  0  0  0  0  0
   -5.7203   -2.3275   -1.0879 C   0  0  0  0  0  0  0  0  0  0  0  0
   -4.4577   -0.3441   -0.9385 C   0  0  0  0  0  0  0  0  0  0  0  0
   -2.8546    5.9105    4.0978 C   0  0  0  0  0  0  0  0  0  0  0  0
   -1.9668    6.9668    3.8495 C   0  0  0  0  0  0  0  0  0  0  0  0
   -2.2632    8.0812    3.1072 N   0  0  0  0  0  0  0  0  0  0  0  0
   -1.3159    8.5956    2.2060 C   0  0  0  0  0  0  0  0  0  0  0  0
   -0.5255    7.7353    1.4481 C   0  0  0  0  0  0  0  0  0  0  0  0
    0.4172    8.2485    0.5800 C   0  0  0  0  0  0  0  0  0  0  0  0
    0.5861    9.6202    0.4339 C   0  0  0  0  0  0  0  0  0  0  0  0
    1.6292   10.1661   -0.4921 C   0  0  0  0  0  0  0  0  0  0  0  0
   -0.2224   10.4698    1.1799 C   0  0  0  0  0  0  0  0  0  0  0  0
   -1.1618    9.9705    2.0599 C   0  0  0  0  0  0  0  0  0  0  0  0
   -3.5463    8.6469    3.1817 C   0  0  0  0  0  0  0  0  0  0  0  0
   -4.1885    9.1053    2.0359 C   0  0  0  0  0  0  0  0  0  0  0  0
   -5.4678    9.6214    2.1209 C   0  0  0  0  0  0  0  0  0  0  0  0
   -6.1365    9.6905    3.3363 C   0  0  0  0  0  0  0  0  0  0  0  0
   -7.5404   10.1960    3.4283 C   0  0  0  0  0  0  0  0  0  0  0  0
   -5.4779    9.2475    4.4792 C   0  0  0  0  0  0  0  0  0  0  0  0
   -4.1997    8.7355    4.4103 C   0  0  0  0  0  0  0  0  0  0  0  0
   -0.6816    6.6549    4.3538 C   0  0  0  0  0  0  0  0  0  0  0  0
    0.9125    7.2944    4.1005 S   0  0  0  0  0  0  0  0  0  0  0  0
    1.6210    5.9119    4.9153 C   0  0  0  0  0  0  0  0  0  0  0  0
    0.6668    5.0400    5.4058 C   0  0  0  0  0  0  0  0  0  0  0  0
    0.9488    3.8122    6.0077 N   0  0  0  0  0  0  0  0  0  0  0  0
    0.3845    3.5478    7.2558 C   0  0  0  0  0  0  0  0  0  0  0  0
    0.0574    2.2526    7.6538 C   0  0  0  0  0  0  0  0  0  0  0  0
   -0.4850    2.0256    8.9017 C   0  0  0  0  0  0  0  0  0  0  0  0
   -0.7322    3.0706    9.7847 C   0  0  0  0  0  0  0  0  0  0  0  0
   -1.3300    2.8053   11.1333 C   0  0  0  0  0  0  0  0  0  0  0  0
   -0.4318    4.3606    9.3701 C   0  0  0  0  0  0  0  0  0  0  0  0
    0.1171    4.6017    8.1270 C   0  0  0  0  0  0  0  0  0  0  0  0
    1.6389    2.8482    5.2628 C   0  0  0  0  0  0  0  0  0  0  0  0
    1.4703    2.7757    3.8813 C   0  0  0  0  0  0  0  0  0  0  0  0
    2.1410    1.8155    3.1485 C   0  0  0  0  0  0  0  0  0  0  0  0
    2.9962    0.9079    3.7589 C   0  0  0  0  0  0  0  0  0  0  0  0
    3.6618   -0.1805    2.9732 C   0  0  0  0  0  0  0  0  0  0  0  0
    3.1748    0.9992    5.1347 C   0  0  0  0  0  0  0  0  0  0  0  0
    2.5075    1.9496    5.8795 C   0  0  0  0  0  0  0  0  0  0  0  0
   -0.6358    5.4713    5.0767 C   0  0  0  0  0  0  0  0  0  0  0  0
   -2.1599    4.6804    5.1394 S   0  0  0  0  0  0  0  0  0  0  0  0
    2.9997    5.5387    4.7447 C   0  0  0  0  0  0  0  0  0  0  0  0
    3.8441    4.9655    5.6740 C   0  0  0  0  0  0  0  0  0  0  0  0
    3.6454    5.1360    7.1100 C   0  0  0  0  0  0  0  0  0  0  0  0
    3.0737    6.3111    7.5970 C   0  0  0  0  0  0  0  0  0  0  0  0
    2.8496    6.4647    8.9510 C   0  0  0  0  0  0  0  0  0  0  0  0
    3.1763    5.4495    9.8321 C   0  0  0  0  0  0  0  0  0  0  0  0
    3.7646    4.2796    9.3691 C   0  0  0  0  0  0  0  0  0  0  0  0
    4.0778    3.1573   10.3159 C   0  0  0  0  0  0  0  0  0  0  0  0
    2.8408    2.2801   10.5193 C   0  0  0  0  0  0  0  0  0  0  0  0
    4.0088    4.1409    8.0122 C   0  0  0  0  0  0  0  0  0  0  0  0
    4.8528    4.2026    5.0350 C   0  0  0  0  0  0  0  0  0  0  0  0
    6.0553    3.0648    5.6067 S   0  0  0  0  0  0  0  0  0  0  0  0
    6.3274    2.5365    3.9763 C   0  0  0  0  0  0  0  0  0  0  0  0
    6.8537    1.4237    3.2932 C   0  0  0  0  0  0  0  0  0  0  0  0
    7.4315    0.2201    3.7602 C   0  0  0  0  0  0  0  0  0  0  0  0
    7.4195   -0.9417    2.9053 C   0  0  0  0  0  0  0  0  0  0  0  0
    7.8689   -2.0228    3.5209 N   0  0  0  0  0  0  0  0  0  0  0  0
    8.2875   -1.6219    5.0338 S   0  0  0  0  0  0  0  0  0  0  0  0
    7.8946   -0.0517    4.9689 N   0  0  0  0  0  0  0  0  0  0  0  0
    6.9374   -0.8208    1.5821 C   0  0  0  0  0  0  0  0  0  0  0  0
    6.6038   -1.7592    0.5843 C   0  0  0  0  0  0  0  0  0  0  0  0
    6.4234   -3.4749    0.3951 S   0  0  0  0  0  0  0  0  0  0  0  0
    5.6163   -3.2069   -1.1352 C   0  0  0  0  0  0  0  0  0  0  0  0
    4.9185   -4.0490   -2.0201 C   0  0  0  0  0  0  0  0  0  0  0  0
    4.8156   -5.5024   -1.8908 C   0  0  0  0  0  0  0  0  0  0  0  0
    5.0823   -6.3251   -2.9831 C   0  0  0  0  0  0  0  0  0  0  0  0
    4.9737   -7.6955   -2.8536 C   0  0  0  0  0  0  0  0  0  0  0  0
    4.5908   -8.2533   -1.6457 C   0  0  0  0  0  0  0  0  0  0  0  0
    4.3287   -7.4474   -0.5453 C   0  0  0  0  0  0  0  0  0  0  0  0
    3.8540   -8.0390    0.7500 C   0  0  0  0  0  0  0  0  0  0  0  0
    2.3243   -8.0525    0.7880 C   0  0  0  0  0  0  0  0  0  0  0  0
    4.4530   -6.0728   -0.6766 C   0  0  0  0  0  0  0  0  0  0  0  0
    4.3127   -3.3278   -3.0371 C   0  0  0  0  0  0  0  0  0  0  0  0
    4.6769   -1.6048   -2.9452 S   0  0  0  0  0  0  0  0  0  0  0  0
    5.5714   -1.8587   -1.4937 C   0  0  0  0  0  0  0  0  0  0  0  0
    6.1333   -1.0366   -0.5151 C   0  0  0  0  0  0  0  0  0  0  0  0
    6.1819    0.3112   -0.2583 N   0  0  0  0  0  0  0  0  0  0  0  0
    6.5991    0.4535    1.0559 C   0  0  0  0  0  0  0  0  0  0  0  0
    6.4330    1.5440    1.9404 C   0  0  0  0  0  0  0  0  0  0  0  0
    5.6861    2.6956    1.8066 N   0  0  0  0  0  0  0  0  0  0  0  0
    5.5989    3.2747    3.0414 C   0  0  0  0  0  0  0  0  0  0  0  0
    4.7677    4.2250    3.6448 C   0  0  0  0  0  0  0  0  0  0  0  0
    3.5035    5.2540    3.0858 S   0  0  0  0  0  0  0  0  0  0  0  0
    4.7790    3.1027    0.7594 C   0  0  0  0  0  0  0  0  0  0  0  0
    5.2528    4.3739    0.0581 C   0  0  0  0  0  0  0  0  0  0  0  0
    6.3710    1.2572   -1.3394 C   0  0  0  0  0  0  0  0  0  0  0  0
    7.5146    0.8324   -2.2600 C   0  0  0  0  0  0  0  0  0  0  0  0
    3.2524   -3.7458   -3.8858 C   0  0  0  0  0  0  0  0  0  0  0  0
    2.7356   -3.0538   -4.9793 C   0  0  0  0  0  0  0  0  0  0  0  0
    3.3741   -2.0070   -5.6213 N   0  0  0  0  0  0  0  0  0  0  0  0
    2.5861   -0.9583   -6.1235 C   0  0  0  0  0  0  0  0  0  0  0  0
    2.8231   -0.4246   -7.3867 C   0  0  0  0  0  0  0  0  0  0  0  0
    2.0238    0.5925   -7.8682 C   0  0  0  0  0  0  0  0  0  0  0  0
    0.9692    1.0973   -7.1160 C   0  0  0  0  0  0  0  0  0  0  0  0
    0.0841    2.1753   -7.6619 C   0  0  0  0  0  0  0  0  0  0  0  0
    0.7413    0.5597   -5.8555 C   0  0  0  0  0  0  0  0  0  0  0  0
    1.5387   -0.4519   -5.3585 C   0  0  0  0  0  0  0  0  0  0  0  0
    4.7496   -2.0593   -5.8808 C   0  0  0  0  0  0  0  0  0  0  0  0
    5.4988   -0.8853   -5.9231 C   0  0  0  0  0  0  0  0  0  0  0  0
    6.8622   -0.9363   -6.1370 C   0  0  0  0  0  0  0  0  0  0  0  0
    7.5186   -2.1480   -6.3062 C   0  0  0  0  0  0  0  0  0  0  0  0
    8.9990   -2.2114   -6.5260 C   0  0  0  0  0  0  0  0  0  0  0  0
    6.7625   -3.3151   -6.2715 C   0  0  0  0  0  0  0  0  0  0  0  0
    5.3989   -3.2779   -6.0672 C   0  0  0  0  0  0  0  0  0  0  0  0
    1.4690   -3.5599   -5.3446 C   0  0  0  0  0  0  0  0  0  0  0  0
    0.2546   -3.0959   -6.4817 S   0  0  0  0  0  0  0  0  0  0  0  0
   -0.8010   -4.4003   -5.9444 C   0  0  0  0  0  0  0  0  0  0  0  0
   -0.2071   -5.1705   -4.9323 C   0  0  0  0  0  0  0  0  0  0  0  0
   -0.8384   -6.1221   -4.1511 N   0  0  0  0  0  0  0  0  0  0  0  0
   -0.8706   -5.9188   -2.7658 C   0  0  0  0  0  0  0  0  0  0  0  0
   -0.8155   -6.9942   -1.8834 C   0  0  0  0  0  0  0  0  0  0  0  0
   -0.8610   -6.7772   -0.5202 C   0  0  0  0  0  0  0  0  0  0  0  0
   -0.9458   -5.4935    0.0023 C   0  0  0  0  0  0  0  0  0  0  0  0
   -0.9961   -5.2553    1.4803 C   0  0  0  0  0  0  0  0  0  0  0  0
   -1.0008   -4.4247   -0.8861 C   0  0  0  0  0  0  0  0  0  0  0  0
   -0.9732   -4.6270   -2.2497 C   0  0  0  0  0  0  0  0  0  0  0  0
   -1.2750   -7.3516   -4.6800 C   0  0  0  0  0  0  0  0  0  0  0  0
   -0.4230   -8.1143   -5.4692 C   0  0  0  0  0  0  0  0  0  0  0  0
   -0.8570   -9.3248   -5.9791 C   0  0  0  0  0  0  0  0  0  0  0  0
   -2.1375   -9.7923   -5.7205 C   0  0  0  0  0  0  0  0  0  0  0  0
   -2.6101  -11.1057   -6.2651 C   0  0  0  0  0  0  0  0  0  0  0  0
   -2.9799   -9.0207   -4.9247 C   0  0  0  0  0  0  0  0  0  0  0  0
   -2.5565   -7.8162   -4.4021 C   0  0  0  0  0  0  0  0  0  0  0  0
    1.0595   -4.6515   -4.5928 C   0  0  0  0  0  0  0  0  0  0  0  0
    2.2363   -5.1000   -3.4040 S   0  0  0  0  0  0  0  0  0  0  0  0
   -2.1593   -4.3640   -6.3186 C   0  0  0  0  0  0  0  0  0  0  0  0
   -2.9263   -5.4561   -6.6382 C   0  0  0  0  0  0  0  0  0  0  0  0
   -2.3738   -6.6322   -7.3359 C   0  0  0  0  0  0  0  0  0  0  0  0
   -1.2092   -6.8577   -7.5903 O   0  0  0  0  0  0  0  0  0  0  0  0
   -3.5520   -7.4022   -7.7881 C   0  0  0  0  0  0  0  0  0  0  0  0
   -3.5848   -8.5773   -8.5096 C   0  0  0  0  0  0  0  0  0  0  0  0
   -4.8119   -9.1547   -8.8204 C   0  0  0  0  0  0  0  0  0  0  0  0
   -4.9200  -10.4308   -9.5908 C   0  0  0  0  0  0  0  0  0  0  0  0
   -5.9635   -8.4961   -8.3887 C   0  0  0  0  0  0  0  0  0  0  0  0
   -7.1563   -9.0491   -8.6867 F   0  0  0  0  0  0  0  0  0  0  0  0
   -5.9591   -7.3089   -7.6733 C   0  0  0  0  0  0  0  0  0  0  0  0
   -4.7270   -6.7545   -7.3710 C   0  0  0  0  0  0  0  0  0  0  0  0
   -4.3602   -5.5475   -6.6368 C   0  0  0  0  0  0  0  0  0  0  0  0
   -5.2082   -4.7195   -5.9418 C   0  0  0  0  0  0  0  0  0  0  0  0
   -4.7631   -3.6696   -5.1156 C   0  0  0  0  0  0  0  0  0  0  0  0
   -4.4624   -2.8263   -4.3947 N   0  0  0  0  0  0  0  0  0  0  0  0
   -6.6092   -4.8569   -5.9293 C   0  0  0  0  0  0  0  0  0  0  0  0
   -7.7554   -4.9195   -5.8929 N   0  0  0  0  0  0  0  0  0  0  0  0
   -4.8033    6.4937    3.3895 H   0  0  0  0  0  0  0  0  0  0  0  0
   -2.4021    1.3053    0.9109 H   0  0  0  0  0  0  0  0  0  0  0  0
   -7.3225    2.4294    0.5121 H   0  0  0  0  0  0  0  0  0  0  0  0
   -6.3580    0.3173   -2.0137 H   0  0  0  0  0  0  0  0  0  0  0  0
   -7.7200   -1.3394   -0.7538 H   0  0  0  0  0  0  0  0  0  0  0  0
   -7.0002   -1.1437    1.7526 H   0  0  0  0  0  0  0  0  0  0  0  0
   -4.4234   -1.7562    1.9297 H   0  0  0  0  0  0  0  0  0  0  0  0
   -3.5548   -2.3330   -0.4767 H   0  0  0  0  0  0  0  0  0  0  0  0
   -5.9813   -3.3370   -0.7727 H   0  0  0  0  0  0  0  0  0  0  0  0
   -5.6293   -2.2935   -2.1723 H   0  0  0  0  0  0  0  0  0  0  0  0
   -3.8598   -0.2796   -1.8451 H   0  0  0  0  0  0  0  0  0  0  0  0
   -0.6624    6.6672    1.5359 H   0  0  0  0  0  0  0  0  0  0  0  0
    1.0281    7.5710    0.0013 H   0  0  0  0  0  0  0  0  0  0  0  0
    1.7350    9.5350   -1.3718 H   0  0  0  0  0  0  0  0  0  0  0  0
    1.3793   11.1757   -0.8087 H   0  0  0  0  0  0  0  0  0  0  0  0
    2.5942   10.1990    0.0149 H   0  0  0  0  0  0  0  0  0  0  0  0
   -0.1097   11.5393    1.0772 H   0  0  0  0  0  0  0  0  0  0  0  0
   -1.7798   10.6394    2.6405 H   0  0  0  0  0  0  0  0  0  0  0  0
   -3.6865    9.0402    1.0815 H   0  0  0  0  0  0  0  0  0  0  0  0
   -5.9597    9.9608    1.2207 H   0  0  0  0  0  0  0  0  0  0  0  0
   -8.2062    9.3612    3.6443 H   0  0  0  0  0  0  0  0  0  0  0  0
   -7.6381   10.9193    4.2358 H   0  0  0  0  0  0  0  0  0  0  0  0
   -7.8542   10.6595    2.4966 H   0  0  0  0  0  0  0  0  0  0  0  0
   -5.9805    9.2978    5.4329 H   0  0  0  0  0  0  0  0  0  0  0  0
   -3.7000    8.3906    5.3038 H   0  0  0  0  0  0  0  0  0  0  0  0
    0.2196    1.4268    6.9776 H   0  0  0  0  0  0  0  0  0  0  0  0
   -0.7286    1.0144    9.1955 H   0  0  0  0  0  0  0  0  0  0  0  0
   -0.8858    1.9202   11.5849 H   0  0  0  0  0  0  0  0  0  0  0  0
   -1.1810    3.6529   11.7981 H   0  0  0  0  0  0  0  0  0  0  0  0
   -2.4025    2.6305   11.0411 H   0  0  0  0  0  0  0  0  0  0  0  0
   -0.6218    5.1934   10.0321 H   0  0  0  0  0  0  0  0  0  0  0  0
    0.3544    5.6119    7.8296 H   0  0  0  0  0  0  0  0  0  0  0  0
    0.7856    3.4489    3.3869 H   0  0  0  0  0  0  0  0  0  0  0  0
    1.9756    1.7572    2.0815 H   0  0  0  0  0  0  0  0  0  0  0  0
    3.0533   -1.0854    3.0055 H   0  0  0  0  0  0  0  0  0  0  0  0
    3.7853    0.1020    1.9299 H   0  0  0  0  0  0  0  0  0  0  0  0
    4.6365   -0.4221    3.3903 H   0  0  0  0  0  0  0  0  0  0  0  0
    3.8479    0.3134    5.6292 H   0  0  0  0  0  0  0  0  0  0  0  0
    2.6502    2.0039    6.9473 H   0  0  0  0  0  0  0  0  0  0  0  0
    2.8223    7.1079    6.9125 H   0  0  0  0  0  0  0  0  0  0  0  0
    2.4135    7.3812    9.3215 H   0  0  0  0  0  0  0  0  0  0  0  0
    2.9849    5.5691   10.8886 H   0  0  0  0  0  0  0  0  0  0  0  0
    4.3930    3.5622   11.2798 H   0  0  0  0  0  0  0  0  0  0  0  0
    4.8922    2.5502    9.9161 H   0  0  0  0  0  0  0  0  0  0  0  0
    2.5170    1.8511    9.5737 H   0  0  0  0  0  0  0  0  0  0  0  0
    2.0177    2.8705   10.9150 H   0  0  0  0  0  0  0  0  0  0  0  0
    3.0575    1.4705   11.2125 H   0  0  0  0  0  0  0  0  0  0  0  0
    4.4798    3.2401    7.6494 H   0  0  0  0  0  0  0  0  0  0  0  0
    5.3845   -5.8825   -3.9213 H   0  0  0  0  0  0  0  0  0  0  0  0
    5.1863   -8.3339   -3.6986 H   0  0  0  0  0  0  0  0  0  0  0  0
    4.4986   -9.3261   -1.5547 H   0  0  0  0  0  0  0  0  0  0  0  0
    4.2284   -9.0591    0.8543 H   0  0  0  0  0  0  0  0  0  0  0  0
    4.2310   -7.4478    1.5866 H   0  0  0  0  0  0  0  0  0  0  0  0
    1.9338   -7.0430    0.6800 H   0  0  0  0  0  0  0  0  0  0  0  0
    1.9316   -8.6546   -0.0284 H   0  0  0  0  0  0  0  0  0  0  0  0
    1.9709   -8.4672    1.7295 H   0  0  0  0  0  0  0  0  0  0  0  0
    4.2476   -5.4331    0.1692 H   0  0  0  0  0  0  0  0  0  0  0  0
    3.8090    3.3046    1.2270 H   0  0  0  0  0  0  0  0  0  0  0  0
    4.6456    2.2814    0.0584 H   0  0  0  0  0  0  0  0  0  0  0  0
    5.2637    5.2023    0.7616 H   0  0  0  0  0  0  0  0  0  0  0  0
    6.2562    4.2578   -0.3458 H   0  0  0  0  0  0  0  0  0  0  0  0
    4.5750    4.6201   -0.7542 H   0  0  0  0  0  0  0  0  0  0  0  0
    6.6118    2.2266   -0.9075 H   0  0  0  0  0  0  0  0  0  0  0  0
    5.4468    1.3300   -1.9239 H   0  0  0  0  0  0  0  0  0  0  0  0
    7.2732   -0.0896   -2.7824 H   0  0  0  0  0  0  0  0  0  0  0  0
    8.4265    0.6826   -1.6860 H   0  0  0  0  0  0  0  0  0  0  0  0
    7.6902    1.6092   -2.9994 H   0  0  0  0  0  0  0  0  0  0  0  0
    3.6305   -0.8156   -7.9880 H   0  0  0  0  0  0  0  0  0  0  0  0
    2.2158    0.9949   -8.8523 H   0  0  0  0  0  0  0  0  0  0  0  0
   -0.3215    2.7885   -6.8605 H   0  0  0  0  0  0  0  0  0  0  0  0
   -0.7530    1.7299   -8.2006 H   0  0  0  0  0  0  0  0  0  0  0  0
    0.6283    2.8122   -8.3552 H   0  0  0  0  0  0  0  0  0  0  0  0
   -0.0694    0.9411   -5.2517 H   0  0  0  0  0  0  0  0  0  0  0  0
    1.3600   -0.8520   -4.3709 H   0  0  0  0  0  0  0  0  0  0  0  0
    5.0058    0.0636   -5.7735 H   0  0  0  0  0  0  0  0  0  0  0  0
    7.4268   -0.0151   -6.1604 H   0  0  0  0  0  0  0  0  0  0  0  0
    9.4424   -1.2201   -6.4797 H   0  0  0  0  0  0  0  0  0  0  0  0
    9.2191   -2.6442   -7.5014 H   0  0  0  0  0  0  0  0  0  0  0  0
    9.4698   -2.8399   -5.7711 H   0  0  0  0  0  0  0  0  0  0  0  0
    7.2521   -4.2681   -6.4126 H   0  0  0  0  0  0  0  0  0  0  0  0
    4.8281   -4.1951   -6.0562 H   0  0  0  0  0  0  0  0  0  0  0  0
   -0.7312   -7.9985   -2.2706 H   0  0  0  0  0  0  0  0  0  0  0  0
   -0.8189   -7.6240    0.1493 H   0  0  0  0  0  0  0  0  0  0  0  0
   -1.9938   -4.9286    1.7745 H   0  0  0  0  0  0  0  0  0  0  0  0
   -0.7575   -6.1629    2.0288 H   0  0  0  0  0  0  0  0  0  0  0  0
   -0.2937   -4.4750    1.7681 H   0  0  0  0  0  0  0  0  0  0  0  0
   -1.0738   -3.4177   -0.5008 H   0  0  0  0  0  0  0  0  0  0  0  0
   -1.0434   -3.7850   -2.9229 H   0  0  0  0  0  0  0  0  0  0  0  0
    0.5712   -7.7534   -5.6827 H   0  0  0  0  0  0  0  0  0  0  0  0
   -0.1883   -9.9075   -6.5952 H   0  0  0  0  0  0  0  0  0  0  0  0
   -2.5698  -11.8687   -5.4870 H   0  0  0  0  0  0  0  0  0  0  0  0
   -3.6407  -11.0315   -6.6059 H   0  0  0  0  0  0  0  0  0  0  0  0
   -1.9849  -11.4325   -7.0920 H   0  0  0  0  0  0  0  0  0  0  0  0
   -3.9831   -9.3671   -4.7206 H   0  0  0  0  0  0  0  0  0  0  0  0
   -3.2139   -7.2200   -3.7853 H   0  0  0  0  0  0  0  0  0  0  0  0
   -2.6071   -3.3766   -6.3637 H   0  0  0  0  0  0  0  0  0  0  0  0
   -2.6617   -9.0433   -8.8173 H   0  0  0  0  0  0  0  0  0  0  0  0
   -5.5565  -11.1407   -9.0643 H   0  0  0  0  0  0  0  0  0  0  0  0
   -5.3795  -10.2432  -10.5611 H   0  0  0  0  0  0  0  0  0  0  0  0
   -3.9397  -10.8720   -9.7452 H   0  0  0  0  0  0  0  0  0  0  0  0
   -6.8947   -6.8584   -7.3841 H   0  0  0  0  0  0  0  0  0  0  0  0
  1  2  2  0  0  0  0
  2  3  1  0  0  0  0
  3  4  2  0  0  0  0
  3  5  1  0  0  0  0
  5  6  2  0  0  0  0
  6  7  1  0  0  0  0
  7  8  2  0  0  0  0
  8  9  1  0  0  0  0
  9 10  2  0  0  0  0
 10 11  1  0  0  0  0
 11 12  2  0  0  0  0
 12 13  1  0  0  0  0
 13 14  3  0  0  0  0
 12 15  1  0  0  0  0
 15 16  3  0  0  0  0
  8 17  1  0  0  0  0
 17 18  1  0  0  0  0
 18 19  1  0  0  0  0
 19 20  2  0  0  0  0
 20 21  1  0  0  0  0
 21 22  1  0  0  0  0
 21 23  1  0  0  0  0
  1 24  1  0  0  0  0
 24 25  2  0  0  0  0
 25 26  1  0  0  0  0
 26 27  1  0  0  0  0
 27 28  2  0  0  0  0
 28 29  1  0  0  0  0
 29 30  2  0  0  0  0
 30 31  1  0  0  0  0
 30 32  1  0  0  0  0
 32 33  2  0  0  0  0
 26 34  1  0  0  0  0
 34 35  2  0  0  0  0
 35 36  1  0  0  0  0
 36 37  2  0  0  0  0
 37 38  1  0  0  0  0
 37 39  1  0  0  0  0
 39 40  2  0  0  0  0
 25 41  1  0  0  0  0
 41 42  1  0  0  0  0
 42 43  1  0  0  0  0
 43 44  2  0  0  0  0
 44 45  1  0  0  0  0
 45 46  1  0  0  0  0
 46 47  2  0  0  0  0
 47 48  1  0  0  0  0
 48 49  2  0  0  0  0
 49 50  1  0  0  0  0
 49 51  1  0  0  0  0
 51 52  2  0  0  0  0
 45 53  1  0  0  0  0
 53 54  2  0  0  0  0
 54 55  1  0  0  0  0
 55 56  2  0  0  0  0
 56 57  1  0  0  0  0
 56 58  1  0  0  0  0
 58 59  2  0  0  0  0
 44 60  1  0  0  0  0
 60 61  1  0  0  0  0
 43 62  1  0  0  0  0
 62 63  2  0  0  0  0
 63 64  1  0  0  0  0
 64 65  2  0  0  0  0
 65 66  1  0  0  0  0
 66 67  2  0  0  0  0
 67 68  1  0  0  0  0
 68 69  1  0  0  0  0
 69 70  1  0  0  0  0
 68 71  2  0  0  0  0
 63 72  1  0  0  0  0
 72 73  1  0  0  0  0
 73 74  1  0  0  0  0
 74 75  1  0  0  0  0
 75 76  1  0  0  0  0
 76 77  1  0  0  0  0
 77 78  2  0  0  0  0
 78 79  1  0  0  0  0
 79 80  1  0  0  0  0
 77 81  1  0  0  0  0
 81 82  1  0  0  0  0
 82 83  1  0  0  0  0
 83 84  1  0  0  0  0
 84 85  1  0  0  0  0
 85 86  1  0  0  0  0
 86 87  2  0  0  0  0
 87 88  1  0  0  0  0
 88 89  2  0  0  0  0
 89 90  1  0  0  0  0
 90 91  1  0  0  0  0
 91 92  1  0  0  0  0
 90 93  2  0  0  0  0
 85 94  2  0  0  0  0
 94 95  1  0  0  0  0
 95 96  1  0  0  0  0
 96 97  1  0  0  0  0
 97 98  1  0  0  0  0
 98 99  1  0  0  0  0
 99100  1  0  0  0  0
100101  1  0  0  0  0
101102  1  0  0  0  0
102103  1  0  0  0  0
103104  1  0  0  0  0
101105  1  0  0  0  0
105106  1  0  0  0  0
 98107  1  0  0  0  0
107108  1  0  0  0  0
 94109  1  0  0  0  0
109110  2  0  0  0  0
110111  1  0  0  0  0
111112  1  0  0  0  0
112113  2  0  0  0  0
113114  1  0  0  0  0
114115  2  0  0  0  0
115116  1  0  0  0  0
115117  1  0  0  0  0
117118  2  0  0  0  0
111119  1  0  0  0  0
119120  2  0  0  0  0
120121  1  0  0  0  0
121122  2  0  0  0  0
122123  1  0  0  0  0
122124  1  0  0  0  0
124125  2  0  0  0  0
110126  1  0  0  0  0
126127  1  0  0  0  0
127128  1  0  0  0  0
128129  2  0  0  0  0
129130  1  0  0  0  0
130131  1  0  0  0  0
131132  2  0  0  0  0
132133  1  0  0  0  0
133134  2  0  0  0  0
134135  1  0  0  0  0
134136  1  0  0  0  0
136137  2  0  0  0  0
130138  1  0  0  0  0
138139  2  0  0  0  0
139140  1  0  0  0  0
140141  2  0  0  0  0
141142  1  0  0  0  0
141143  1  0  0  0  0
143144  2  0  0  0  0
129145  1  0  0  0  0
145146  1  0  0  0  0
128147  1  0  0  0  0
147148  2  0  0  0  0
148149  1  0  0  0  0
149150  2  0  0  0  0
149151  1  0  0  0  0
151152  2  0  0  0  0
152153  1  0  0  0  0
153154  1  0  0  0  0
153155  2  0  0  0  0
155156  1  0  0  0  0
155157  1  0  0  0  0
157158  2  0  0  0  0
158159  1  0  0  0  0
159160  2  0  0  0  0
160161  1  0  0  0  0
161162  3  0  0  0  0
160163  1  0  0  0  0
163164  3  0  0  0  0
 11  2  1  0  0  0  0
 23 17  1  0  0  0  0
 61 24  1  0  0  0  0
104 62  1  0  0  0  0
146109  1  0  0  0  0
159148  1  0  0  0  0
 10  5  1  0  0  0  0
 22 18  1  0  0  0  0
 33 27  1  0  0  0  0
 40 34  1  0  0  0  0
 60 41  2  0  0  0  0
 71 64  1  0  0  0  0
103 72  2  0  0  0  0
118112  1  0  0  0  0
125119  1  0  0  0  0
145126  2  0  0  0  0
158151  1  0  0  0  0
 23  7  1  0  0  0  0
 52 46  1  0  0  0  0
 59 53  1  0  0  0  0
102 74  2  0  0  0  0
137131  1  0  0  0  0
144138  1  0  0  0  0
100 75  2  0  0  0  0
 80 76  2  0  0  0  0
 99 81  2  0  0  0  0
 97 82  2  0  0  0  0
 96 84  2  0  0  0  0
 93 86  1  0  0  0  0
  1165  1  0  0  0  0
  6166  1  0  0  0  0
  9167  1  0  0  0  0
 17168  1  0  0  0  0
 18169  1  0  0  0  0
 19170  1  0  0  0  0
 20171  1  0  0  0  0
 21172  1  0  0  0  0
 22173  1  0  0  0  0
 22174  1  0  0  0  0
 23175  1  0  0  0  0
 28176  1  0  0  0  0
 29177  1  0  0  0  0
 31178  1  0  0  0  0
 31179  1  0  0  0  0
 31180  1  0  0  0  0
 32181  1  0  0  0  0
 33182  1  0  0  0  0
 35183  1  0  0  0  0
 36184  1  0  0  0  0
 38185  1  0  0  0  0
 38186  1  0  0  0  0
 38187  1  0  0  0  0
 39188  1  0  0  0  0
 40189  1  0  0  0  0
 47190  1  0  0  0  0
 48191  1  0  0  0  0
 50192  1  0  0  0  0
 50193  1  0  0  0  0
 50194  1  0  0  0  0
 51195  1  0  0  0  0
 52196  1  0  0  0  0
 54197  1  0  0  0  0
 55198  1  0  0  0  0
 57199  1  0  0  0  0
 57200  1  0  0  0  0
 57201  1  0  0  0  0
 58202  1  0  0  0  0
 59203  1  0  0  0  0
 65204  1  0  0  0  0
 66205  1  0  0  0  0
 67206  1  0  0  0  0
 69207  1  0  0  0  0
 69208  1  0  0  0  0
 70209  1  0  0  0  0
 70210  1  0  0  0  0
 70211  1  0  0  0  0
 71212  1  0  0  0  0
 87213  1  0  0  0  0
 88214  1  0  0  0  0
 89215  1  0  0  0  0
 91216  1  0  0  0  0
 91217  1  0  0  0  0
 92218  1  0  0  0  0
 92219  1  0  0  0  0
 92220  1  0  0  0  0
 93221  1  0  0  0  0
105222  1  0  0  0  0
105223  1  0  0  0  0
106224  1  0  0  0  0
106225  1  0  0  0  0
106226  1  0  0  0  0
107227  1  0  0  0  0
107228  1  0  0  0  0
108229  1  0  0  0  0
108230  1  0  0  0  0
108231  1  0  0  0  0
113232  1  0  0  0  0
114233  1  0  0  0  0
116234  1  0  0  0  0
116235  1  0  0  0  0
116236  1  0  0  0  0
117237  1  0  0  0  0
118238  1  0  0  0  0
120239  1  0  0  0  0
121240  1  0  0  0  0
123241  1  0  0  0  0
123242  1  0  0  0  0
123243  1  0  0  0  0
124244  1  0  0  0  0
125245  1  0  0  0  0
132246  1  0  0  0  0
133247  1  0  0  0  0
135248  1  0  0  0  0
135249  1  0  0  0  0
135250  1  0  0  0  0
136251  1  0  0  0  0
137252  1  0  0  0  0
139253  1  0  0  0  0
140254  1  0  0  0  0
142255  1  0  0  0  0
142256  1  0  0  0  0
142257  1  0  0  0  0
143258  1  0  0  0  0
144259  1  0  0  0  0
147260  1  0  0  0  0
152261  1  0  0  0  0
154262  1  0  0  0  0
154263  1  0  0  0  0
154264  1  0  0  0  0
157265  1  0  0  0  0
M  END
