228

C          1.50840        0.78550       -9.68830
C          0.35330        0.58180      -10.41330
C         -0.97790        1.09500      -10.09040
O         -1.31900        1.73770       -9.11030
C         -1.85580        0.70380      -11.20900
C         -3.21680        0.96490      -11.33790
C         -3.77400        0.47020      -12.49300
C         -3.02980       -0.23240      -13.44840
C         -1.68570       -0.49900      -13.33060
C         -1.09950       -0.00340      -12.16370
C          0.27700       -0.11100      -11.67580
C          1.28760       -0.79450      -12.31140
C          2.57010       -1.04140      -11.78730
N          3.62160       -1.33420      -11.42360
C          1.17320       -1.38810      -13.58350
N          1.16670       -1.87750      -14.62330
C         -4.22210       -0.42550      -14.35210
C         -4.33330        0.47840      -15.60460
C         -3.58890        1.75030      -15.28310
C         -4.29460        2.41490      -14.37790
C         -5.52910        1.60400      -14.07090
C         -5.78250        0.96530      -15.44580
C         -5.05230        0.35690      -13.28620
C          1.69810        1.37410       -8.44160
C          2.96620        1.45550       -7.80510
N          4.17320        1.22170       -8.40530
C          4.43120        1.57340       -9.74440
C          5.28320        0.78600      -10.51500
C          5.54590        1.13270      -11.82490
C          4.96640        2.25690      -12.40160
C          5.23700        2.59580      -13.83500
C          4.12980        3.04390      -11.61890
C          3.86820        2.71770      -10.30310
C          5.24360        0.74510       -7.62330
C          6.51000        1.30910       -7.73820
C          7.55210        0.83100       -6.96810
C          7.36000       -0.20630       -6.06330
C          8.48140       -0.69770       -5.20150
C          6.09230       -0.76820       -5.96200
C          5.04500       -0.30770       -6.73380
C          2.82100        1.80790       -6.45320
S          3.92690        2.02960       -5.13470
C          2.59830        2.44380       -4.06410
C          1.38050        2.48860       -4.73000
N          0.18680        2.91260       -4.17260
C          0.14160        3.96980       -3.25850
C         -0.87240        4.01520       -2.30350
C         -0.90750        5.03250       -1.37010
C          0.06760        6.02160       -1.34650
C          0.06650        7.08960       -0.29590
C          1.06180        5.98310       -2.31680
C          1.10110        4.98140       -3.26460
C         -1.00300        2.36580       -4.68920
C         -1.10740        0.99030       -4.87430
C         -2.24030        0.45310       -5.45130
C         -3.29480        1.26560       -5.84780
C         -4.49170        0.68030       -6.53130
C         -3.19470        2.63380       -5.62820
C         -2.06490        3.18460       -5.05800
C          1.51290        2.09160       -6.08140
S          0.39120        1.91200       -7.38080
C          2.77690        2.60680       -2.65330
C          3.70920        3.32320       -1.93620
C          4.81200        4.10830       -2.50190
C          4.87470        5.47640       -2.25630
C          5.90920        6.22260       -2.78670
C          6.88490        5.61430       -3.55820
C          6.84800        4.24670       -3.79350
C          7.92320        3.56290       -4.58720
C          9.00510        3.00560       -3.66080
C          5.81280        3.50120       -3.24780
C          3.45120        3.26220       -0.55070
S          4.26360        3.95230        0.83380
C          3.13660        3.14130        1.87160
C          2.86200        2.98290        3.24340
C          3.42540        3.57600        4.39400
C          2.88420        3.24740        5.68500
N          3.47600        3.91220        6.66480
S          4.61710        4.86570        6.02270
N          4.40140        4.46720        4.46790
C          1.88960        2.24940        5.77650
C          1.33190        1.58590        6.88310
S          1.41260        1.61850        8.61260
C          0.38500        0.20480        8.66760
C         -0.14980       -0.55480        9.73400
C          0.03720       -0.22240       11.14810
C         -1.02040       -0.30390       12.04960
C         -0.82060        0.02250       13.37640
C          0.42420        0.43960       13.81560
C          1.48730        0.53830       12.92840
C          2.82900        1.04440       13.37350
C          2.97530        2.52860       13.03190
C          1.28100        0.20610       11.59830
C         -0.91070       -1.60210        9.26120
S         -1.02150       -1.63340        7.51560
C          0.00240       -0.24510        7.40510
C          0.53830        0.55260        6.38310
N          0.55690        0.56970        5.01420
C          1.36910        1.61440        4.61540
C          1.76460        2.08440        3.33770
N          1.34750        1.75240        2.05710
C          2.18720        2.39030        1.17870
C          2.35690        2.47090       -0.20840
S          1.59620        1.81180       -1.60780
C          0.01450        1.42760        1.59800
C         -0.79300        2.69690        1.33000
C          0.06840       -0.56950        4.27220
C         -1.45820       -0.58030        4.17750
C         -1.63830       -2.60780       10.00650
C         -2.97940       -2.86890        9.64230
N         -3.73240       -2.34400        8.66760
N         -4.90010       -2.90360        8.83210
C         -6.01340       -2.58690        7.98590
C         -6.77110       -1.37770        8.52650
N         -5.01310       -3.74110        9.82840
C         -3.79260       -3.76570       10.37770
C         -3.31450       -4.45290       11.52240
C         -1.98520       -4.21690       11.85490
C         -1.15100       -3.33200       11.08080
O          0.13940       -3.30100       11.51530
C          1.17770       -3.29520       10.55800
O         -1.26970       -4.83320       12.81870
C         -1.83140       -5.78960       13.68180
C         -4.26010       -5.28150       12.23490
C         -5.13180       -6.11890       11.62130
C         -5.07480       -6.51420       10.18640
O         -4.15310       -6.37090        9.41380
C         -6.33860       -7.23130        9.93610
C         -6.83850       -7.72670        8.74950
C         -8.06290       -8.38690        8.74310
C         -8.61650       -8.92180        7.46110
C         -8.77060       -8.54870        9.94470
C        -10.08650       -9.25980        9.95160
C         -8.25620       -8.05460       11.13930
C         -7.03830       -7.39390       11.14380
C         -6.26870       -6.79260       12.22590
C         -6.55410       -6.88860       13.56270
C         -5.74240       -6.37930       14.59640
N         -5.11560       -6.00740       15.48490
C         -7.67950       -7.55910       14.08500
N         -8.57480       -8.08920       14.57060
H          2.41710        0.40800      -10.13930
H         -3.75090        1.51010      -10.57510
H         -1.13000       -1.04420      -14.07510
H         -4.50170       -1.45670      -14.55950
H         -4.06800       -0.00990      -16.53850
H         -2.62640        1.99960      -15.69000
H         -4.03950        3.33060      -13.87720
H         -6.35380        2.14080      -13.60880
H         -6.51160        0.15640      -15.42070
H         -6.06790        1.69420      -16.20310
H         -5.87350       -0.16490      -12.79800
H          5.72480       -0.10010      -10.08760
H          6.19830        0.50770      -12.41540
H          4.83100        3.57150      -14.08980
H          6.30760        2.59760      -14.03250
H          4.78120        1.85080      -14.48700
H          3.68110        3.93160      -12.04100
H          3.22290        3.34500       -9.70570
H          6.67070        2.12370       -8.42860
H          8.53160        1.27550       -7.07030
H          9.44470       -0.39870       -5.60690
H          8.45560       -1.78190       -5.11490
H          8.39000       -0.28030       -4.19840
H          5.92560       -1.58410       -5.27380
H          4.06900       -0.76430       -6.65920
H         -1.62580        3.24160       -2.29470
H         -1.70510        5.05350       -0.64090
H          0.35930        8.04840       -0.71860
H          0.78020        6.84000        0.49080
H         -0.91670        7.18940        0.15760
H          1.81460        6.75790       -2.33830
H          1.87640        4.98630       -4.01650
H         -0.29000        0.35110       -4.57210
H         -2.30400       -0.61490       -5.60330
H         -4.73600       -0.29810       -6.12230
H         -5.35660        1.33210       -6.43370
H         -4.27590        0.55620       -7.59300
H         -4.00520        3.28240       -5.92770
H         -1.98950        4.25230       -4.91260
H          4.10770        5.94480       -1.65840
H          5.95480        7.28570       -2.60060
H          7.68610        6.20640       -3.97700
H          7.48400        2.74550       -5.16310
H          8.37570        4.27110       -5.28420
H          9.77730        2.50110       -4.23710
H          8.57260        2.29520       -2.96010
H          9.46620        3.80840       -3.08960
H          5.79650        2.43030       -3.39070
H         -1.99750       -0.60890       11.70520
H         -1.64300       -0.04450       14.07360
H          0.57070        0.69220       14.85600
H          3.62020        0.48210       12.87310
H          2.94010        0.90650       14.45060
H          2.20480        3.10910       13.53450
H          3.94890        2.89750       13.34620
H          2.87390        2.68210       11.95990
H          2.10710        0.27030       10.90410
H         -0.50360        0.82900        2.33650
H          0.11480        0.85120        0.67310
H         -0.87890        3.28700        2.24040
H         -0.31270        3.30240        0.56560
H         -1.78940        2.43250        0.98630
H          0.38640       -1.47310        4.80490
H          0.54200       -0.58330        3.28970
H         -1.78020       -1.37310        3.50790
H         -1.84460        0.36950        3.81400
H         -1.88910       -0.76240        5.15810
H         -6.66100       -3.46530        7.95690
H         -5.61930       -2.37630        6.98980
H         -7.14760       -1.58690        9.52480
H         -6.11180       -0.51450        8.57300
H         -7.60990       -1.14480        7.87680
H          1.98900       -3.88000       10.99320
H          1.53650       -2.28240       10.35990
H          0.86150       -3.75680        9.61940
H         -2.44240       -6.51660       13.13690
H         -0.98190       -6.29910       14.13720
H         -2.42920       -5.32750       14.47180
H         -4.34570       -5.12930       13.30080
H         -6.27560       -7.59510        7.83720
H         -9.59080       -8.48210        7.25010
H         -8.75040      -10.00130        7.52320
H         -7.94880       -8.70260        6.63230
H        -10.49520       -9.30410       10.95720
H        -10.80160       -8.74940        9.30710
H         -9.97370      -10.27660        9.57710
H         -8.81770       -8.19140       12.04970
