
  xtb     02202206333D
 energy: -353.328769640131 gnorm: 0.000698628136 xtb: 6.4.1 (unknown)
216242  0     0  0            999 V2000
    0.2199    8.5267    0.8258 C   0  0  0  0  0  0  0  0  0  0  0  0
   -0.9506    9.1289    1.2362 C   0  0  0  0  0  0  0  0  0  0  0  0
   -2.1899    8.4491    1.6124 C   0  0  0  0  0  0  0  0  0  0  0  0
   -2.3907    7.2495    1.7161 O   0  0  0  0  0  0  0  0  0  0  0  0
   -3.1959    9.5072    1.8202 C   0  0  0  0  0  0  0  0  0  0  0  0
   -4.5271    9.3361    2.1905 C   0  0  0  0  0  0  0  0  0  0  0  0
   -5.2266   10.5121    2.3185 C   0  0  0  0  0  0  0  0  0  0  0  0
   -4.6449   11.7650    2.0901 C   0  0  0  0  0  0  0  0  0  0  0  0
   -3.3320   11.9464    1.7220 C   0  0  0  0  0  0  0  0  0  0  0  0
   -2.6010   10.7626    1.5904 C   0  0  0  0  0  0  0  0  0  0  0  0
   -1.1929   10.5507    1.2480 C   0  0  0  0  0  0  0  0  0  0  0  0
   -0.2766   11.5504    1.0195 C   0  0  0  0  0  0  0  0  0  0  0  0
   -0.5850   12.9242    0.9869 C   0  0  0  0  0  0  0  0  0  0  0  0
   -0.7594   14.0586    0.9296 N   0  0  0  0  0  0  0  0  0  0  0  0
    1.1044   11.3679    0.8170 C   0  0  0  0  0  0  0  0  0  0  0  0
    2.2453   11.3214    0.6768 N   0  0  0  0  0  0  0  0  0  0  0  0
   -5.9194   12.5051    2.4150 C   0  0  0  0  0  0  0  0  0  0  0  0
   -5.9917   13.1743    3.8037 C   0  0  0  0  0  0  0  0  0  0  0  0
   -7.4716   13.3876    4.0266 C   0  0  0  0  0  0  0  0  0  0  0  0
   -8.0222   12.2002    4.2442 C   0  0  0  0  0  0  0  0  0  0  0  0
   -6.9237   11.1644    4.1715 C   0  0  0  0  0  0  0  0  0  0  0  0
   -5.7541   11.9802    4.7371 C   0  0  0  0  0  0  0  0  0  0  0  0
   -6.5678   11.1068    2.6708 C   0  0  0  0  0  0  0  0  0  0  0  0
    0.5820    7.1826    0.8108 C   0  0  0  0  0  0  0  0  0  0  0  0
    1.8284    6.7126    0.3170 C   0  0  0  0  0  0  0  0  0  0  0  0
    2.7266    7.4574   -0.3987 N   0  0  0  0  0  0  0  0  0  0  0  0
    2.3145    8.4317   -1.3279 C   0  0  0  0  0  0  0  0  0  0  0  0
    3.0550    9.5998   -1.4914 C   0  0  0  0  0  0  0  0  0  0  0  0
    2.6425   10.5561   -2.3972 C   0  0  0  0  0  0  0  0  0  0  0  0
    1.4885   10.3824   -3.1525 C   0  0  0  0  0  0  0  0  0  0  0  0
    1.0365   11.4508   -4.0996 C   0  0  0  0  0  0  0  0  0  0  0  0
    0.7684    9.2039   -2.9963 C   0  0  0  0  0  0  0  0  0  0  0  0
    1.1756    8.2322   -2.1043 C   0  0  0  0  0  0  0  0  0  0  0  0
    4.1026    7.1926   -0.2657 C   0  0  0  0  0  0  0  0  0  0  0  0
    4.9291    7.1729   -1.3851 C   0  0  0  0  0  0  0  0  0  0  0  0
    6.2870    6.9765   -1.2379 C   0  0  0  0  0  0  0  0  0  0  0  0
    6.8548    6.7946    0.0179 C   0  0  0  0  0  0  0  0  0  0  0  0
    8.3324    6.6092    0.1697 C   0  0  0  0  0  0  0  0  0  0  0  0
    6.0172    6.7880    1.1262 C   0  0  0  0  0  0  0  0  0  0  0  0
    4.6574    6.9846    0.9938 C   0  0  0  0  0  0  0  0  0  0  0  0
    2.0135    5.3571    0.6340 C   0  0  0  0  0  0  0  0  0  0  0  0
    3.2848    4.2074    0.3545 S   0  0  0  0  0  0  0  0  0  0  0  0
    2.3174    2.9383    1.1022 C   0  0  0  0  0  0  0  0  0  0  0  0
    1.0986    3.4068    1.5755 C   0  0  0  0  0  0  0  0  0  0  0  0
    0.1554    2.6646    2.2674 N   0  0  0  0  0  0  0  0  0  0  0  0
   -1.1940    3.0315    2.0892 C   0  0  0  0  0  0  0  0  0  0  0  0
   -2.0239    3.2662    3.1796 C   0  0  0  0  0  0  0  0  0  0  0  0
   -3.3170    3.7063    2.9789 C   0  0  0  0  0  0  0  0  0  0  0  0
   -3.8108    3.9251    1.6994 C   0  0  0  0  0  0  0  0  0  0  0  0
   -5.1839    4.4814    1.4858 C   0  0  0  0  0  0  0  0  0  0  0  0
   -2.9843    3.6562    0.6155 C   0  0  0  0  0  0  0  0  0  0  0  0
   -1.6917    3.2108    0.8018 C   0  0  0  0  0  0  0  0  0  0  0  0
    0.5103    1.7451    3.2554 C   0  0  0  0  0  0  0  0  0  0  0  0
   -0.3358    0.6768    3.5465 C   0  0  0  0  0  0  0  0  0  0  0  0
    0.0216   -0.2544    4.5016 C   0  0  0  0  0  0  0  0  0  0  0  0
    1.2329   -0.1679    5.1751 C   0  0  0  0  0  0  0  0  0  0  0  0
    1.6450   -1.2017    6.1782 C   0  0  0  0  0  0  0  0  0  0  0  0
    2.0656    0.9092    4.8913 C   0  0  0  0  0  0  0  0  0  0  0  0
    1.7084    1.8599    3.9587 C   0  0  0  0  0  0  0  0  0  0  0  0
    0.9333    4.7835    1.2936 C   0  0  0  0  0  0  0  0  0  0  0  0
   -0.3688    5.8877    1.5410 S   0  0  0  0  0  0  0  0  0  0  0  0
    2.7855    1.5919    1.0927 C   0  0  0  0  0  0  0  0  0  0  0  0
    4.0892    1.1359    1.1329 C   0  0  0  0  0  0  0  0  0  0  0  0
    5.2769    1.9624    1.3557 C   0  0  0  0  0  0  0  0  0  0  0  0
    5.3274    2.8943    2.3885 C   0  0  0  0  0  0  0  0  0  0  0  0
    6.4830    3.6157    2.6081 C   0  0  0  0  0  0  0  0  0  0  0  0
    7.5895    3.4281    1.7974 C   0  0  0  0  0  0  0  0  0  0  0  0
    7.5545    2.5110    0.7563 C   0  0  0  0  0  0  0  0  0  0  0  0
    8.7319    2.3152   -0.1565 C   0  0  0  0  0  0  0  0  0  0  0  0
    8.4354    2.8467   -1.5600 C   0  0  0  0  0  0  0  0  0  0  0  0
    6.3957    1.7760    0.5534 C   0  0  0  0  0  0  0  0  0  0  0  0
    4.1472   -0.2642    0.9847 C   0  0  0  0  0  0  0  0  0  0  0  0
    5.4720   -1.4026    1.0304 S   0  0  0  0  0  0  0  0  0  0  0  0
    4.3393   -2.6979    0.8321 C   0  0  0  0  0  0  0  0  0  0  0  0
    4.3237   -4.1041    0.7728 C   0  0  0  0  0  0  0  0  0  0  0  0
    5.3058   -5.0963    0.9987 C   0  0  0  0  0  0  0  0  0  0  0  0
    4.9071   -6.4809    1.0645 C   0  0  0  0  0  0  0  0  0  0  0  0
    5.9162   -7.2802    1.3698 N   0  0  0  0  0  0  0  0  0  0  0  0
    7.2520   -6.3820    1.5479 S   0  0  0  0  0  0  0  0  0  0  0  0
    6.5947   -4.9330    1.2482 N   0  0  0  0  0  0  0  0  0  0  0  0
    3.5758   -6.8327    0.7435 C   0  0  0  0  0  0  0  0  0  0  0  0
    2.9088   -8.0617    0.5843 C   0  0  0  0  0  0  0  0  0  0  0  0
    3.1942   -9.7561    0.8040 S   0  0  0  0  0  0  0  0  0  0  0  0
    1.5897  -10.0900    0.1909 C   0  0  0  0  0  0  0  0  0  0  0  0
    0.8629  -11.2799    0.0011 C   0  0  0  0  0  0  0  0  0  0  0  0
    1.3640  -12.6004    0.3792 C   0  0  0  0  0  0  0  0  0  0  0  0
    2.6622  -12.9798    0.0504 C   0  0  0  0  0  0  0  0  0  0  0  0
    3.1370  -14.2176    0.4413 C   0  0  0  0  0  0  0  0  0  0  0  0
    2.3329  -15.0773    1.1687 C   0  0  0  0  0  0  0  0  0  0  0  0
    1.0388  -14.7091    1.5181 C   0  0  0  0  0  0  0  0  0  0  0  0
    0.1826  -15.6126    2.3585 C   0  0  0  0  0  0  0  0  0  0  0  0
    0.3935  -15.3138    3.8440 C   0  0  0  0  0  0  0  0  0  0  0  0
    0.5666  -13.4682    1.1200 C   0  0  0  0  0  0  0  0  0  0  0  0
   -0.3891  -11.0097   -0.5333 C   0  0  0  0  0  0  0  0  0  0  0  0
   -0.6881   -9.2904   -0.7483 S   0  0  0  0  0  0  0  0  0  0  0  0
    0.8893   -8.9309   -0.1590 C   0  0  0  0  0  0  0  0  0  0  0  0
    1.6374   -7.7751    0.0723 C   0  0  0  0  0  0  0  0  0  0  0  0
    1.4732   -6.4197   -0.0694 N   0  0  0  0  0  0  0  0  0  0  0  0
    2.6406   -5.8303    0.3754 C   0  0  0  0  0  0  0  0  0  0  0  0
    2.9703   -4.4721    0.5639 C   0  0  0  0  0  0  0  0  0  0  0  0
    2.1765   -3.3402    0.5597 N   0  0  0  0  0  0  0  0  0  0  0  0
    3.0128   -2.2655    0.7266 C   0  0  0  0  0  0  0  0  0  0  0  0
    2.9024   -0.8735    0.8302 C   0  0  0  0  0  0  0  0  0  0  0  0
    1.6254    0.2874    0.8481 S   0  0  0  0  0  0  0  0  0  0  0  0
    0.7953   -3.2592    0.9875 C   0  0  0  0  0  0  0  0  0  0  0  0
    0.7036   -2.9933    2.4892 C   0  0  0  0  0  0  0  0  0  0  0  0
    0.5885   -5.8965   -1.0943 C   0  0  0  0  0  0  0  0  0  0  0  0
    0.9783   -6.4094   -2.4792 C   0  0  0  0  0  0  0  0  0  0  0  0
   -1.3931  -11.8678   -1.0514 C   0  0  0  0  0  0  0  0  0  0  0  0
   -1.4586  -13.2315   -1.3133 C   0  0  0  0  0  0  0  0  0  0  0  0
   -2.6795  -13.4488   -1.9458 C   0  0  0  0  0  0  0  0  0  0  0  0
   -3.3079  -12.2124   -2.0594 C   0  0  0  0  0  0  0  0  0  0  0  0
   -2.5158  -11.2676   -1.4921 O   0  0  0  0  0  0  0  0  0  0  0  0
   -4.5612  -11.8831   -2.6115 C   0  0  0  0  0  0  0  0  0  0  0  0
   -5.1179  -10.6490   -2.7856 C   0  0  0  0  0  0  0  0  0  0  0  0
   -6.5876  -10.5268   -2.9612 C   0  0  0  0  0  0  0  0  0  0  0  0
   -7.3627  -11.4154   -3.2388 O   0  0  0  0  0  0  0  0  0  0  0  0
   -6.9006   -9.1137   -2.6650 C   0  0  0  0  0  0  0  0  0  0  0  0
   -8.1604   -8.5229   -2.6027 C   0  0  0  0  0  0  0  0  0  0  0  0
   -8.1380   -7.1856   -2.2863 C   0  0  0  0  0  0  0  0  0  0  0  0
   -6.9510   -6.4858   -2.0319 C   0  0  0  0  0  0  0  0  0  0  0  0
   -5.7008   -7.0536   -2.0936 C   0  0  0  0  0  0  0  0  0  0  0  0
   -5.7012   -8.4086   -2.4316 C   0  0  0  0  0  0  0  0  0  0  0  0
   -4.5782   -9.3141   -2.6669 C   0  0  0  0  0  0  0  0  0  0  0  0
   -3.3010   -8.9182   -2.9727 C   0  0  0  0  0  0  0  0  0  0  0  0
   -2.3473   -9.7683   -3.5711 C   0  0  0  0  0  0  0  0  0  0  0  0
   -1.5677  -10.3940   -4.1356 N   0  0  0  0  0  0  0  0  0  0  0  0
   -2.8112   -7.6097   -2.8161 C   0  0  0  0  0  0  0  0  0  0  0  0
   -2.3314   -6.5750   -2.6698 N   0  0  0  0  0  0  0  0  0  0  0  0
   -7.6758   -5.1871   -1.7816 C   0  0  0  0  0  0  0  0  0  0  0  0
   -7.6455   -4.1217   -2.9052 C   0  0  0  0  0  0  0  0  0  0  0  0
   -7.4565   -4.8718   -4.2006 C   0  0  0  0  0  0  0  0  0  0  0  0
   -8.5781   -5.5334   -4.4520 C   0  0  0  0  0  0  0  0  0  0  0  0
   -9.5456   -5.2426   -3.3315 C   0  0  0  0  0  0  0  0  0  0  0  0
   -9.1449   -3.7970   -2.9966 C   0  0  0  0  0  0  0  0  0  0  0  0
   -8.9977   -5.9643   -2.0748 C   0  0  0  0  0  0  0  0  0  0  0  0
    0.9899    9.1953    0.4632 H   0  0  0  0  0  0  0  0  0  0  0  0
   -4.9334    8.3508    2.3586 H   0  0  0  0  0  0  0  0  0  0  0  0
   -2.9017   12.9183    1.5480 H   0  0  0  0  0  0  0  0  0  0  0  0
   -6.3235   13.1291    1.6201 H   0  0  0  0  0  0  0  0  0  0  0  0
   -5.3482   14.0413    3.9251 H   0  0  0  0  0  0  0  0  0  0  0  0
   -7.9586   14.3421    3.9500 H   0  0  0  0  0  0  0  0  0  0  0  0
   -9.0609   11.9646    4.3855 H   0  0  0  0  0  0  0  0  0  0  0  0
   -7.1293   10.2001    4.6287 H   0  0  0  0  0  0  0  0  0  0  0  0
   -4.7820   11.5068    4.6128 H   0  0  0  0  0  0  0  0  0  0  0  0
   -5.9016   12.2401    5.7841 H   0  0  0  0  0  0  0  0  0  0  0  0
   -7.4048   10.7993    2.0462 H   0  0  0  0  0  0  0  0  0  0  0  0
    3.9398    9.7600   -0.8961 H   0  0  0  0  0  0  0  0  0  0  0  0
    3.2171   11.4637   -2.5042 H   0  0  0  0  0  0  0  0  0  0  0  0
    0.2038   11.1076   -4.7083 H   0  0  0  0  0  0  0  0  0  0  0  0
    0.7177   12.3323   -3.5433 H   0  0  0  0  0  0  0  0  0  0  0  0
    1.8516   11.7511   -4.7558 H   0  0  0  0  0  0  0  0  0  0  0  0
   -0.1219    9.0388   -3.5861 H   0  0  0  0  0  0  0  0  0  0  0  0
    0.6084    7.3190   -1.9987 H   0  0  0  0  0  0  0  0  0  0  0  0
    4.5015    7.3215   -2.3656 H   0  0  0  0  0  0  0  0  0  0  0  0
    6.9188    6.9719   -2.1145 H   0  0  0  0  0  0  0  0  0  0  0  0
    8.5837    5.5514    0.0983 H   0  0  0  0  0  0  0  0  0  0  0  0
    8.8716    7.1382   -0.6129 H   0  0  0  0  0  0  0  0  0  0  0  0
    8.6696    6.9712    1.1381 H   0  0  0  0  0  0  0  0  0  0  0  0
    6.4387    6.6489    2.1103 H   0  0  0  0  0  0  0  0  0  0  0  0
    4.0212    7.0057    1.8664 H   0  0  0  0  0  0  0  0  0  0  0  0
   -1.6427    3.1234    4.1802 H   0  0  0  0  0  0  0  0  0  0  0  0
   -3.9456    3.9061    3.8347 H   0  0  0  0  0  0  0  0  0  0  0  0
   -5.6599    4.0279    0.6187 H   0  0  0  0  0  0  0  0  0  0  0  0
   -5.8123    4.3245    2.3592 H   0  0  0  0  0  0  0  0  0  0  0  0
   -5.1081    5.5538    1.3053 H   0  0  0  0  0  0  0  0  0  0  0  0
   -3.3552    3.8086   -0.3878 H   0  0  0  0  0  0  0  0  0  0  0  0
   -1.0511    3.0130   -0.0459 H   0  0  0  0  0  0  0  0  0  0  0  0
   -1.2695    0.5799    3.0133 H   0  0  0  0  0  0  0  0  0  0  0  0
   -0.6505   -1.0724    4.7181 H   0  0  0  0  0  0  0  0  0  0  0  0
    1.8659   -0.7370    7.1381 H   0  0  0  0  0  0  0  0  0  0  0  0
    0.8600   -1.9400    6.3208 H   0  0  0  0  0  0  0  0  0  0  0  0
    2.5465   -1.7149    5.8436 H   0  0  0  0  0  0  0  0  0  0  0  0
    3.0051    1.0078    5.4163 H   0  0  0  0  0  0  0  0  0  0  0  0
    2.3536    2.7056    3.7749 H   0  0  0  0  0  0  0  0  0  0  0  0
    4.4707    3.0293    3.0310 H   0  0  0  0  0  0  0  0  0  0  0  0
    6.5266    4.3213    3.4248 H   0  0  0  0  0  0  0  0  0  0  0  0
    8.4929    3.9893    1.9882 H   0  0  0  0  0  0  0  0  0  0  0  0
    8.9674    1.2503   -0.2217 H   0  0  0  0  0  0  0  0  0  0  0  0
    9.6049    2.8290    0.2512 H   0  0  0  0  0  0  0  0  0  0  0  0
    9.3087    2.7364   -2.1990 H   0  0  0  0  0  0  0  0  0  0  0  0
    7.6087    2.3014   -2.0078 H   0  0  0  0  0  0  0  0  0  0  0  0
    8.1619    3.8989   -1.5220 H   0  0  0  0  0  0  0  0  0  0  0  0
    6.3582    1.0486   -0.2442 H   0  0  0  0  0  0  0  0  0  0  0  0
    3.2870  -12.3123   -0.5227 H   0  0  0  0  0  0  0  0  0  0  0  0
    4.1415  -14.5131    0.1779 H   0  0  0  0  0  0  0  0  0  0  0  0
    2.7115  -16.0428    1.4717 H   0  0  0  0  0  0  0  0  0  0  0  0
   -0.8699  -15.4647    2.1074 H   0  0  0  0  0  0  0  0  0  0  0  0
    0.4388  -16.6552    2.1608 H   0  0  0  0  0  0  0  0  0  0  0  0
   -0.2283  -15.9638    4.4552 H   0  0  0  0  0  0  0  0  0  0  0  0
    1.4346  -15.4705    4.1172 H   0  0  0  0  0  0  0  0  0  0  0  0
    0.1356  -14.2799    4.0618 H   0  0  0  0  0  0  0  0  0  0  0  0
   -0.4309  -13.1597    1.3997 H   0  0  0  0  0  0  0  0  0  0  0  0
    0.2903   -4.1977    0.7697 H   0  0  0  0  0  0  0  0  0  0  0  0
    0.3125   -2.4470    0.4357 H   0  0  0  0  0  0  0  0  0  0  0  0
    1.1526   -2.0375    2.7454 H   0  0  0  0  0  0  0  0  0  0  0  0
    1.2140   -3.7800    3.0411 H   0  0  0  0  0  0  0  0  0  0  0  0
   -0.3398   -2.9742    2.7903 H   0  0  0  0  0  0  0  0  0  0  0  0
   -0.4373   -6.2032   -0.8701 H   0  0  0  0  0  0  0  0  0  0  0  0
    0.6526   -4.8102   -1.1030 H   0  0  0  0  0  0  0  0  0  0  0  0
    0.2879   -6.0032   -3.2122 H   0  0  0  0  0  0  0  0  0  0  0  0
    0.9221   -7.4934   -2.5260 H   0  0  0  0  0  0  0  0  0  0  0  0
    1.9907   -6.0989   -2.7288 H   0  0  0  0  0  0  0  0  0  0  0  0
   -0.7034  -13.9549   -1.0865 H   0  0  0  0  0  0  0  0  0  0  0  0
   -3.0658  -14.3821   -2.3022 H   0  0  0  0  0  0  0  0  0  0  0  0
   -5.2001  -12.7255   -2.8486 H   0  0  0  0  0  0  0  0  0  0  0  0
   -9.0522   -9.0972   -2.7989 H   0  0  0  0  0  0  0  0  0  0  0  0
   -4.7930   -6.5084   -1.8931 H   0  0  0  0  0  0  0  0  0  0  0  0
   -7.5498   -4.7518   -0.7921 H   0  0  0  0  0  0  0  0  0  0  0  0
   -6.9633   -3.2951   -2.7254 H   0  0  0  0  0  0  0  0  0  0  0  0
   -6.5352   -4.8900   -4.7528 H   0  0  0  0  0  0  0  0  0  0  0  0
   -8.7815   -6.2150   -5.2571 H   0  0  0  0  0  0  0  0  0  0  0  0
  -10.5945   -5.4356   -3.5410 H   0  0  0  0  0  0  0  0  0  0  0  0
   -9.3765   -3.0991   -3.7998 H   0  0  0  0  0  0  0  0  0  0  0  0
   -9.5685   -3.4347   -2.0608 H   0  0  0  0  0  0  0  0  0  0  0  0
   -9.7383   -6.0308   -1.2800 H   0  0  0  0  0  0  0  0  0  0  0  0
  1  2  2  0  0  0  0
  2  3  1  0  0  0  0
  3  4  2  0  0  0  0
  3  5  1  0  0  0  0
  5  6  2  0  0  0  0
  6  7  1  0  0  0  0
  7  8  2  0  0  0  0
  8  9  1  0  0  0  0
  9 10  2  0  0  0  0
 10 11  1  0  0  0  0
 11 12  2  0  0  0  0
 12 13  1  0  0  0  0
 13 14  3  0  0  0  0
 12 15  1  0  0  0  0
 15 16  3  0  0  0  0
  8 17  1  0  0  0  0
 17 18  1  0  0  0  0
 18 19  1  0  0  0  0
 19 20  2  0  0  0  0
 20 21  1  0  0  0  0
 21 22  1  0  0  0  0
 21 23  1  0  0  0  0
  1 24  1  0  0  0  0
 24 25  2  0  0  0  0
 25 26  1  0  0  0  0
 26 27  1  0  0  0  0
 27 28  2  0  0  0  0
 28 29  1  0  0  0  0
 29 30  2  0  0  0  0
 30 31  1  0  0  0  0
 30 32  1  0  0  0  0
 32 33  2  0  0  0  0
 26 34  1  0  0  0  0
 34 35  2  0  0  0  0
 35 36  1  0  0  0  0
 36 37  2  0  0  0  0
 37 38  1  0  0  0  0
 37 39  1  0  0  0  0
 39 40  2  0  0  0  0
 25 41  1  0  0  0  0
 41 42  1  0  0  0  0
 42 43  1  0  0  0  0
 43 44  2  0  0  0  0
 44 45  1  0  0  0  0
 45 46  1  0  0  0  0
 46 47  2  0  0  0  0
 47 48  1  0  0  0  0
 48 49  2  0  0  0  0
 49 50  1  0  0  0  0
 49 51  1  0  0  0  0
 51 52  2  0  0  0  0
 45 53  1  0  0  0  0
 53 54  2  0  0  0  0
 54 55  1  0  0  0  0
 55 56  2  0  0  0  0
 56 57  1  0  0  0  0
 56 58  1  0  0  0  0
 58 59  2  0  0  0  0
 44 60  1  0  0  0  0
 60 61  1  0  0  0  0
 43 62  1  0  0  0  0
 62 63  2  0  0  0  0
 63 64  1  0  0  0  0
 64 65  2  0  0  0  0
 65 66  1  0  0  0  0
 66 67  2  0  0  0  0
 67 68  1  0  0  0  0
 68 69  1  0  0  0  0
 69 70  1  0  0  0  0
 68 71  2  0  0  0  0
 63 72  1  0  0  0  0
 72 73  1  0  0  0  0
 73 74  1  0  0  0  0
 74 75  1  0  0  0  0
 75 76  1  0  0  0  0
 76 77  1  0  0  0  0
 77 78  2  0  0  0  0
 78 79  1  0  0  0  0
 79 80  1  0  0  0  0
 77 81  1  0  0  0  0
 81 82  1  0  0  0  0
 82 83  1  0  0  0  0
 83 84  1  0  0  0  0
 84 85  1  0  0  0  0
 85 86  1  0  0  0  0
 86 87  2  0  0  0  0
 87 88  1  0  0  0  0
 88 89  2  0  0  0  0
 89 90  1  0  0  0  0
 90 91  1  0  0  0  0
 91 92  1  0  0  0  0
 90 93  2  0  0  0  0
 85 94  2  0  0  0  0
 94 95  1  0  0  0  0
 95 96  1  0  0  0  0
 96 97  1  0  0  0  0
 97 98  1  0  0  0  0
 98 99  1  0  0  0  0
 99100  1  0  0  0  0
100101  1  0  0  0  0
101102  1  0  0  0  0
102103  1  0  0  0  0
103104  1  0  0  0  0
101105  1  0  0  0  0
105106  1  0  0  0  0
 98107  1  0  0  0  0
107108  1  0  0  0  0
 94109  1  0  0  0  0
109110  2  0  0  0  0
110111  1  0  0  0  0
111112  2  0  0  0  0
112113  1  0  0  0  0
112114  1  0  0  0  0
114115  2  0  0  0  0
115116  1  0  0  0  0
116117  2  0  0  0  0
116118  1  0  0  0  0
118119  2  0  0  0  0
119120  1  0  0  0  0
120121  2  0  0  0  0
121122  1  0  0  0  0
122123  2  0  0  0  0
123124  1  0  0  0  0
124125  2  0  0  0  0
125126  1  0  0  0  0
126127  3  0  0  0  0
125128  1  0  0  0  0
128129  3  0  0  0  0
121130  1  0  0  0  0
130131  1  0  0  0  0
131132  1  0  0  0  0
132133  2  0  0  0  0
133134  1  0  0  0  0
134135  1  0  0  0  0
134136  1  0  0  0  0
 11  2  1  0  0  0  0
 23 17  1  0  0  0  0
 61 24  1  0  0  0  0
104 62  1  0  0  0  0
113109  1  0  0  0  0
124115  1  0  0  0  0
136130  1  0  0  0  0
 10  5  1  0  0  0  0
 22 18  1  0  0  0  0
 33 27  1  0  0  0  0
 40 34  1  0  0  0  0
 60 41  2  0  0  0  0
 71 64  1  0  0  0  0
103 72  2  0  0  0  0
123118  1  0  0  0  0
135131  1  0  0  0  0
 23  7  1  0  0  0  0
 52 46  1  0  0  0  0
 59 53  1  0  0  0  0
102 74  2  0  0  0  0
136120  1  0  0  0  0
100 75  2  0  0  0  0
 80 76  2  0  0  0  0
 99 81  2  0  0  0  0
 97 82  2  0  0  0  0
 96 84  2  0  0  0  0
 93 86  1  0  0  0  0
  1137  1  0  0  0  0
  6138  1  0  0  0  0
  9139  1  0  0  0  0
 17140  1  0  0  0  0
 18141  1  0  0  0  0
 19142  1  0  0  0  0
 20143  1  0  0  0  0
 21144  1  0  0  0  0
 22145  1  0  0  0  0
 22146  1  0  0  0  0
 23147  1  0  0  0  0
 28148  1  0  0  0  0
 29149  1  0  0  0  0
 31150  1  0  0  0  0
 31151  1  0  0  0  0
 31152  1  0  0  0  0
 32153  1  0  0  0  0
 33154  1  0  0  0  0
 35155  1  0  0  0  0
 36156  1  0  0  0  0
 38157  1  0  0  0  0
 38158  1  0  0  0  0
 38159  1  0  0  0  0
 39160  1  0  0  0  0
 40161  1  0  0  0  0
 47162  1  0  0  0  0
 48163  1  0  0  0  0
 50164  1  0  0  0  0
 50165  1  0  0  0  0
 50166  1  0  0  0  0
 51167  1  0  0  0  0
 52168  1  0  0  0  0
 54169  1  0  0  0  0
 55170  1  0  0  0  0
 57171  1  0  0  0  0
 57172  1  0  0  0  0
 57173  1  0  0  0  0
 58174  1  0  0  0  0
 59175  1  0  0  0  0
 65176  1  0  0  0  0
 66177  1  0  0  0  0
 67178  1  0  0  0  0
 69179  1  0  0  0  0
 69180  1  0  0  0  0
 70181  1  0  0  0  0
 70182  1  0  0  0  0
 70183  1  0  0  0  0
 71184  1  0  0  0  0
 87185  1  0  0  0  0
 88186  1  0  0  0  0
 89187  1  0  0  0  0
 91188  1  0  0  0  0
 91189  1  0  0  0  0
 92190  1  0  0  0  0
 92191  1  0  0  0  0
 92192  1  0  0  0  0
 93193  1  0  0  0  0
105194  1  0  0  0  0
105195  1  0  0  0  0
106196  1  0  0  0  0
106197  1  0  0  0  0
106198  1  0  0  0  0
107199  1  0  0  0  0
107200  1  0  0  0  0
108201  1  0  0  0  0
108202  1  0  0  0  0
108203  1  0  0  0  0
110204  1  0  0  0  0
111205  1  0  0  0  0
114206  1  0  0  0  0
119207  1  0  0  0  0
122208  1  0  0  0  0
130209  1  0  0  0  0
131210  1  0  0  0  0
132211  1  0  0  0  0
133212  1  0  0  0  0
134213  1  0  0  0  0
135214  1  0  0  0  0
135215  1  0  0  0  0
136216  1  0  0  0  0
M  END
