136

C         -6.99120       -2.67530        4.76520
C         -8.03790       -1.94940        4.29150
C         -8.07790       -1.18370        3.01430
O         -7.17660       -0.97630        2.23100
C         -9.48560       -0.78690        2.83100
C        -10.00580       -0.06230        1.76050
C        -11.35340        0.18470        1.85450
C        -12.13200       -0.26870        2.92900
C        -11.63420       -0.99480        3.98370
C        -10.25970       -1.24710        3.91430
C         -9.38560       -1.95370        4.84380
C         -9.76070       -2.46000        6.06020
C         -8.89930       -3.07030        6.99730
N         -8.27400       -3.56190        7.82600
C        -11.07560       -2.42280        6.57100
N        -12.11900       -2.43410        7.04990
C        -13.39230        0.35060        2.37930
C        -13.88600        1.66910        3.02520
C        -12.66700        2.35170        3.59470
C        -11.93130        2.78110        2.57820
C        -12.63910        2.39570        1.30270
C        -14.10200        2.51340        1.75900
C        -12.52510        0.85550        1.18320
C         -5.61600       -2.62690        4.34920
C         -5.00570       -1.45760        3.87950
C         -3.68480       -1.46310        3.50190
C         -2.90990       -2.62480        3.58850
C         -3.50860       -3.78950        4.08570
C         -4.82720       -3.78190        4.47160
C         -1.53630       -2.60350        3.14340
C         -0.44360       -3.32300        3.58250
C         -0.40690       -4.20260        4.75290
C         -1.01170       -3.82400        5.94940
C         -0.92670       -4.64880        7.05400
C         -0.23870       -5.84810        6.98050
C          0.38060       -6.23560        5.79920
C          1.09990       -7.54990        5.70040
C          0.14880       -8.64470        5.21280
C          0.28900       -5.40520        4.69210
C          0.70560       -3.02880        2.81470
S          2.36990       -3.55220        2.92700
C          2.76760       -2.49780        1.61240
C          3.90130       -2.04740        0.91500
C          5.28180       -2.25010        1.13630
C          6.22880       -1.44420        0.41490
N          7.47710       -1.67620        0.78880
S          7.46610       -2.81520        1.93960
N          5.86620       -3.05360        2.01070
C          5.76050       -0.57790       -0.59730
C          6.43120        0.25580       -1.51080
S          8.03720        0.80040       -1.85930
C          7.40510        1.73980       -3.19160
C          8.01810        2.57450       -4.14910
C          9.46940        2.76770       -4.20770
C         10.16260        2.61510       -5.40620
C         11.53420        2.77560       -5.43080
C         12.22310        3.08510       -4.27020
C         11.54910        3.22580       -3.06410
C         12.28110        3.59960       -1.80780
C         12.26810        5.11750       -1.61520
C         10.17180        3.06170       -3.04460
C          7.09090        3.09470       -5.03190
S          5.45890        2.52660       -4.69600
C          6.02420        1.61260       -3.34720
C          5.46580        0.77260       -2.37690
N          4.21930        0.31620       -2.02690
C          4.37810       -0.49470       -0.91390
C          3.43830       -1.11690       -0.05500
N          2.07130       -0.97330        0.08720
C          1.66940       -1.80240        1.10040
C          0.49190       -2.09290        1.80290
S         -1.14650       -1.55110        1.79280
C          1.19700        0.07470       -0.38930
C          0.11090       -0.46030       -1.32310
C          3.19860        0.23460       -3.04920
C          3.60760       -0.73090       -4.16190
C          7.27240        4.04590       -6.09890
C          6.38700        4.06770       -7.18470
C          6.54790        4.96840       -8.20790
C          7.59990        5.89910       -8.19690
C          8.46480        5.89700       -7.09170
C          8.30210        4.99680       -6.06710
C          7.71600        6.79980       -9.30600
C          8.66650        7.74140       -9.55240
C          8.57400        8.52810      -10.72570
N          8.49230        9.15560      -11.68170
C          9.79480        8.05620       -8.76600
N         10.73580        8.36520       -8.18580
H         -7.19770       -3.40720        5.53760
H         -9.36920        0.26320        0.95260
H        -12.24880       -1.34350        4.79660
H        -14.20810       -0.33660        2.16430
H        -14.72940        1.55240        3.70020
H        -12.44410        2.40050        4.64450
H        -10.97030        3.26050        2.60860
H        -12.34810        2.94060        0.40840
H        -14.39240        3.53910        1.98140
H        -14.81170        2.07350        1.05970
H        -12.77330        0.49700        0.18600
H         -5.56340       -0.53740        3.84100
H         -3.22860       -0.55140        3.14360
H         -2.93050       -4.69810        4.15370
H         -5.27840       -4.68970        4.84540
H         -1.53380       -2.88070        6.01150
H         -1.39470       -4.35170        7.98080
H         -0.17430       -6.48540        7.85060
H          1.93520       -7.46070        5.00330
H          1.49780       -7.82790        6.67810
H         -0.25060       -8.39080        4.23330
H          0.67010       -9.59620        5.13890
H         -0.68430       -8.75780        5.90320
H          0.75900       -5.70130        3.76540
H          9.62400        2.36500       -6.30840
H         12.07060        2.65690       -6.36050
H         13.29550        3.21240       -4.29980
H         13.31420        3.25220       -1.86390
H         11.80510        3.12280       -0.94870
H         11.24560        5.48210       -1.54370
H         12.74860        5.61070       -2.45730
H         12.79740        5.38960       -0.70510
H          9.63440        3.17730       -2.11430
H          1.79910        0.84900       -0.86630
H          0.71030        0.52520        0.48360
H         -0.57620       -1.09600       -0.77190
H         -0.45190        0.36810       -1.74390
H          0.53100       -1.04990       -2.13520
H          2.27010       -0.11350       -2.61280
H          3.05200        1.23750       -3.46270
H          4.51700       -0.39550       -4.65310
H          3.78030       -1.72430       -3.75270
H          2.81590       -0.78990       -4.90380
H          5.57490        3.35520       -7.21730
H          5.85910        4.95840       -9.04060
H          9.26430        6.61760       -7.03250
H          8.96690        5.03250       -5.21890
H          6.93680        6.71170      -10.05580
