153

C         -7.63390       -6.45860        1.84550
C         -8.38000       -6.96570        0.83210
C         -7.86580       -7.47590       -0.46930
O         -6.76480       -7.33040       -0.95290
C         -8.96250       -8.28560       -1.03460
C         -8.91990       -9.03480       -2.20950
C        -10.08450       -9.70850       -2.48650
C        -11.20900       -9.65400       -1.65060
C        -11.26530       -8.92170       -0.48960
C        -10.09220       -8.21810       -0.19470
C         -9.78090       -7.34930        0.93270
C        -10.67040       -6.89620        1.86940
C        -12.03430       -7.25450        1.91300
N        -13.15020       -7.50780        2.00480
C        -10.36240       -5.97290        2.89220
N        -10.19820       -5.21190        3.73620
C        -12.01010      -10.57700       -2.53440
C        -13.07930       -9.91730       -3.43050
C        -13.34690      -10.95440       -4.49730
C        -12.28480      -10.99990       -5.29130
C        -11.28090       -9.99470       -4.77430
C        -12.23570       -8.92110       -4.23640
C        -10.75920      -10.63280       -3.46910
C         -6.26680       -6.01090        1.80160
C         -5.71820       -5.34280        0.70160
C         -4.40970       -4.91700        0.72510
C         -3.59080       -5.16710        1.82970
C         -4.15010       -5.79710        2.94910
C         -5.46540       -6.19030        2.93930
C         -2.21130       -4.73540        1.83970
C         -1.12620       -5.32290        2.45800
C         -1.13260       -6.64310        3.09120
C         -0.45090       -6.85490        4.28570
C         -0.45490       -8.10880        4.86800
C         -1.13170       -9.15570        4.26830
C         -1.81010       -8.96410        3.07010
C         -2.50680      -10.10700        2.38930
C         -1.54320      -10.83910        1.45350
C         -1.79620       -7.70770        2.48690
C          0.03190       -4.52510        2.32640
S          1.67760       -4.71630        2.88190
C          2.08120       -3.20160        2.14730
C          3.19570       -2.35520        1.99050
C          4.56820       -2.49090        2.29910
C          5.49000       -1.46730        1.87440
N          6.74490       -1.76750        2.16850
S          6.77040       -3.20130        2.92040
N          5.18000       -3.49970        2.89860
C          4.98480       -0.28280        1.29190
C          5.57780        0.94210        0.93090
S          7.14890        1.66350        0.84130
C          6.41030        3.15930        0.31880
C          6.93860        4.43050        0.00930
C          8.35940        4.74380        0.18040
C          8.75790        5.88150        0.87930
C         10.10160        6.12710        1.08200
C         11.05500        5.24430        0.60240
C         10.67470        4.10220       -0.08960
C         11.69140        3.10260       -0.55890
C         11.79960        1.95280        0.44490
C          9.32350        3.86210       -0.29340
C          5.94060        5.31670       -0.34850
S          4.34060        4.58820       -0.26670
C          5.02050        3.08170        0.22690
C          4.54330        1.81250        0.57500
N          3.33030        1.17510        0.67630
C          3.59110       -0.11920        1.08970
C          2.72730       -1.21730        1.28680
N          1.39380       -1.38910        0.96070
C          1.00350       -2.59120        1.49910
C         -0.16800       -3.35280        1.59740
S         -1.80260       -3.21760        1.05820
C          0.72640       -0.85480       -0.20950
C          0.70650       -1.87230       -1.35000
C          2.13170        1.94020        0.95650
C          2.27540        2.73860        2.25210
C          6.04390        6.67530       -0.81800
C          4.97380        7.56350       -0.65080
C          5.04800        8.86100       -1.09570
C          6.19910        9.33550       -1.73940
C          7.26200        8.43510       -1.92530
C          7.18790        7.13760       -1.48390
C          6.35100       10.67480       -2.22320
C          5.48660       11.71430       -2.22410
S          3.83760       11.78920       -1.62990
C          3.69260       13.46350       -2.11630
C          2.55370       14.18760       -1.88200
C          2.38850       15.54930       -2.19400
N          2.18550       16.65960       -2.40490
C          1.44720       13.57060       -1.26470
N          0.54760       13.06180       -0.76710
N          4.83150       13.91190       -2.70560
C          4.95570       15.22640       -3.25130
C          4.38990       15.50560       -4.48590
C          4.51790       16.77700       -5.01350
C          5.21110       17.75150       -4.31610
C          5.78710       17.45770       -3.09230
C          5.66460       16.19000       -2.55300
C          5.88150       13.00880       -2.79470
O          6.95350       13.27520       -3.28300
H         -8.08570       -6.42130        2.83070
H         -8.02950       -9.05830       -2.81820
H        -12.13170       -8.89800        0.15000
H        -12.35400      -11.49850       -2.06860
H        -13.94240       -9.52820       -2.89760
H        -14.22870      -11.56680       -4.53070
H        -12.10190      -11.65800       -6.12040
H        -10.50650       -9.67590       -5.46670
H        -12.80860       -8.44530       -5.03060
H        -11.75060       -8.15800       -3.63050
H        -10.27100      -11.59210       -3.63070
H         -6.33160       -5.13240       -0.15850
H         -3.99950       -4.39490       -0.12750
H         -3.54620       -5.95140        3.82990
H         -5.88780       -6.66650        3.81240
H          0.06470       -6.03570        4.76340
H          0.07120       -8.26840        5.79750
H         -1.13460      -10.13160        4.73220
H         -2.88490      -10.80750        3.13680
H         -3.35420       -9.73070        1.81230
H         -0.69710      -11.23190        2.01290
H         -2.04750      -11.66590        0.95870
H         -1.16480      -10.15840        0.69430
H         -2.30670       -7.55100        1.54730
H          8.01260        6.56030        1.26680
H         10.40850        7.00900        1.62480
H         12.10370        5.44240        0.77050
H         11.39670        2.70320       -1.53160
H         12.66540        3.58360       -0.66680
H         10.83730        1.45920        0.56080
H         12.52900        1.22050        0.10720
H         12.10910        2.32910        1.41740
H          9.01630        2.98180       -0.83930
H         -0.29890       -0.58300        0.06260
H          1.26220        0.02960       -0.55040
H          1.72130       -2.17380       -1.60100
H          0.13770       -2.75600       -1.07560
H          0.24690       -1.42510       -2.22700
H          1.95080        2.62040        0.11810
H          1.28790        1.26210        1.06450
H          2.49070        2.06920        3.08230
H          3.07720        3.46760        2.17530
H          1.34830        3.26580        2.45890
H          4.07880        7.22120       -0.15140
H          4.20580        9.51550       -0.93530
H          8.15110        8.77270       -2.43730
H          8.00970        6.46210       -1.66180
H          7.31200       10.91090       -2.66920
H          3.85100       14.73640       -5.01970
H          4.07320       17.00480       -5.96990
H          5.30370       18.74410       -4.72930
H          6.33110       18.21670       -2.55150
H          6.10870       15.94630       -1.59970
