229

C          3.83050       -8.96840        3.42740
C          3.55310      -10.28890        3.17870
C          4.58990      -11.15050        2.56500
O          5.75260      -10.86840        2.36800
C          3.89440      -12.40080        2.19320
C          4.43370      -13.50310        1.53410
C          3.54850      -14.53960        1.35550
C          2.22370      -14.49000        1.80700
C          1.67860      -13.40990        2.45980
C          2.56000      -12.34150        2.63930
C          2.35640      -11.06490        3.32340
C          1.30380      -10.75880        4.15940
C          0.09930      -11.47880        4.22360
N         -0.93040      -11.98710        4.27650
C          1.36250       -9.71560        5.09670
N          1.39080       -8.90190        5.90870
C          1.91810      -15.88390        1.31460
C          1.10150      -16.00010        0.01060
C          1.37500      -17.40810       -0.46610
C          2.62850      -17.45110       -0.89900
C          3.22370      -16.07280       -0.72160
C          1.97860      -15.21260       -0.97040
C          3.39480      -15.93780        0.80640
C          2.98180       -7.86090        3.56980
C          1.65060       -7.62710        3.17470
N          0.88880       -8.45140        2.38240
C          1.45470       -9.22060        1.35090
C          2.60850       -8.81570        0.68460
C          3.14680       -9.60000       -0.31440
C          2.54570      -10.79360       -0.69780
C          3.16190      -11.64850       -1.76030
C          1.37060      -11.17020       -0.05920
C          0.83280      -10.40440        0.95600
C         -0.51990       -8.30260        2.37690
C         -1.24330       -8.33640        3.56430
C         -2.62140       -8.25210        3.53410
C         -3.30900       -8.11310        2.33540
C         -4.80190       -8.00620        2.31400
C         -2.57450       -8.05590        1.15670
C         -1.19800       -8.15230        1.17070
C          1.22960       -6.34120        3.58340
S         -0.25090       -5.45840        3.43420
C          0.48750       -4.04360        4.16800
C          1.80780       -4.26140        4.51760
N          2.61630       -3.31190        5.11390
C          2.05300       -2.38070        6.00390
C          2.36940       -1.02850        5.89960
C          1.76870       -0.11210        6.73790
C          0.85980       -0.51630        7.71040
C          0.19100        0.49680        8.58800
C          0.58470       -1.87160        7.83420
C          1.16340       -2.79680        6.98780
C          3.97120       -3.23020        4.77200
C          4.39660       -3.50060        3.47370
C          5.73870       -3.43610        3.15530
C          6.68700       -3.08810        4.10860
C          8.14410       -3.04680        3.76300
C          6.25100       -2.79950        5.39680
C          4.91440       -2.87120        5.73180
C          2.21420       -5.57930        4.19640
S          3.70180       -6.43350        4.32390
C         -0.14070       -2.74310        4.14770
C         -1.18250       -2.18000        4.84790
C         -1.98220       -2.82710        5.88900
C         -2.38520       -2.08000        6.99560
C         -3.12370       -2.66870        8.00260
C         -3.47130       -4.00560        7.92440
C         -3.09050       -4.76380        6.82570
C         -3.51180       -6.19930        6.70200
C         -4.80090       -6.30180        5.88500
C         -2.35610       -4.16410        5.81320
C         -1.35120       -0.81630        4.49110
S         -2.50400        0.40740        4.97380
C         -1.78800        1.51180        3.84930
C         -1.95640        2.82950        3.38200
C         -2.82310        3.87210        3.77530
C         -2.74220        5.13900        3.09960
N         -3.58190        6.03170        3.59920
S         -4.40450        5.34200        4.81160
N         -3.72330        3.87430        4.74590
C         -1.88780        5.26560        1.98220
C         -1.77760        6.26570        1.00120
S         -2.45360        7.81300        0.62550
C         -1.61350        7.78910       -0.90600
C         -1.56720        8.69090       -1.99480
C         -2.29590        9.95560       -2.06890
C         -1.75080       11.07180       -2.69980
C         -2.48330       12.24020       -2.79340
C         -3.75800       12.31360       -2.25970
C         -4.31190       11.21620       -1.61050
C         -5.70910       11.26710       -1.06190
C         -6.71110       10.74990       -2.09650
C         -3.57400       10.04530       -1.52310
C         -0.74420        8.21440       -2.98900
S         -0.03690        6.66340       -2.61630
C         -0.83760        6.64580       -1.08570
C         -0.92540        5.77470        0.00920
N         -0.47590        4.52890        0.35590
C         -1.04620        4.19630        1.56970
C         -0.98640        3.02320        2.36260
N         -0.20510        1.88110        2.26270
C         -0.71060        0.96650        3.15350
C         -0.45960       -0.36070        3.52560
S          0.63640       -1.59960        3.04810
C          1.19460        1.79360        1.90450
C          2.08600        1.90830        3.14130
C          0.19210        3.70270       -0.62280
C          1.64970        4.11990       -0.82170
C         -0.49420        8.78470       -4.30610
C         -1.55370        8.84610       -5.22970
S         -3.15470        8.30570       -4.71660
C         -4.20750        9.76760       -5.08660
C         -5.50290        9.35720       -5.75190
C         -1.33090        9.24180       -6.54870
S         -2.64270        9.08190       -7.74200
C         -1.89350        7.92590       -8.94050
C         -1.46130        6.63290       -8.28030
C         -0.07580        9.72910       -6.92090
C          0.95110        9.75910       -5.97300
C          0.77520        9.25150       -4.67750
C          1.86070        9.35190       -3.67470
O          1.76050        8.94620       -2.53220
C          3.07710       10.01910       -4.15660
C          3.21940       10.55980       -5.47030
C          2.13700       10.48520       -6.42940
O          2.14250       11.00310       -7.54130
C          4.43950       11.15040       -5.66130
S          5.42180       11.05230       -4.26610
C          4.19710       10.22120       -3.40170
C          0.19840       10.23720       -8.26060
C         -0.56150       11.17080       -8.89830
C         -0.58060       11.22700      -10.37840
O          0.17890       10.66590      -11.13350
C         -1.79160       12.00880      -10.71210
C         -2.34800       12.29820      -11.94940
Cl        -1.59410       11.78800      -13.40020
C         -3.53950       13.01710      -12.00120
C         -4.14490       13.41990      -10.82210
Br        -5.77560       14.37990      -10.92110
C         -3.60560       13.14660       -9.56980
C         -2.41850       12.43860       -9.52570
C         -1.59750       12.03430       -8.38350
C         -1.73520       12.49670       -7.10140
C         -0.76360       12.33920       -6.09510
N          0.01260       12.30220       -5.24970
C         -2.84150       13.23370       -6.63150
N         -3.73400       13.79000       -6.17130
H          4.89150       -8.73660        3.46670
H          5.46680      -13.51120        1.22240
H          0.65890      -13.38280        2.80770
H          1.60560      -16.59490        2.07700
H          0.05860      -15.70720        0.09850
H          0.67020      -18.21520       -0.38930
H          3.17970      -18.30150       -1.25570
H          4.11380      -15.84680       -1.30300
H          2.10770      -14.16780       -0.69870
H          1.62300      -15.28770       -1.99710
H          4.06170      -16.68830        1.22700
H          3.08150       -7.88070        0.94360
H          4.04860       -9.27440       -0.81100
H          3.85690      -12.35610       -1.30590
H          2.40330      -12.21340       -2.29700
H          3.71940      -11.04140       -2.46950
H          0.86930      -12.08210       -0.34920
H         -0.07540      -10.72040        1.44860
H         -0.72890       -8.44260        4.50670
H         -3.17240       -8.31170        4.45940
H         -5.10070       -6.95850        2.36240
H         -5.20810       -8.42840        1.39790
H         -5.23920       -8.52050        3.16590
H         -3.08700       -7.93760        0.21300
H         -0.64020       -8.11310        0.24630
H          3.07700       -0.70830        5.14800
H          2.00200        0.93830        6.63380
H         -0.44590        0.01220        9.32340
H          0.93110        1.10150        9.11040
H         -0.42190        1.16930        7.98750
H         -0.09700       -2.21350        8.59860
H          0.92230       -3.84520        7.08230
H          3.66970       -3.74760        2.71350
H          6.05380       -3.65250        2.14450
H          8.67220       -2.33120        4.38900
H          8.28880       -2.77850        2.71890
H          8.59130       -4.02850        3.92290
H          6.97170       -2.52380        6.15320
H          4.59040       -2.65410        6.73890
H         -2.10230       -1.04310        7.07710
H         -3.42770       -2.08090        8.85650
H         -4.04420       -4.46340        8.71810
H         -3.67790       -6.62320        7.69430
H         -2.72210       -6.77180        6.21200
H         -5.58930       -5.71390        6.35040
H         -4.63910       -5.92260        4.87860
H         -5.13450       -7.33520        5.82160
H         -2.09170       -4.74690        4.94490
H         -0.74890       11.03730       -3.09890
H         -2.05300       13.09950       -3.28590
H         -4.32390       13.22970       -2.34380
H         -5.77220       10.65270       -0.16180
H         -5.96410       12.29430       -0.79590
H         -7.72180       10.78670       -1.69720
H         -6.48220        9.72040       -2.36360
H         -6.67290       11.35750       -2.99850
H         -4.00770        9.18210       -1.04080
H          1.36270        0.82880        1.41520
H          1.44660        2.59610        1.22090
H          1.90930        2.85740        3.64370
H          3.13060        1.85680        2.84570
H          1.88230        1.10170        3.84010
H         -0.33500        3.82670       -1.57590
H          0.10300        2.65650       -0.32850
H          2.14020        3.42950       -1.50240
H          1.69570        5.11760       -1.24960
H          2.19640        4.13500        0.11870
H         -4.38880       10.24410       -4.12380
H         -3.62810       10.43990       -5.71530
H         -5.30630        8.87690       -6.70710
H         -6.05370        8.66670       -5.11810
H         -6.11500       10.23960       -5.92330
H         -2.69630        7.75530       -9.65790
H         -1.06710        8.42610       -9.44440
H         -1.10670        5.93740       -9.03800
H         -2.29530        6.17850       -7.74980
H         -0.65640        6.80920       -7.56830
H          4.79490       11.62930       -6.55240
H          4.35210        9.92230       -2.38380
H          0.87470        9.66640       -8.89050
H         -3.98550       13.25290      -12.95430
H         -4.11230       13.47440       -8.67690
