
  xtb     02202217323D
 energy: -422.240597275921 gnorm: 0.000403369972 xtb: 6.4.1 (unknown)
262290  0     0  0            999 V2000
    0.8281  -11.0544   -5.4811 C   0  0  0  0  0  0  0  0  0  0  0  0
    1.4648  -11.0010   -6.7015 C   0  0  0  0  0  0  0  0  0  0  0  0
    2.2281   -9.8738   -7.2393 C   0  0  0  0  0  0  0  0  0  0  0  0
    2.5873   -8.8624   -6.6588 O   0  0  0  0  0  0  0  0  0  0  0  0
    2.4765  -10.1856   -8.6601 C   0  0  0  0  0  0  0  0  0  0  0  0
    3.1388   -9.3909   -9.5911 C   0  0  0  0  0  0  0  0  0  0  0  0
    3.2000   -9.9369  -10.8510 C   0  0  0  0  0  0  0  0  0  0  0  0
    2.6498  -11.1868  -11.1592 C   0  0  0  0  0  0  0  0  0  0  0  0
    2.0033  -11.9867  -10.2459 C   0  0  0  0  0  0  0  0  0  0  0  0
    1.9219  -11.4449   -8.9611 C   0  0  0  0  0  0  0  0  0  0  0  0
    1.3268  -11.9915   -7.7410 C   0  0  0  0  0  0  0  0  0  0  0  0
    0.7578  -13.2381   -7.6261 C   0  0  0  0  0  0  0  0  0  0  0  0
    0.5413  -14.1200   -8.7020 C   0  0  0  0  0  0  0  0  0  0  0  0
    0.3037  -14.8823   -9.5286 N   0  0  0  0  0  0  0  0  0  0  0  0
    0.3332  -13.8335   -6.4235 C   0  0  0  0  0  0  0  0  0  0  0  0
   -0.0027  -14.4127   -5.4883 N   0  0  0  0  0  0  0  0  0  0  0  0
    3.0614  -11.1002  -12.6077 C   0  0  0  0  0  0  0  0  0  0  0  0
    1.9683  -10.7468  -13.6465 C   0  0  0  0  0  0  0  0  0  0  0  0
    0.9196   -9.9499  -12.9114 C   0  0  0  0  0  0  0  0  0  0  0  0
    1.4412   -8.7657  -12.6202 C   0  0  0  0  0  0  0  0  0  0  0  0
    2.8524   -8.7410  -13.1527 C   0  0  0  0  0  0  0  0  0  0  0  0
    2.6847   -9.6174  -14.4041 C   0  0  0  0  0  0  0  0  0  0  0  0
    3.6754   -9.7066  -12.2641 C   0  0  0  0  0  0  0  0  0  0  0  0
    0.7989  -10.1361   -4.4343 C   0  0  0  0  0  0  0  0  0  0  0  0
   -0.0478  -10.2641   -3.3025 C   0  0  0  0  0  0  0  0  0  0  0  0
   -1.0387  -11.2008   -3.1494 N   0  0  0  0  0  0  0  0  0  0  0  0
   -1.3209  -11.6993   -1.8651 C   0  0  0  0  0  0  0  0  0  0  0  0
   -2.6358  -11.9328   -1.4702 C   0  0  0  0  0  0  0  0  0  0  0  0
   -2.8982  -12.4939   -0.2380 C   0  0  0  0  0  0  0  0  0  0  0  0
   -1.8683  -12.8270    0.6360 C   0  0  0  0  0  0  0  0  0  0  0  0
   -2.1703  -13.5009    1.9387 C   0  0  0  0  0  0  0  0  0  0  0  0
   -0.5633  -12.5550    0.2488 C   0  0  0  0  0  0  0  0  0  0  0  0
   -0.2854  -12.0024   -0.9859 C   0  0  0  0  0  0  0  0  0  0  0  0
   -1.8240  -11.6353   -4.2341 C   0  0  0  0  0  0  0  0  0  0  0  0
   -2.2039  -10.7421   -5.2333 C   0  0  0  0  0  0  0  0  0  0  0  0
   -2.9356  -11.1861   -6.3164 C   0  0  0  0  0  0  0  0  0  0  0  0
   -3.3263  -12.5158   -6.4226 C   0  0  0  0  0  0  0  0  0  0  0  0
   -4.0878  -13.0109   -7.6133 C   0  0  0  0  0  0  0  0  0  0  0  0
   -2.9804  -13.3889   -5.3977 C   0  0  0  0  0  0  0  0  0  0  0  0
   -2.2343  -12.9637   -4.3170 C   0  0  0  0  0  0  0  0  0  0  0  0
    0.2247   -9.2634   -2.3579 C   0  0  0  0  0  0  0  0  0  0  0  0
   -0.4597   -8.8408   -0.8192 S   0  0  0  0  0  0  0  0  0  0  0  0
    0.5708   -7.4135   -0.7424 C   0  0  0  0  0  0  0  0  0  0  0  0
    1.4435   -7.3287   -1.8219 C   0  0  0  0  0  0  0  0  0  0  0  0
    2.4225   -6.3628   -1.9892 N   0  0  0  0  0  0  0  0  0  0  0  0
    2.7164   -5.9735   -3.3107 C   0  0  0  0  0  0  0  0  0  0  0  0
    4.0262   -5.9429   -3.7759 C   0  0  0  0  0  0  0  0  0  0  0  0
    4.2807   -5.6354   -5.0975 C   0  0  0  0  0  0  0  0  0  0  0  0
    3.2468   -5.3570   -5.9823 C   0  0  0  0  0  0  0  0  0  0  0  0
    3.5198   -5.1065   -7.4325 C   0  0  0  0  0  0  0  0  0  0  0  0
    1.9440   -5.3597   -5.5006 C   0  0  0  0  0  0  0  0  0  0  0  0
    1.6763   -5.6595   -4.1805 C   0  0  0  0  0  0  0  0  0  0  0  0
    3.2241   -5.9352   -0.9294 C   0  0  0  0  0  0  0  0  0  0  0  0
    3.7790   -4.6567   -0.9497 C   0  0  0  0  0  0  0  0  0  0  0  0
    4.5355   -4.2076    0.1149 C   0  0  0  0  0  0  0  0  0  0  0  0
    4.7530   -5.0054    1.2304 C   0  0  0  0  0  0  0  0  0  0  0  0
    5.5436   -4.5112    2.4033 C   0  0  0  0  0  0  0  0  0  0  0  0
    4.2100   -6.2860    1.2373 C   0  0  0  0  0  0  0  0  0  0  0  0
    3.4646   -6.7518    0.1748 C   0  0  0  0  0  0  0  0  0  0  0  0
    1.2224   -8.3763   -2.7461 C   0  0  0  0  0  0  0  0  0  0  0  0
    1.8530   -8.7251   -4.3145 S   0  0  0  0  0  0  0  0  0  0  0  0
    0.3478   -6.4401    0.2697 C   0  0  0  0  0  0  0  0  0  0  0  0
   -0.2717   -6.6096    1.4953 C   0  0  0  0  0  0  0  0  0  0  0  0
   -0.5769   -7.9084    2.0970 C   0  0  0  0  0  0  0  0  0  0  0  0
    0.4068   -8.8898    2.1917 C   0  0  0  0  0  0  0  0  0  0  0  0
    0.1176  -10.0961    2.7963 C   0  0  0  0  0  0  0  0  0  0  0  0
   -1.1501  -10.3388    3.2961 C   0  0  0  0  0  0  0  0  0  0  0  0
   -2.1435   -9.3742    3.2038 C   0  0  0  0  0  0  0  0  0  0  0  0
   -3.5393   -9.6490    3.6837 C   0  0  0  0  0  0  0  0  0  0  0  0
   -4.4500   -9.9715    2.4974 C   0  0  0  0  0  0  0  0  0  0  0  0
   -1.8419   -8.1562    2.6133 C   0  0  0  0  0  0  0  0  0  0  0  0
   -0.5189   -5.3756    2.1248 C   0  0  0  0  0  0  0  0  0  0  0  0
   -1.2677   -4.9445    3.6457 S   0  0  0  0  0  0  0  0  0  0  0  0
   -0.9623   -3.2741    3.2961 C   0  0  0  0  0  0  0  0  0  0  0  0
   -1.2103   -2.0028    3.8369 C   0  0  0  0  0  0  0  0  0  0  0  0
   -1.9452   -1.6267    4.9811 C   0  0  0  0  0  0  0  0  0  0  0  0
   -2.1602   -0.2330    5.2371 C   0  0  0  0  0  0  0  0  0  0  0  0
   -2.9034   -0.0232    6.3124 N   0  0  0  0  0  0  0  0  0  0  0  0
   -3.2961   -1.4597    6.9499 S   0  0  0  0  0  0  0  0  0  0  0  0
   -2.5340   -2.4041    5.8765 N   0  0  0  0  0  0  0  0  0  0  0  0
   -1.5581    0.7162    4.3847 C   0  0  0  0  0  0  0  0  0  0  0  0
   -1.5427    2.1183    4.4529 C   0  0  0  0  0  0  0  0  0  0  0  0
   -2.2102    3.4030    5.4052 S   0  0  0  0  0  0  0  0  0  0  0  0
   -1.3375    4.5541    4.4206 C   0  0  0  0  0  0  0  0  0  0  0  0
   -1.2814    5.9623    4.4102 C   0  0  0  0  0  0  0  0  0  0  0  0
   -2.1132    6.8206    5.2568 C   0  0  0  0  0  0  0  0  0  0  0  0
   -2.2429    6.5704    6.6187 C   0  0  0  0  0  0  0  0  0  0  0  0
   -3.0452    7.3878    7.3927 C   0  0  0  0  0  0  0  0  0  0  0  0
   -3.7311    8.4444    6.8196 C   0  0  0  0  0  0  0  0  0  0  0  0
   -3.6298    8.6974    5.4569 C   0  0  0  0  0  0  0  0  0  0  0  0
   -4.4181    9.7965    4.8044 C   0  0  0  0  0  0  0  0  0  0  0  0
   -5.6917    9.2389    4.1667 C   0  0  0  0  0  0  0  0  0  0  0  0
   -2.8184    7.8779    4.6889 C   0  0  0  0  0  0  0  0  0  0  0  0
   -0.4377    6.4291    3.4176 C   0  0  0  0  0  0  0  0  0  0  0  0
    0.2655    5.1295    2.4691 S   0  0  0  0  0  0  0  0  0  0  0  0
   -0.5741    3.9560    3.4193 C   0  0  0  0  0  0  0  0  0  0  0  0
   -0.7081    2.5613    3.4281 C   0  0  0  0  0  0  0  0  0  0  0  0
   -0.2227    1.4953    2.7240 N   0  0  0  0  0  0  0  0  0  0  0  0
   -0.7505    0.3381    3.2712 C   0  0  0  0  0  0  0  0  0  0  0  0
   -0.6453   -1.0441    2.9435 C   0  0  0  0  0  0  0  0  0  0  0  0
   -0.1099   -1.7362    1.8706 N   0  0  0  0  0  0  0  0  0  0  0  0
   -0.2994   -3.0722    2.0862 C   0  0  0  0  0  0  0  0  0  0  0  0
   -0.0606   -4.2716    1.4052 C   0  0  0  0  0  0  0  0  0  0  0  0
    0.6465   -4.7432   -0.0966 S   0  0  0  0  0  0  0  0  0  0  0  0
    0.4999   -1.3286    0.6283 C   0  0  0  0  0  0  0  0  0  0  0  0
    2.0223   -1.4698    0.6744 C   0  0  0  0  0  0  0  0  0  0  0  0
    0.7450    1.7415    1.6827 C   0  0  0  0  0  0  0  0  0  0  0  0
    0.0760    2.1909    0.3826 C   0  0  0  0  0  0  0  0  0  0  0  0
   -0.0733    7.8036    3.2368 C   0  0  0  0  0  0  0  0  0  0  0  0
    0.0042    8.5779    2.0911 C   0  0  0  0  0  0  0  0  0  0  0  0
   -0.1917    8.1318    0.7866 N   0  0  0  0  0  0  0  0  0  0  0  0
    0.6287    7.1307    0.2634 C   0  0  0  0  0  0  0  0  0  0  0  0
    0.1576    6.2742   -0.7298 C   0  0  0  0  0  0  0  0  0  0  0  0
    0.9687    5.2739   -1.2260 C   0  0  0  0  0  0  0  0  0  0  0  0
    2.2613    5.0915   -0.7500 C   0  0  0  0  0  0  0  0  0  0  0  0
    3.1425    3.9990   -1.2767 C   0  0  0  0  0  0  0  0  0  0  0  0
    2.7276    5.9532    0.2352 C   0  0  0  0  0  0  0  0  0  0  0  0
    1.9307    6.9624    0.7359 C   0  0  0  0  0  0  0  0  0  0  0  0
   -1.0323    8.9028   -0.0332 C   0  0  0  0  0  0  0  0  0  0  0  0
   -0.7320    9.1301   -1.3730 C   0  0  0  0  0  0  0  0  0  0  0  0
   -1.5690    9.9089   -2.1481 C   0  0  0  0  0  0  0  0  0  0  0  0
   -2.7095   10.4940   -1.6135 C   0  0  0  0  0  0  0  0  0  0  0  0
   -3.6185   11.3340   -2.4579 C   0  0  0  0  0  0  0  0  0  0  0  0
   -2.9968   10.2704   -0.2722 C   0  0  0  0  0  0  0  0  0  0  0  0
   -2.1782    9.4817    0.5087 C   0  0  0  0  0  0  0  0  0  0  0  0
    0.2300    9.9382    2.4137 C   0  0  0  0  0  0  0  0  0  0  0  0
    0.3250   11.3964    1.4964 S   0  0  0  0  0  0  0  0  0  0  0  0
    0.4523   12.3436    2.9675 C   0  0  0  0  0  0  0  0  0  0  0  0
    0.4817   11.5485    4.1062 C   0  0  0  0  0  0  0  0  0  0  0  0
    0.7988   12.0070    5.3919 N   0  0  0  0  0  0  0  0  0  0  0  0
   -0.2104   12.4963    6.2351 C   0  0  0  0  0  0  0  0  0  0  0  0
    0.0277   13.6169    7.0263 C   0  0  0  0  0  0  0  0  0  0  0  0
   -0.9701   14.1147    7.8417 C   0  0  0  0  0  0  0  0  0  0  0  0
   -2.2240   13.5174    7.8853 C   0  0  0  0  0  0  0  0  0  0  0  0
   -3.3281   14.0714    8.7300 C   0  0  0  0  0  0  0  0  0  0  0  0
   -2.4474   12.3926    7.0987 C   0  0  0  0  0  0  0  0  0  0  0  0
   -1.4581   11.8806    6.2814 C   0  0  0  0  0  0  0  0  0  0  0  0
    2.0541   11.6535    5.8971 C   0  0  0  0  0  0  0  0  0  0  0  0
    2.2593   11.4634    7.2626 C   0  0  0  0  0  0  0  0  0  0  0  0
    3.5107   11.1293    7.7381 C   0  0  0  0  0  0  0  0  0  0  0  0
    4.5900   10.9592    6.8788 C   0  0  0  0  0  0  0  0  0  0  0  0
    5.9372   10.5703    7.4071 C   0  0  0  0  0  0  0  0  0  0  0  0
    4.3753   11.1364    5.5187 C   0  0  0  0  0  0  0  0  0  0  0  0
    3.1313   11.4819    5.0291 C   0  0  0  0  0  0  0  0  0  0  0  0
    0.3626   10.1847    3.7711 C   0  0  0  0  0  0  0  0  0  0  0  0
    0.2540    8.7346    4.6975 S   0  0  0  0  0  0  0  0  0  0  0  0
    0.6649   13.7492    2.8751 C   0  0  0  0  0  0  0  0  0  0  0  0
    0.0956   14.7346    3.6108 C   0  0  0  0  0  0  0  0  0  0  0  0
    0.7543   16.0814    3.6667 C   0  0  0  0  0  0  0  0  0  0  0  0
    1.7122   16.4402    3.0208 O   0  0  0  0  0  0  0  0  0  0  0  0
   -0.0076   16.7959    4.6797 C   0  0  0  0  0  0  0  0  0  0  0  0
    0.0795   18.3198    5.4538 S   0  0  0  0  0  0  0  0  0  0  0  0
   -1.3586   17.9534    6.3700 C   0  0  0  0  0  0  0  0  0  0  0  0
   -1.8912   18.9444    7.3382 C   0  0  0  0  0  0  0  0  0  0  0  0
   -1.8701   16.7208    6.0755 C   0  0  0  0  0  0  0  0  0  0  0  0
   -1.0951   16.0490    5.1132 C   0  0  0  0  0  0  0  0  0  0  0  0
   -1.1204   14.7861    4.4021 C   0  0  0  0  0  0  0  0  0  0  0  0
   -2.2169   13.9693    4.3296 C   0  0  0  0  0  0  0  0  0  0  0  0
   -3.4119   14.2762    5.0141 C   0  0  0  0  0  0  0  0  0  0  0  0
   -4.4085   14.5254    5.5267 N   0  0  0  0  0  0  0  0  0  0  0  0
   -2.3396   12.8154    3.5353 C   0  0  0  0  0  0  0  0  0  0  0  0
   -2.5456   11.8798    2.9013 N   0  0  0  0  0  0  0  0  0  0  0  0
    0.2211  -11.9339   -5.3106 H   0  0  0  0  0  0  0  0  0  0  0  0
    3.5555   -8.4362   -9.3096 H   0  0  0  0  0  0  0  0  0  0  0  0
    1.5895  -12.9486  -10.4986 H   0  0  0  0  0  0  0  0  0  0  0  0
    3.7328  -11.8799  -12.9619 H   0  0  0  0  0  0  0  0  0  0  0  0
    1.6087  -11.5912  -14.2282 H   0  0  0  0  0  0  0  0  0  0  0  0
   -0.0430  -10.3386  -12.6351 H   0  0  0  0  0  0  0  0  0  0  0  0
    1.0010   -7.9673  -12.0518 H   0  0  0  0  0  0  0  0  0  0  0  0
    3.2982   -7.7585  -13.2861 H   0  0  0  0  0  0  0  0  0  0  0  0
    2.0556   -9.1534  -15.1624 H   0  0  0  0  0  0  0  0  0  0  0  0
    3.6304   -9.9250  -14.8483 H   0  0  0  0  0  0  0  0  0  0  0  0
    4.7483   -9.5771  -12.3938 H   0  0  0  0  0  0  0  0  0  0  0  0
   -3.4456  -11.6827   -2.1393 H   0  0  0  0  0  0  0  0  0  0  0  0
   -3.9225  -12.6865    0.0481 H   0  0  0  0  0  0  0  0  0  0  0  0
   -2.9467  -12.9649    2.4817 H   0  0  0  0  0  0  0  0  0  0  0  0
   -2.5326  -14.5132    1.7575 H   0  0  0  0  0  0  0  0  0  0  0  0
   -1.2809  -13.5627    2.5599 H   0  0  0  0  0  0  0  0  0  0  0  0
    0.2528  -12.8007    0.9119 H   0  0  0  0  0  0  0  0  0  0  0  0
    0.7374  -11.8281   -1.2859 H   0  0  0  0  0  0  0  0  0  0  0  0
   -1.9102   -9.7048   -5.1635 H   0  0  0  0  0  0  0  0  0  0  0  0
   -3.2111  -10.4842   -7.0906 H   0  0  0  0  0  0  0  0  0  0  0  0
   -4.9693  -13.5678   -7.3006 H   0  0  0  0  0  0  0  0  0  0  0  0
   -3.4632  -13.6831   -8.2019 H   0  0  0  0  0  0  0  0  0  0  0  0
   -4.4002  -12.1861   -8.2489 H   0  0  0  0  0  0  0  0  0  0  0  0
   -3.2774  -14.4249   -5.4586 H   0  0  0  0  0  0  0  0  0  0  0  0
   -1.9484  -13.6611   -3.5456 H   0  0  0  0  0  0  0  0  0  0  0  0
    4.8368   -6.1817   -3.1030 H   0  0  0  0  0  0  0  0  0  0  0  0
    5.3011   -5.6352   -5.4528 H   0  0  0  0  0  0  0  0  0  0  0  0
    4.5394   -4.7615   -7.5876 H   0  0  0  0  0  0  0  0  0  0  0  0
    3.3858   -6.0377   -7.9832 H   0  0  0  0  0  0  0  0  0  0  0  0
    2.8286   -4.3719   -7.8407 H   0  0  0  0  0  0  0  0  0  0  0  0
    1.1273   -5.1343   -6.1710 H   0  0  0  0  0  0  0  0  0  0  0  0
    0.6594   -5.6675   -3.8145 H   0  0  0  0  0  0  0  0  0  0  0  0
    3.6003   -4.0161   -1.8003 H   0  0  0  0  0  0  0  0  0  0  0  0
    4.9544   -3.2117    0.0812 H   0  0  0  0  0  0  0  0  0  0  0  0
    4.9032   -4.4244    3.2812 H   0  0  0  0  0  0  0  0  0  0  0  0
    5.9795   -3.5370    2.1963 H   0  0  0  0  0  0  0  0  0  0  0  0
    6.3447   -5.2079    2.6457 H   0  0  0  0  0  0  0  0  0  0  0  0
    4.3799   -6.9295    2.0888 H   0  0  0  0  0  0  0  0  0  0  0  0
    3.0675   -7.7560    0.1914 H   0  0  0  0  0  0  0  0  0  0  0  0
    1.3970   -8.6904    1.8094 H   0  0  0  0  0  0  0  0  0  0  0  0
    0.8862  -10.8499    2.8848 H   0  0  0  0  0  0  0  0  0  0  0  0
   -1.3671  -11.2826    3.7733 H   0  0  0  0  0  0  0  0  0  0  0  0
   -3.9291   -8.7748    4.2095 H   0  0  0  0  0  0  0  0  0  0  0  0
   -3.5342  -10.4908    4.3789 H   0  0  0  0  0  0  0  0  0  0  0  0
   -5.4531  -10.2151    2.8404 H   0  0  0  0  0  0  0  0  0  0  0  0
   -4.5099   -9.1202    1.8236 H   0  0  0  0  0  0  0  0  0  0  0  0
   -4.0546  -10.8148    1.9355 H   0  0  0  0  0  0  0  0  0  0  0  0
   -2.6013   -7.3910    2.5434 H   0  0  0  0  0  0  0  0  0  0  0  0
   -1.7048    5.7489    7.0667 H   0  0  0  0  0  0  0  0  0  0  0  0
   -3.1377    7.1979    8.4519 H   0  0  0  0  0  0  0  0  0  0  0  0
   -4.3572    9.0756    7.4343 H   0  0  0  0  0  0  0  0  0  0  0  0
   -3.8152   10.2811    4.0328 H   0  0  0  0  0  0  0  0  0  0  0  0
   -4.6908   10.5523    5.5438 H   0  0  0  0  0  0  0  0  0  0  0  0
   -6.3178    8.7657    4.9205 H   0  0  0  0  0  0  0  0  0  0  0  0
   -5.4450    8.4958    3.4118 H   0  0  0  0  0  0  0  0  0  0  0  0
   -6.2577   10.0388    3.6953 H   0  0  0  0  0  0  0  0  0  0  0  0
   -2.7386    8.0553    3.6254 H   0  0  0  0  0  0  0  0  0  0  0  0
    0.1159   -1.9951   -0.1516 H   0  0  0  0  0  0  0  0  0  0  0  0
    0.1919   -0.3186    0.3775 H   0  0  0  0  0  0  0  0  0  0  0  0
    2.2979   -2.5184    0.7556 H   0  0  0  0  0  0  0  0  0  0  0  0
    2.4580   -1.0710   -0.2375 H   0  0  0  0  0  0  0  0  0  0  0  0
    2.4444   -0.9445    1.5291 H   0  0  0  0  0  0  0  0  0  0  0  0
    1.3628    0.8592    1.5413 H   0  0  0  0  0  0  0  0  0  0  0  0
    1.3967    2.5501    2.0316 H   0  0  0  0  0  0  0  0  0  0  0  0
   -0.7418    1.5275    0.1073 H   0  0  0  0  0  0  0  0  0  0  0  0
    0.8052    2.2113   -0.4216 H   0  0  0  0  0  0  0  0  0  0  0  0
   -0.3286    3.1926    0.4996 H   0  0  0  0  0  0  0  0  0  0  0  0
   -0.8498    6.3932   -1.0995 H   0  0  0  0  0  0  0  0  0  0  0  0
    0.5848    4.6181   -1.9946 H   0  0  0  0  0  0  0  0  0  0  0  0
    2.6492    3.4496   -2.0750 H   0  0  0  0  0  0  0  0  0  0  0  0
    3.4014    3.3017   -0.4799 H   0  0  0  0  0  0  0  0  0  0  0  0
    4.0710    4.4141   -1.6664 H   0  0  0  0  0  0  0  0  0  0  0  0
    3.7332    5.8353    0.6124 H   0  0  0  0  0  0  0  0  0  0  0  0
    2.3128    7.6283    1.4960 H   0  0  0  0  0  0  0  0  0  0  0  0
    0.1643    8.7064   -1.8014 H   0  0  0  0  0  0  0  0  0  0  0  0
   -1.3193   10.0767   -3.1862 H   0  0  0  0  0  0  0  0  0  0  0  0
   -4.4947   10.7567   -2.7556 H   0  0  0  0  0  0  0  0  0  0  0  0
   -3.1119   11.6711   -3.3590 H   0  0  0  0  0  0  0  0  0  0  0  0
   -3.9651   12.2026   -1.9017 H   0  0  0  0  0  0  0  0  0  0  0  0
   -3.8720   10.7212    0.1713 H   0  0  0  0  0  0  0  0  0  0  0  0
   -2.4200    9.3262    1.5489 H   0  0  0  0  0  0  0  0  0  0  0  0
    0.9986   14.0898    6.9928 H   0  0  0  0  0  0  0  0  0  0  0  0
   -0.7722   14.9883    8.4468 H   0  0  0  0  0  0  0  0  0  0  0  0
   -3.7131   13.3090    9.4051 H   0  0  0  0  0  0  0  0  0  0  0  0
   -4.1507   14.3932    8.0904 H   0  0  0  0  0  0  0  0  0  0  0  0
   -2.9849   14.9189    9.3183 H   0  0  0  0  0  0  0  0  0  0  0  0
   -3.4127   11.9099    7.1291 H   0  0  0  0  0  0  0  0  0  0  0  0
   -1.6474   10.9985    5.6878 H   0  0  0  0  0  0  0  0  0  0  0  0
    1.4329   11.5703    7.9490 H   0  0  0  0  0  0  0  0  0  0  0  0
    3.6495   10.9875    8.8004 H   0  0  0  0  0  0  0  0  0  0  0  0
    5.9799    9.4922    7.5665 H   0  0  0  0  0  0  0  0  0  0  0  0
    6.1339   11.0567    8.3601 H   0  0  0  0  0  0  0  0  0  0  0  0
    6.7222   10.8400    6.7047 H   0  0  0  0  0  0  0  0  0  0  0  0
    5.1962   11.0103    4.8273 H   0  0  0  0  0  0  0  0  0  0  0  0
    2.9961   11.6273    3.9676 H   0  0  0  0  0  0  0  0  0  0  0  0
    1.4277   14.0727    2.1718 H   0  0  0  0  0  0  0  0  0  0  0  0
   -2.1197   19.8847    6.8379 H   0  0  0  0  0  0  0  0  0  0  0  0
   -1.1573   19.1543    8.1159 H   0  0  0  0  0  0  0  0  0  0  0  0
   -2.7977   18.5629    7.8013 H   0  0  0  0  0  0  0  0  0  0  0  0
   -2.7529   16.3218    6.5388 H   0  0  0  0  0  0  0  0  0  0  0  0
  1  2  2  0  0  0  0
  2  3  1  0  0  0  0
  3  4  2  0  0  0  0
  3  5  1  0  0  0  0
  5  6  2  0  0  0  0
  6  7  1  0  0  0  0
  7  8  2  0  0  0  0
  8  9  1  0  0  0  0
  9 10  2  0  0  0  0
 10 11  1  0  0  0  0
 11 12  2  0  0  0  0
 12 13  1  0  0  0  0
 13 14  3  0  0  0  0
 12 15  1  0  0  0  0
 15 16  3  0  0  0  0
  8 17  1  0  0  0  0
 17 18  1  0  0  0  0
 18 19  1  0  0  0  0
 19 20  2  0  0  0  0
 20 21  1  0  0  0  0
 21 22  1  0  0  0  0
 21 23  1  0  0  0  0
  1 24  1  0  0  0  0
 24 25  2  0  0  0  0
 25 26  1  0  0  0  0
 26 27  1  0  0  0  0
 27 28  2  0  0  0  0
 28 29  1  0  0  0  0
 29 30  2  0  0  0  0
 30 31  1  0  0  0  0
 30 32  1  0  0  0  0
 32 33  2  0  0  0  0
 26 34  1  0  0  0  0
 34 35  2  0  0  0  0
 35 36  1  0  0  0  0
 36 37  2  0  0  0  0
 37 38  1  0  0  0  0
 37 39  1  0  0  0  0
 39 40  2  0  0  0  0
 25 41  1  0  0  0  0
 41 42  1  0  0  0  0
 42 43  1  0  0  0  0
 43 44  2  0  0  0  0
 44 45  1  0  0  0  0
 45 46  1  0  0  0  0
 46 47  2  0  0  0  0
 47 48  1  0  0  0  0
 48 49  2  0  0  0  0
 49 50  1  0  0  0  0
 49 51  1  0  0  0  0
 51 52  2  0  0  0  0
 45 53  1  0  0  0  0
 53 54  2  0  0  0  0
 54 55  1  0  0  0  0
 55 56  2  0  0  0  0
 56 57  1  0  0  0  0
 56 58  1  0  0  0  0
 58 59  2  0  0  0  0
 44 60  1  0  0  0  0
 60 61  1  0  0  0  0
 43 62  1  0  0  0  0
 62 63  2  0  0  0  0
 63 64  1  0  0  0  0
 64 65  2  0  0  0  0
 65 66  1  0  0  0  0
 66 67  2  0  0  0  0
 67 68  1  0  0  0  0
 68 69  1  0  0  0  0
 69 70  1  0  0  0  0
 68 71  2  0  0  0  0
 63 72  1  0  0  0  0
 72 73  1  0  0  0  0
 73 74  1  0  0  0  0
 74 75  1  0  0  0  0
 75 76  1  0  0  0  0
 76 77  1  0  0  0  0
 77 78  2  0  0  0  0
 78 79  1  0  0  0  0
 79 80  1  0  0  0  0
 77 81  1  0  0  0  0
 81 82  1  0  0  0  0
 82 83  1  0  0  0  0
 83 84  1  0  0  0  0
 84 85  1  0  0  0  0
 85 86  1  0  0  0  0
 86 87  2  0  0  0  0
 87 88  1  0  0  0  0
 88 89  2  0  0  0  0
 89 90  1  0  0  0  0
 90 91  1  0  0  0  0
 91 92  1  0  0  0  0
 90 93  2  0  0  0  0
 85 94  2  0  0  0  0
 94 95  1  0  0  0  0
 95 96  1  0  0  0  0
 96 97  1  0  0  0  0
 97 98  1  0  0  0  0
 98 99  1  0  0  0  0
 99100  1  0  0  0  0
100101  1  0  0  0  0
101102  1  0  0  0  0
102103  1  0  0  0  0
103104  1  0  0  0  0
101105  1  0  0  0  0
105106  1  0  0  0  0
 98107  1  0  0  0  0
107108  1  0  0  0  0
 94109  1  0  0  0  0
109110  2  0  0  0  0
110111  1  0  0  0  0
111112  1  0  0  0  0
112113  2  0  0  0  0
113114  1  0  0  0  0
114115  2  0  0  0  0
115116  1  0  0  0  0
115117  1  0  0  0  0
117118  2  0  0  0  0
111119  1  0  0  0  0
119120  2  0  0  0  0
120121  1  0  0  0  0
121122  2  0  0  0  0
122123  1  0  0  0  0
122124  1  0  0  0  0
124125  2  0  0  0  0
110126  1  0  0  0  0
126127  1  0  0  0  0
127128  1  0  0  0  0
128129  2  0  0  0  0
129130  1  0  0  0  0
130131  1  0  0  0  0
131132  2  0  0  0  0
132133  1  0  0  0  0
133134  2  0  0  0  0
134135  1  0  0  0  0
134136  1  0  0  0  0
136137  2  0  0  0  0
130138  1  0  0  0  0
138139  2  0  0  0  0
139140  1  0  0  0  0
140141  2  0  0  0  0
141142  1  0  0  0  0
141143  1  0  0  0  0
143144  2  0  0  0  0
129145  1  0  0  0  0
145146  1  0  0  0  0
128147  1  0  0  0  0
147148  2  0  0  0  0
148149  1  0  0  0  0
149150  2  0  0  0  0
149151  1  0  0  0  0
151152  1  0  0  0  0
152153  1  0  0  0  0
153154  1  0  0  0  0
153155  2  0  0  0  0
155156  1  0  0  0  0
156157  1  0  0  0  0
157158  2  0  0  0  0
158159  1  0  0  0  0
159160  3  0  0  0  0
158161  1  0  0  0  0
161162  3  0  0  0  0
 11  2  1  0  0  0  0
 23 17  1  0  0  0  0
 61 24  1  0  0  0  0
104 62  1  0  0  0  0
146109  1  0  0  0  0
157148  1  0  0  0  0
 10  5  1  0  0  0  0
 22 18  1  0  0  0  0
 33 27  1  0  0  0  0
 40 34  1  0  0  0  0
 60 41  2  0  0  0  0
 71 64  1  0  0  0  0
103 72  2  0  0  0  0
118112  1  0  0  0  0
125119  1  0  0  0  0
145126  2  0  0  0  0
156151  2  0  0  0  0
 23  7  1  0  0  0  0
 52 46  1  0  0  0  0
 59 53  1  0  0  0  0
102 74  2  0  0  0  0
137131  1  0  0  0  0
144138  1  0  0  0  0
100 75  2  0  0  0  0
 80 76  2  0  0  0  0
 99 81  2  0  0  0  0
 97 82  2  0  0  0  0
 96 84  2  0  0  0  0
 93 86  1  0  0  0  0
  1163  1  0  0  0  0
  6164  1  0  0  0  0
  9165  1  0  0  0  0
 17166  1  0  0  0  0
 18167  1  0  0  0  0
 19168  1  0  0  0  0
 20169  1  0  0  0  0
 21170  1  0  0  0  0
 22171  1  0  0  0  0
 22172  1  0  0  0  0
 23173  1  0  0  0  0
 28174  1  0  0  0  0
 29175  1  0  0  0  0
 31176  1  0  0  0  0
 31177  1  0  0  0  0
 31178  1  0  0  0  0
 32179  1  0  0  0  0
 33180  1  0  0  0  0
 35181  1  0  0  0  0
 36182  1  0  0  0  0
 38183  1  0  0  0  0
 38184  1  0  0  0  0
 38185  1  0  0  0  0
 39186  1  0  0  0  0
 40187  1  0  0  0  0
 47188  1  0  0  0  0
 48189  1  0  0  0  0
 50190  1  0  0  0  0
 50191  1  0  0  0  0
 50192  1  0  0  0  0
 51193  1  0  0  0  0
 52194  1  0  0  0  0
 54195  1  0  0  0  0
 55196  1  0  0  0  0
 57197  1  0  0  0  0
 57198  1  0  0  0  0
 57199  1  0  0  0  0
 58200  1  0  0  0  0
 59201  1  0  0  0  0
 65202  1  0  0  0  0
 66203  1  0  0  0  0
 67204  1  0  0  0  0
 69205  1  0  0  0  0
 69206  1  0  0  0  0
 70207  1  0  0  0  0
 70208  1  0  0  0  0
 70209  1  0  0  0  0
 71210  1  0  0  0  0
 87211  1  0  0  0  0
 88212  1  0  0  0  0
 89213  1  0  0  0  0
 91214  1  0  0  0  0
 91215  1  0  0  0  0
 92216  1  0  0  0  0
 92217  1  0  0  0  0
 92218  1  0  0  0  0
 93219  1  0  0  0  0
105220  1  0  0  0  0
105221  1  0  0  0  0
106222  1  0  0  0  0
106223  1  0  0  0  0
106224  1  0  0  0  0
107225  1  0  0  0  0
107226  1  0  0  0  0
108227  1  0  0  0  0
108228  1  0  0  0  0
108229  1  0  0  0  0
113230  1  0  0  0  0
114231  1  0  0  0  0
116232  1  0  0  0  0
116233  1  0  0  0  0
116234  1  0  0  0  0
117235  1  0  0  0  0
118236  1  0  0  0  0
120237  1  0  0  0  0
121238  1  0  0  0  0
123239  1  0  0  0  0
123240  1  0  0  0  0
123241  1  0  0  0  0
124242  1  0  0  0  0
125243  1  0  0  0  0
132244  1  0  0  0  0
133245  1  0  0  0  0
135246  1  0  0  0  0
135247  1  0  0  0  0
135248  1  0  0  0  0
136249  1  0  0  0  0
137250  1  0  0  0  0
139251  1  0  0  0  0
140252  1  0  0  0  0
142253  1  0  0  0  0
142254  1  0  0  0  0
142255  1  0  0  0  0
143256  1  0  0  0  0
144257  1  0  0  0  0
147258  1  0  0  0  0
154259  1  0  0  0  0
154260  1  0  0  0  0
154261  1  0  0  0  0
155262  1  0  0  0  0
M  END
