
  xtb     02222202103D
 energy: -323.617555491929 gnorm: 0.000487382291 xtb: 6.4.1 (unknown)
204227  0     0  0            999 V2000
   -6.1342   -3.0384   -8.5130 C   0  0  0  0  0  0  0  0  0  0  0  0
   -6.1815   -4.4047   -8.5686 C   0  0  0  0  0  0  0  0  0  0  0  0
   -6.3424   -5.0944   -9.8694 C   0  0  0  0  0  0  0  0  0  0  0  0
   -6.6475   -4.5890  -10.9292 O   0  0  0  0  0  0  0  0  0  0  0  0
   -6.0005   -6.5092   -9.6061 C   0  0  0  0  0  0  0  0  0  0  0  0
   -5.8663   -7.5386  -10.5350 C   0  0  0  0  0  0  0  0  0  0  0  0
   -5.4959   -8.7440   -9.9869 C   0  0  0  0  0  0  0  0  0  0  0  0
   -5.2587   -8.9147   -8.6171 C   0  0  0  0  0  0  0  0  0  0  0  0
   -5.3917   -7.9107   -7.6873 C   0  0  0  0  0  0  0  0  0  0  0  0
   -5.7859   -6.6835   -8.2235 C   0  0  0  0  0  0  0  0  0  0  0  0
   -6.0525   -5.4139   -7.5502 C   0  0  0  0  0  0  0  0  0  0  0  0
   -6.4097   -5.2843   -6.2291 C   0  0  0  0  0  0  0  0  0  0  0  0
   -6.9067   -4.0905   -5.6727 C   0  0  0  0  0  0  0  0  0  0  0  0
   -7.3649   -3.1514   -5.1935 N   0  0  0  0  0  0  0  0  0  0  0  0
   -6.4532   -6.3594   -5.3250 C   0  0  0  0  0  0  0  0  0  0  0  0
   -6.5201   -7.2061   -4.5506 N   0  0  0  0  0  0  0  0  0  0  0  0
   -4.9107  -10.3738   -8.7763 C   0  0  0  0  0  0  0  0  0  0  0  0
   -5.9959  -11.3880   -8.3576 C   0  0  0  0  0  0  0  0  0  0  0  0
   -5.5866  -12.6646   -9.0557 C   0  0  0  0  0  0  0  0  0  0  0  0
   -5.8157  -12.5059  -10.3530 C   0  0  0  0  0  0  0  0  0  0  0  0
   -6.3844  -11.1196  -10.5533 C   0  0  0  0  0  0  0  0  0  0  0  0
   -7.1732  -10.9667   -9.2465 C   0  0  0  0  0  0  0  0  0  0  0  0
   -5.1810  -10.1860  -10.3036 C   0  0  0  0  0  0  0  0  0  0  0  0
   -5.5661   -2.2522   -7.4969 C   0  0  0  0  0  0  0  0  0  0  0  0
   -5.8650   -0.9283   -7.1388 C   0  0  0  0  0  0  0  0  0  0  0  0
   -6.8037   -0.1241   -7.7241 N   0  0  0  0  0  0  0  0  0  0  0  0
   -7.0324   -0.1392   -9.1079 C   0  0  0  0  0  0  0  0  0  0  0  0
   -5.9639   -0.2393   -9.9976 C   0  0  0  0  0  0  0  0  0  0  0  0
   -6.1954   -0.2595  -11.3579 C   0  0  0  0  0  0  0  0  0  0  0  0
   -7.4866   -0.1724  -11.8671 C   0  0  0  0  0  0  0  0  0  0  0  0
   -7.7263   -0.2343  -13.3428 C   0  0  0  0  0  0  0  0  0  0  0  0
   -8.5435   -0.0546  -10.9721 C   0  0  0  0  0  0  0  0  0  0  0  0
   -8.3271   -0.0384   -9.6083 C   0  0  0  0  0  0  0  0  0  0  0  0
   -7.5522    0.7495   -6.9099 C   0  0  0  0  0  0  0  0  0  0  0  0
   -8.0424    0.3100   -5.6825 C   0  0  0  0  0  0  0  0  0  0  0  0
   -8.7626    1.1749   -4.8842 C   0  0  0  0  0  0  0  0  0  0  0  0
   -9.0202    2.4812   -5.2870 C   0  0  0  0  0  0  0  0  0  0  0  0
   -9.7857    3.4117   -4.3975 C   0  0  0  0  0  0  0  0  0  0  0  0
   -8.5402    2.9007   -6.5213 C   0  0  0  0  0  0  0  0  0  0  0  0
   -7.8104    2.0498   -7.3286 C   0  0  0  0  0  0  0  0  0  0  0  0
   -5.1180   -0.5365   -6.0021 C   0  0  0  0  0  0  0  0  0  0  0  0
   -4.9863    0.9377   -5.1037 S   0  0  0  0  0  0  0  0  0  0  0  0
   -3.7432    0.2277   -4.0870 C   0  0  0  0  0  0  0  0  0  0  0  0
   -3.4135   -1.0651   -4.4667 C   0  0  0  0  0  0  0  0  0  0  0  0
   -2.3976   -1.8366   -3.9345 N   0  0  0  0  0  0  0  0  0  0  0  0
   -2.5938   -3.2285   -3.8668 C   0  0  0  0  0  0  0  0  0  0  0  0
   -3.8161   -3.7404   -3.4411 C   0  0  0  0  0  0  0  0  0  0  0  0
   -4.0149   -5.1060   -3.3897 C   0  0  0  0  0  0  0  0  0  0  0  0
   -3.0115   -5.9909   -3.7647 C   0  0  0  0  0  0  0  0  0  0  0  0
   -3.2270   -7.4710   -3.6931 C   0  0  0  0  0  0  0  0  0  0  0  0
   -1.7932   -5.4685   -4.1858 C   0  0  0  0  0  0  0  0  0  0  0  0
   -1.5795   -4.1059   -4.2379 C   0  0  0  0  0  0  0  0  0  0  0  0
   -1.1946   -1.2635   -3.5085 C   0  0  0  0  0  0  0  0  0  0  0  0
   -0.5026   -1.8040   -2.4270 C   0  0  0  0  0  0  0  0  0  0  0  0
    0.6387   -1.1879   -1.9527 C   0  0  0  0  0  0  0  0  0  0  0  0
    1.1129   -0.0141   -2.5233 C   0  0  0  0  0  0  0  0  0  0  0  0
    2.3028    0.7045   -1.9639 C   0  0  0  0  0  0  0  0  0  0  0  0
    0.4422    0.4950   -3.6297 C   0  0  0  0  0  0  0  0  0  0  0  0
   -0.6854   -0.1231   -4.1286 C   0  0  0  0  0  0  0  0  0  0  0  0
   -4.2243   -1.4898   -5.5458 C   0  0  0  0  0  0  0  0  0  0  0  0
   -4.2944   -2.9377   -6.4769 S   0  0  0  0  0  0  0  0  0  0  0  0
   -3.1561    0.9979   -3.0340 C   0  0  0  0  0  0  0  0  0  0  0  0
   -2.7297    2.2997   -3.0908 C   0  0  0  0  0  0  0  0  0  0  0  0
   -2.0846    2.6882   -1.9114 C   0  0  0  0  0  0  0  0  0  0  0  0
   -1.2043    4.1107   -1.4467 S   0  0  0  0  0  0  0  0  0  0  0  0
   -0.7995    3.3461    0.0558 C   0  0  0  0  0  0  0  0  0  0  0  0
    0.0387    3.6789    1.1654 C   0  0  0  0  0  0  0  0  0  0  0  0
    0.0130    2.5718    2.0467 C   0  0  0  0  0  0  0  0  0  0  0  0
   -0.8951    1.4737    1.5158 C   0  0  0  0  0  0  0  0  0  0  0  0
   -2.0636    1.2923    2.5049 C   0  0  0  0  0  0  0  0  0  0  0  0
   -3.1123    0.2741    2.0798 C   0  0  0  0  0  0  0  0  0  0  0  0
   -0.1469    0.1680    1.1818 C   0  0  0  0  0  0  0  0  0  0  0  0
    0.4011   -0.6186    2.3647 C   0  0  0  0  0  0  0  0  0  0  0  0
   -1.3401    2.0852    0.2130 C   0  0  0  0  0  0  0  0  0  0  0  0
   -2.0548    1.6968   -0.9235 C   0  0  0  0  0  0  0  0  0  0  0  0
   -2.8472    0.2630   -1.4689 S   0  0  0  0  0  0  0  0  0  0  0  0
    0.7273    2.6094    3.2221 C   0  0  0  0  0  0  0  0  0  0  0  0
    1.5044    3.7381    3.4662 C   0  0  0  0  0  0  0  0  0  0  0  0
    2.4115    4.0367    4.5303 C   0  0  0  0  0  0  0  0  0  0  0  0
    2.9997    5.2749    4.3413 C   0  0  0  0  0  0  0  0  0  0  0  0
    2.4543    5.9307    3.1025 C   0  0  0  0  0  0  0  0  0  0  0  0
    1.5414    4.8350    2.5778 C   0  0  0  0  0  0  0  0  0  0  0  0
    0.7929    4.8201    1.4240 C   0  0  0  0  0  0  0  0  0  0  0  0
    1.5732    7.1558    3.4324 C   0  0  0  0  0  0  0  0  0  0  0  0
    2.2964    8.3038    4.1229 C   0  0  0  0  0  0  0  0  0  0  0  0
    3.5754    6.2843    2.1134 C   0  0  0  0  0  0  0  0  0  0  0  0
    4.3699    5.0621    1.6676 C   0  0  0  0  0  0  0  0  0  0  0  0
    3.9799    5.5182    5.3043 C   0  0  0  0  0  0  0  0  0  0  0  0
    4.1123    4.4634    6.2220 C   0  0  0  0  0  0  0  0  0  0  0  0
    3.0078    3.1621    5.8997 S   0  0  0  0  0  0  0  0  0  0  0  0
    5.1186    4.6528    7.1684 C   0  0  0  0  0  0  0  0  0  0  0  0
    5.7743    5.8504    6.9900 C   0  0  0  0  0  0  0  0  0  0  0  0
    5.1311    6.7641    5.6336 S   0  0  0  0  0  0  0  0  0  0  0  0
    6.8668    6.3585    7.7362 C   0  0  0  0  0  0  0  0  0  0  0  0
    7.4985    7.5714    7.5874 C   0  0  0  0  0  0  0  0  0  0  0  0
    8.5522    7.7653    8.4894 C   0  0  0  0  0  0  0  0  0  0  0  0
    9.5583    9.1905    8.5839 S   0  0  0  0  0  0  0  0  0  0  0  0
    9.5421    9.7884    6.8554 C   0  0  0  0  0  0  0  0  0  0  0  0
   10.2024    8.7979    5.9176 C   0  0  0  0  0  0  0  0  0  0  0  0
    8.7689    6.6719    9.3246 C   0  0  0  0  0  0  0  0  0  0  0  0
    7.5878    5.4208    9.0081 S   0  0  0  0  0  0  0  0  0  0  0  0
    9.7502    6.5410   10.3294 C   0  0  0  0  0  0  0  0  0  0  0  0
   10.2681    5.3853   10.8326 C   0  0  0  0  0  0  0  0  0  0  0  0
   10.9155    5.3530   12.1686 C   0  0  0  0  0  0  0  0  0  0  0  0
   11.2648    6.3027   12.8331 O   0  0  0  0  0  0  0  0  0  0  0  0
   10.9840    3.9210   12.5299 C   0  0  0  0  0  0  0  0  0  0  0  0
   11.3943    3.3752   13.7445 C   0  0  0  0  0  0  0  0  0  0  0  0
   11.3247    2.0033   13.7947 C   0  0  0  0  0  0  0  0  0  0  0  0
   10.8780    1.2249   12.7184 C   0  0  0  0  0  0  0  0  0  0  0  0
   10.4808    1.7468   11.5103 C   0  0  0  0  0  0  0  0  0  0  0  0
   10.5464    3.1404   11.4393 C   0  0  0  0  0  0  0  0  0  0  0  0
   10.2464    4.0336   10.3237 C   0  0  0  0  0  0  0  0  0  0  0  0
   10.2412    3.6772    8.9978 C   0  0  0  0  0  0  0  0  0  0  0  0
   10.3156    2.3506    8.5331 C   0  0  0  0  0  0  0  0  0  0  0  0
   10.3546    1.2889    8.0965 N   0  0  0  0  0  0  0  0  0  0  0  0
   10.2569    4.6152    7.9458 C   0  0  0  0  0  0  0  0  0  0  0  0
   10.3220    5.3474    7.0629 N   0  0  0  0  0  0  0  0  0  0  0  0
   11.0515   -0.0677   13.4758 C   0  0  0  0  0  0  0  0  0  0  0  0
    9.7685   -0.7165   14.0371 C   0  0  0  0  0  0  0  0  0  0  0  0
   10.2773   -1.6608   15.1021 C   0  0  0  0  0  0  0  0  0  0  0  0
   10.7058   -0.9265   16.1208 C   0  0  0  0  0  0  0  0  0  0  0  0
   10.4929    0.5265   15.7618 C   0  0  0  0  0  0  0  0  0  0  0  0
    9.2137    0.4063   14.9233 C   0  0  0  0  0  0  0  0  0  0  0  0
   11.5542    0.7988   14.6748 C   0  0  0  0  0  0  0  0  0  0  0  0
   -6.5150   -2.5294   -9.3918 H   0  0  0  0  0  0  0  0  0  0  0  0
   -6.0440   -7.3661  -11.5850 H   0  0  0  0  0  0  0  0  0  0  0  0
   -5.1928   -8.0441   -6.6366 H   0  0  0  0  0  0  0  0  0  0  0  0
   -3.9111  -10.6629   -8.4567 H   0  0  0  0  0  0  0  0  0  0  0  0
   -6.1731  -11.4487   -7.2873 H   0  0  0  0  0  0  0  0  0  0  0  0
   -5.1352  -13.5029   -8.5580 H   0  0  0  0  0  0  0  0  0  0  0  0
   -5.5937  -13.1854  -11.1551 H   0  0  0  0  0  0  0  0  0  0  0  0
   -6.9160  -10.9391  -11.4839 H   0  0  0  0  0  0  0  0  0  0  0  0
   -8.0063  -11.6649   -9.1843 H   0  0  0  0  0  0  0  0  0  0  0  0
   -7.5304   -9.9559   -9.0590 H   0  0  0  0  0  0  0  0  0  0  0  0
   -4.3620  -10.3519  -11.0015 H   0  0  0  0  0  0  0  0  0  0  0  0
   -4.9562   -0.3036   -9.6131 H   0  0  0  0  0  0  0  0  0  0  0  0
   -5.3600   -0.3445  -12.0371 H   0  0  0  0  0  0  0  0  0  0  0  0
   -8.6951    0.1868  -13.5997 H   0  0  0  0  0  0  0  0  0  0  0  0
   -7.7077   -1.2734  -13.6724 H   0  0  0  0  0  0  0  0  0  0  0  0
   -6.9504    0.3021  -13.8848 H   0  0  0  0  0  0  0  0  0  0  0  0
   -9.5541    0.0139  -11.3473 H   0  0  0  0  0  0  0  0  0  0  0  0
   -9.1571    0.0411   -8.9222 H   0  0  0  0  0  0  0  0  0  0  0  0
   -7.8663   -0.7084   -5.3689 H   0  0  0  0  0  0  0  0  0  0  0  0
   -9.1397    0.8273   -3.9336 H   0  0  0  0  0  0  0  0  0  0  0  0
  -10.6427    2.9058   -3.9573 H   0  0  0  0  0  0  0  0  0  0  0  0
   -9.1479    3.7560   -3.5829 H   0  0  0  0  0  0  0  0  0  0  0  0
  -10.1339    4.2814   -4.9489 H   0  0  0  0  0  0  0  0  0  0  0  0
   -8.7325    3.9103   -6.8547 H   0  0  0  0  0  0  0  0  0  0  0  0
   -7.4348    2.3884   -8.2831 H   0  0  0  0  0  0  0  0  0  0  0  0
   -4.6065   -3.0646   -3.1473 H   0  0  0  0  0  0  0  0  0  0  0  0
   -4.9644   -5.4908   -3.0487 H   0  0  0  0  0  0  0  0  0  0  0  0
   -2.8369   -7.8593   -2.7516 H   0  0  0  0  0  0  0  0  0  0  0  0
   -2.7070   -7.9769   -4.5045 H   0  0  0  0  0  0  0  0  0  0  0  0
   -4.2872   -7.7076   -3.7434 H   0  0  0  0  0  0  0  0  0  0  0  0
   -1.0012   -6.1404   -4.4844 H   0  0  0  0  0  0  0  0  0  0  0  0
   -0.6307   -3.7114   -4.5712 H   0  0  0  0  0  0  0  0  0  0  0  0
   -0.8789   -2.6958   -1.9487 H   0  0  0  0  0  0  0  0  0  0  0  0
    1.1573   -1.6197   -1.1091 H   0  0  0  0  0  0  0  0  0  0  0  0
    2.8080    0.1005   -1.2141 H   0  0  0  0  0  0  0  0  0  0  0  0
    3.0122    0.9482   -2.7529 H   0  0  0  0  0  0  0  0  0  0  0  0
    1.9902    1.6413   -1.4993 H   0  0  0  0  0  0  0  0  0  0  0  0
    0.8094    1.3921   -4.1074 H   0  0  0  0  0  0  0  0  0  0  0  0
   -1.1833    0.2822   -4.9972 H   0  0  0  0  0  0  0  0  0  0  0  0
   -2.8358    2.9159   -3.9648 H   0  0  0  0  0  0  0  0  0  0  0  0
   -2.5421    2.2676    2.6298 H   0  0  0  0  0  0  0  0  0  0  0  0
   -1.6505    1.0079    3.4739 H   0  0  0  0  0  0  0  0  0  0  0  0
   -2.6845   -0.7193    1.9805 H   0  0  0  0  0  0  0  0  0  0  0  0
   -3.8999    0.2315    2.8291 H   0  0  0  0  0  0  0  0  0  0  0  0
   -3.5625    0.5511    1.1310 H   0  0  0  0  0  0  0  0  0  0  0  0
    0.6800    0.4289    0.5177 H   0  0  0  0  0  0  0  0  0  0  0  0
   -0.8309   -0.4648    0.6124 H   0  0  0  0  0  0  0  0  0  0  0  0
    1.1876   -0.0673    2.8719 H   0  0  0  0  0  0  0  0  0  0  0  0
   -0.3796   -0.8604    3.0804 H   0  0  0  0  0  0  0  0  0  0  0  0
    0.8268   -1.5531    2.0047 H   0  0  0  0  0  0  0  0  0  0  0  0
    0.7070    1.8052    3.9403 H   0  0  0  0  0  0  0  0  0  0  0  0
    0.7905    5.6449    0.7275 H   0  0  0  0  0  0  0  0  0  0  0  0
    1.1361    7.5138    2.4980 H   0  0  0  0  0  0  0  0  0  0  0  0
    0.7537    6.8163    4.0713 H   0  0  0  0  0  0  0  0  0  0  0  0
    1.5926    9.1107    4.3145 H   0  0  0  0  0  0  0  0  0  0  0  0
    2.7132    7.9860    5.0742 H   0  0  0  0  0  0  0  0  0  0  0  0
    3.0998    8.6956    3.5056 H   0  0  0  0  0  0  0  0  0  0  0  0
    4.2532    6.9926    2.5924 H   0  0  0  0  0  0  0  0  0  0  0  0
    3.1329    6.7693    1.2413 H   0  0  0  0  0  0  0  0  0  0  0  0
    5.1537    5.3591    0.9751 H   0  0  0  0  0  0  0  0  0  0  0  0
    3.7244    4.3412    1.1709 H   0  0  0  0  0  0  0  0  0  0  0  0
    4.8358    4.5732    2.5203 H   0  0  0  0  0  0  0  0  0  0  0  0
    5.3742    3.9543    7.9444 H   0  0  0  0  0  0  0  0  0  0  0  0
    7.1807    8.2885    6.8525 H   0  0  0  0  0  0  0  0  0  0  0  0
    8.5138   10.0095    6.5730 H   0  0  0  0  0  0  0  0  0  0  0  0
   10.1009   10.7231    6.9015 H   0  0  0  0  0  0  0  0  0  0  0  0
   10.1874    9.1875    4.9017 H   0  0  0  0  0  0  0  0  0  0  0  0
    9.6888    7.8391    5.9319 H   0  0  0  0  0  0  0  0  0  0  0  0
   11.2352    8.6298    6.2125 H   0  0  0  0  0  0  0  0  0  0  0  0
   10.0876    7.4626   10.7931 H   0  0  0  0  0  0  0  0  0  0  0  0
   11.7346    4.0072   14.5498 H   0  0  0  0  0  0  0  0  0  0  0  0
   10.1367    1.1423   10.6870 H   0  0  0  0  0  0  0  0  0  0  0  0
   11.7341   -0.7898   13.0317 H   0  0  0  0  0  0  0  0  0  0  0  0
    9.1051   -1.1370   13.2862 H   0  0  0  0  0  0  0  0  0  0  0  0
   10.3240   -2.7277   14.9851 H   0  0  0  0  0  0  0  0  0  0  0  0
   11.1820   -1.2577   17.0250 H   0  0  0  0  0  0  0  0  0  0  0  0
   10.4886    1.2377   16.5834 H   0  0  0  0  0  0  0  0  0  0  0  0
    8.3616    0.0791   15.5169 H   0  0  0  0  0  0  0  0  0  0  0  0
    8.9527    1.3127   14.3802 H   0  0  0  0  0  0  0  0  0  0  0  0
   12.5735    0.6554   15.0286 H   0  0  0  0  0  0  0  0  0  0  0  0
  1  2  2  0  0  0  0
  2  3  1  0  0  0  0
  3  4  2  0  0  0  0
  3  5  1  0  0  0  0
  5  6  2  0  0  0  0
  6  7  1  0  0  0  0
  7  8  2  0  0  0  0
  8  9  1  0  0  0  0
  9 10  2  0  0  0  0
 10 11  1  0  0  0  0
 11 12  2  0  0  0  0
 12 13  1  0  0  0  0
 13 14  3  0  0  0  0
 12 15  1  0  0  0  0
 15 16  3  0  0  0  0
  8 17  1  0  0  0  0
 17 18  1  0  0  0  0
 18 19  1  0  0  0  0
 19 20  2  0  0  0  0
 20 21  1  0  0  0  0
 21 22  1  0  0  0  0
 21 23  1  0  0  0  0
  1 24  1  0  0  0  0
 24 25  2  0  0  0  0
 25 26  1  0  0  0  0
 26 27  1  0  0  0  0
 27 28  2  0  0  0  0
 28 29  1  0  0  0  0
 29 30  2  0  0  0  0
 30 31  1  0  0  0  0
 30 32  1  0  0  0  0
 32 33  2  0  0  0  0
 26 34  1  0  0  0  0
 34 35  2  0  0  0  0
 35 36  1  0  0  0  0
 36 37  2  0  0  0  0
 37 38  1  0  0  0  0
 37 39  1  0  0  0  0
 39 40  2  0  0  0  0
 25 41  1  0  0  0  0
 41 42  1  0  0  0  0
 42 43  1  0  0  0  0
 43 44  2  0  0  0  0
 44 45  1  0  0  0  0
 45 46  1  0  0  0  0
 46 47  2  0  0  0  0
 47 48  1  0  0  0  0
 48 49  2  0  0  0  0
 49 50  1  0  0  0  0
 49 51  1  0  0  0  0
 51 52  2  0  0  0  0
 45 53  1  0  0  0  0
 53 54  2  0  0  0  0
 54 55  1  0  0  0  0
 55 56  2  0  0  0  0
 56 57  1  0  0  0  0
 56 58  1  0  0  0  0
 58 59  2  0  0  0  0
 44 60  1  0  0  0  0
 60 61  1  0  0  0  0
 43 62  1  0  0  0  0
 62 63  2  0  0  0  0
 63 64  1  0  0  0  0
 64 65  1  0  0  0  0
 65 66  1  0  0  0  0
 66 67  1  0  0  0  0
 67 68  2  0  0  0  0
 68 69  1  0  0  0  0
 69 70  1  0  0  0  0
 70 71  1  0  0  0  0
 69 72  1  0  0  0  0
 72 73  1  0  0  0  0
 69 74  1  0  0  0  0
 74 75  1  0  0  0  0
 75 76  1  0  0  0  0
 68 77  1  0  0  0  0
 77 78  2  0  0  0  0
 78 79  1  0  0  0  0
 79 80  2  0  0  0  0
 80 81  1  0  0  0  0
 81 82  1  0  0  0  0
 82 83  2  0  0  0  0
 81 84  1  0  0  0  0
 84 85  1  0  0  0  0
 81 86  1  0  0  0  0
 86 87  1  0  0  0  0
 80 88  1  0  0  0  0
 88 89  2  0  0  0  0
 89 90  1  0  0  0  0
 89 91  1  0  0  0  0
 91 92  2  0  0  0  0
 92 93  1  0  0  0  0
 92 94  1  0  0  0  0
 94 95  2  0  0  0  0
 95 96  1  0  0  0  0
 96 97  1  0  0  0  0
 97 98  1  0  0  0  0
 98 99  1  0  0  0  0
 96100  2  0  0  0  0
100101  1  0  0  0  0
100102  1  0  0  0  0
102103  2  0  0  0  0
103104  1  0  0  0  0
104105  2  0  0  0  0
104106  1  0  0  0  0
106107  2  0  0  0  0
107108  1  0  0  0  0
108109  2  0  0  0  0
109110  1  0  0  0  0
110111  2  0  0  0  0
111112  1  0  0  0  0
112113  2  0  0  0  0
113114  1  0  0  0  0
114115  3  0  0  0  0
113116  1  0  0  0  0
116117  3  0  0  0  0
109118  1  0  0  0  0
118119  1  0  0  0  0
119120  1  0  0  0  0
120121  2  0  0  0  0
121122  1  0  0  0  0
122123  1  0  0  0  0
122124  1  0  0  0  0
 11  2  1  0  0  0  0
 23 17  1  0  0  0  0
 61 24  1  0  0  0  0
 76 62  1  0  0  0  0
 82 78  1  0  0  0  0
 93 88  1  0  0  0  0
101 94  1  0  0  0  0
112103  1  0  0  0  0
124118  1  0  0  0  0
 10  5  1  0  0  0  0
 22 18  1  0  0  0  0
 33 27  1  0  0  0  0
 40 34  1  0  0  0  0
 60 41  2  0  0  0  0
 75 64  2  0  0  0  0
 90 79  1  0  0  0  0
111106  1  0  0  0  0
123119  1  0  0  0  0
 23  7  1  0  0  0  0
 52 46  1  0  0  0  0
 59 53  1  0  0  0  0
 74 66  2  0  0  0  0
124108  1  0  0  0  0
 83 67  1  0  0  0  0
  1125  1  0  0  0  0
  6126  1  0  0  0  0
  9127  1  0  0  0  0
 17128  1  0  0  0  0
 18129  1  0  0  0  0
 19130  1  0  0  0  0
 20131  1  0  0  0  0
 21132  1  0  0  0  0
 22133  1  0  0  0  0
 22134  1  0  0  0  0
 23135  1  0  0  0  0
 28136  1  0  0  0  0
 29137  1  0  0  0  0
 31138  1  0  0  0  0
 31139  1  0  0  0  0
 31140  1  0  0  0  0
 32141  1  0  0  0  0
 33142  1  0  0  0  0
 35143  1  0  0  0  0
 36144  1  0  0  0  0
 38145  1  0  0  0  0
 38146  1  0  0  0  0
 38147  1  0  0  0  0
 39148  1  0  0  0  0
 40149  1  0  0  0  0
 47150  1  0  0  0  0
 48151  1  0  0  0  0
 50152  1  0  0  0  0
 50153  1  0  0  0  0
 50154  1  0  0  0  0
 51155  1  0  0  0  0
 52156  1  0  0  0  0
 54157  1  0  0  0  0
 55158  1  0  0  0  0
 57159  1  0  0  0  0
 57160  1  0  0  0  0
 57161  1  0  0  0  0
 58162  1  0  0  0  0
 59163  1  0  0  0  0
 63164  1  0  0  0  0
 70165  1  0  0  0  0
 70166  1  0  0  0  0
 71167  1  0  0  0  0
 71168  1  0  0  0  0
 71169  1  0  0  0  0
 72170  1  0  0  0  0
 72171  1  0  0  0  0
 73172  1  0  0  0  0
 73173  1  0  0  0  0
 73174  1  0  0  0  0
 77175  1  0  0  0  0
 83176  1  0  0  0  0
 84177  1  0  0  0  0
 84178  1  0  0  0  0
 85179  1  0  0  0  0
 85180  1  0  0  0  0
 85181  1  0  0  0  0
 86182  1  0  0  0  0
 86183  1  0  0  0  0
 87184  1  0  0  0  0
 87185  1  0  0  0  0
 87186  1  0  0  0  0
 91187  1  0  0  0  0
 95188  1  0  0  0  0
 98189  1  0  0  0  0
 98190  1  0  0  0  0
 99191  1  0  0  0  0
 99192  1  0  0  0  0
 99193  1  0  0  0  0
102194  1  0  0  0  0
107195  1  0  0  0  0
110196  1  0  0  0  0
118197  1  0  0  0  0
119198  1  0  0  0  0
120199  1  0  0  0  0
121200  1  0  0  0  0
122201  1  0  0  0  0
123202  1  0  0  0  0
123203  1  0  0  0  0
124204  1  0  0  0  0
M  END
