245

C          2.36170      -10.22340        5.61710
C          1.45500      -10.35540        6.61690
C          1.32390      -11.64790        7.34800
O          2.10100      -12.57490        7.32380
C          0.02230      -11.56740        8.03770
C         -0.63430      -12.58540        8.72790
C         -1.85500      -12.21680        9.24000
C         -2.38920      -10.92990        9.08400
C         -1.75030       -9.91250        8.41680
C         -0.50830      -10.26910        7.88560
C          0.43950       -9.46330        7.12520
C          0.50680       -8.09540        7.12480
C          1.55310       -7.37410        6.51540
N          2.40890       -6.75340        6.06790
C         -0.38040       -7.26520        7.83750
N         -1.05570       -6.54460        8.42300
C         -3.65060      -11.27540        9.83570
C         -4.91280      -11.53000        8.98460
C         -5.82660      -12.29740        9.91260
C         -5.32110      -13.51530       10.06010
C         -4.05720      -13.59140        9.23440
C         -4.44650      -12.67050        8.07060
C         -3.05550      -12.70940       10.01030
C          2.31900       -9.33280        4.50880
C          1.20560       -8.91160        3.79390
N         -0.12750       -9.25230        4.10410
C         -0.63630      -10.35450        3.38410
C          0.08620      -11.54500        3.34510
C         -0.40230      -12.63340        2.65090
C         -1.61540      -12.57160        1.97490
C         -2.12800      -13.76380        1.22620
C         -2.32090      -11.37590        2.00410
C         -1.84020      -10.27720        2.68940
C         -0.99690       -8.28180        4.61370
C         -0.69150       -6.92270        4.58220
C         -1.55920       -6.00010        5.13570
C         -2.74790       -6.39360        5.73380
C         -3.65530       -5.39020        6.37280
C         -3.04330       -7.75230        5.76780
C         -2.18390       -8.68560        5.22740
C          1.58710       -8.23850        2.61690
S          0.70770       -7.44830        1.35890
C          2.21340       -6.95050        0.59780
C          3.33330       -7.35010        1.31220
N          4.63900       -7.03780        0.98570
C          4.92420       -5.82570        0.32270
C          5.67770       -5.82190       -0.84720
C          5.91060       -4.63650       -1.51440
C          5.41530       -3.43000       -1.03130
C          5.64190       -2.15520       -1.78560
C          4.69390       -3.44200        0.15510
C          4.44680       -4.62280        0.82920
C          5.68380       -7.92840        1.26880
C          5.49390       -9.30790        1.23050
C          6.54070      -10.16180        1.52060
C          7.79940       -9.67400        1.84220
C          8.92610      -10.60160        2.17930
C          7.98440       -8.29570        1.86240
C          6.94660       -7.43120        1.58420
C          2.95930       -8.11090        2.44860
S          3.82090       -8.88470        3.72600
C          2.15470       -6.03990       -0.51890
C          2.58420       -6.14760       -1.82230
C          3.01830       -7.36460       -2.51220
C          3.70250       -8.39820       -1.87930
C          4.10040       -9.51460       -2.58930
C          3.81870       -9.62660       -3.93900
C          3.11180       -8.62260       -4.58680
C          2.81690       -8.70170       -6.05700
C          3.82990       -7.87060       -6.84680
C          2.71680       -7.50700       -3.86560
C          2.46170       -4.90120       -2.49340
S          2.97900       -4.35750       -4.07190
C          2.42570       -2.76450       -3.68740
C          2.37870       -1.48400       -4.26230
C          2.88530       -1.00810       -5.48990
C          2.77220        0.38910       -5.78880
N          3.32740        0.70670       -6.94810
S          3.93680       -0.64090       -7.60870
N          3.51740       -1.68010       -6.43980
C          2.08090        1.22320       -4.88490
C          1.73390        2.57970       -4.97670
S          1.94940        3.91620       -6.05360
C          0.99560        4.90640       -4.97420
C          0.57810        6.25080       -5.04080
C          0.83400        7.08130       -6.22000
C         -0.19820        7.78960       -6.83130
C          0.04310        8.48830       -7.99790
C          1.30340        8.47930       -8.57130
C          2.34370        7.77720       -7.97670
C          3.69640        7.69760       -8.62320
C          3.80910        6.40950       -9.44140
C          2.09740        7.08470       -6.80020
C         -0.16390        6.59600       -3.92370
S         -0.38890        5.24540       -2.82080
C          0.54320        4.21640       -3.84730
C          0.96380        2.88000       -3.85220
N          0.83480        1.76950       -3.06020
C          1.52030        0.73060       -3.67220
C          1.75410       -0.62520       -3.31390
N          1.46490       -1.37290       -2.18130
C          1.87170       -2.65940       -2.41270
C          1.90570       -3.88310       -1.72640
S          1.47570       -4.45050       -0.15710
C          1.20280       -0.94540       -0.82560
C          2.30260       -0.02160       -0.30860
C         -0.20780        1.73600       -2.05860
C         -1.37600        0.85620       -2.49660
C         -0.66970        7.86910       -3.53620
C         -0.29500        9.10470       -3.98550
C         -0.98460       10.17230       -3.36810
C         -0.80820       11.55570       -3.58370
C          0.08080       12.07650       -4.60110
C          0.85160       13.20500       -4.54700
C          1.54670       13.42890       -5.74960
F          2.37720       14.47420       -5.91290
C          1.31670       12.51690       -6.73740
C          1.93930       12.43870       -8.08800
C          3.21160       11.58830       -8.04990
S          0.21460       11.31700       -6.16590
C         -1.55600       12.40910       -2.77670
C         -2.47110       11.94510       -1.79370
C         -2.64320       10.55780       -1.57260
C         -3.51960       10.04600       -0.54240
S         -3.64680       10.82590        1.01150
C         -4.75190        9.64210        1.60270
C         -5.30890        9.68830        2.98260
C         -4.53090        8.78360        3.95050
C         -3.09330        9.24650        4.14620
C         -4.97960        8.70920        0.63130
C         -4.29070        8.91470       -0.57620
F         -5.81490        7.66970        0.81170
C         -1.89930        9.71260       -2.38390
S         -1.89850        7.97310       -2.29210
C         -3.16250       12.99760       -1.17010
C         -2.78970       14.24880       -1.59690
S         -1.55850       14.14370       -2.85700
C         -3.15870       15.54260       -1.17420
C         -3.95560       16.00230       -0.15710
C         -4.81570       15.20800        0.71040
O         -5.17460       14.06690        0.48870
N         -5.25900       15.84210        1.86660
C         -6.01920       15.01170        2.79450
C         -5.09440       14.26280        3.74510
C         -5.00630       17.14560        2.18360
S         -5.44060       17.75980        3.65390
N         -4.40560       17.93230        1.24360
C         -4.27010       19.36360        1.49250
C         -5.54960       20.10820        1.13720
C         -3.90460       17.45890        0.03950
O         -3.41500       18.22370       -0.76620
H          3.15720      -10.96290        5.59860
H         -0.19040      -13.56320        8.83050
H         -2.16590       -8.92610        8.29180
H         -3.84960      -10.68160       10.72570
H         -5.32830      -10.64500        8.51040
H         -6.68710      -11.87200       10.39490
H         -5.67520      -14.31020       10.69010
H         -3.69350      -14.58510        8.98690
H         -3.61710      -12.40570        7.41730
H         -5.26120      -13.08100        7.47610
H         -2.85940      -13.07270       11.01730
H          1.02730      -11.62140        3.86800
H          0.16790      -13.55130        2.63830
H         -3.13330      -13.58660        0.85290
H         -2.14290      -14.64170        1.87040
H         -1.47920      -13.98490        0.37890
H         -3.25830      -11.29500        1.47250
H         -2.39560       -9.35100        2.68340
H          0.22510       -6.57990        4.12840
H         -1.30010       -4.95210        5.10330
H         -3.61640       -4.43980        5.84560
H         -3.33380       -5.22030        7.40080
H         -4.68280       -5.74650        6.39030
H         -3.95810       -8.08730        6.23620
H         -2.42100       -9.73870        5.27950
H          6.06400       -6.75250       -1.23540
H          6.47710       -4.64830       -2.43380
H          6.59200       -2.18290       -2.31370
H          5.63740       -1.29780       -1.11560
H          4.85470       -2.01240       -2.52740
H          4.31680       -2.51590        0.56520
H          3.88150       -4.61890        1.75000
H          4.53120       -9.71830        0.96210
H          6.37360      -11.22880        1.48780
H          9.86980      -10.22060        1.79500
H          8.75090      -11.59260        1.76750
H          9.01910      -10.69610        3.26170
H          8.95640       -7.89330        2.10840
H          7.10450       -6.36330        1.61200
H          3.93870       -8.32880       -0.83560
H          4.64170      -10.30050       -2.08250
H          4.14100      -10.49880       -4.48940
H          2.86020       -9.74040       -6.39000
H          1.81210       -8.32110       -6.25240
H          3.79080       -6.82950       -6.53460
H          4.83800       -8.24170       -6.67490
H          3.61720       -7.92340       -7.91190
H          2.14310       -6.74490       -4.37030
H         -1.18690        7.77690       -6.39830
H         -0.76040        9.03420       -8.46920
H          1.47970        9.01620       -9.49220
H          3.85020        8.55690       -9.27860
H          4.47520        7.70630       -7.85780
H          3.66360        5.54080       -8.80340
H          4.78890        6.34000       -9.90770
H          3.05080        6.39090      -10.22110
H          2.90190        6.54210       -6.32550
H          1.17930       -1.85210       -0.21570
H          0.21790       -0.48310       -0.74860
H          2.40060        0.86550       -0.92990
H          2.08270        0.28350        0.71110
H          3.25560       -0.54480       -0.31830
H         -0.55660        2.76490       -1.94000
H          0.19150        1.42130       -1.09470
H         -2.14070        0.84360       -1.72470
H         -1.05030       -0.16360       -2.68800
H         -1.81380        1.24920       -3.41140
H          0.48090        9.23550       -4.71480
H          0.95890       13.83520       -3.68440
H          2.18550       13.44960       -8.42080
H          1.22860       12.00110       -8.79150
H          2.98160       10.58310       -7.70330
H          3.65010       11.52720       -9.04250
H          3.94100       12.03170       -7.37620
H         -5.28400       10.71660        3.34760
H         -6.34910        9.35470        2.94850
H         -5.04830        8.78690        4.91160
H         -4.54080        7.76120        3.56800
H         -2.53730        9.19270        3.21310
H         -3.06820       10.27480        4.50090
H         -2.59150        8.61820        4.87790
H         -4.40540        8.27510       -1.43110
H         -3.94360       12.86180       -0.44800
H         -2.65770       16.34310       -1.71340
H         -6.58970       14.30390        2.18990
H         -6.69990       15.65650        3.35100
H         -4.41610       13.62370        3.18350
H         -5.68640       13.64700        4.41630
H         -4.51380       14.96500        4.33870
H         -3.44640       19.71210        0.86760
H         -4.02300       19.50580        2.54600
H         -5.40870       21.17130        1.30850
H         -6.37580       19.76310        1.75460
H         -5.79680       19.95160        0.08990
