262

C         -2.57910        5.97740       -1.71690
C         -2.89870        7.31040       -1.83220
C         -1.97540        8.44120       -1.71890
O         -0.75620        8.41440       -1.68970
C         -2.81430        9.65080       -1.63190
C         -2.37890       10.96280       -1.46280
C         -3.39650       11.88370       -1.38970
C         -4.74740       11.52620       -1.48270
C         -5.18950       10.23610       -1.66030
C         -4.17030        9.28240       -1.73260
C         -4.24290        7.83300       -1.92030
C         -5.39020        7.12050       -2.17200
C         -6.68670        7.67060       -2.17630
N         -7.77260        8.04630       -2.17600
C         -5.43580        5.75370       -2.50930
N         -5.55020        4.65590       -2.83050
C         -5.21870       12.94950       -1.31140
C         -5.76840       13.33120        0.07930
C         -5.69310       14.84080        0.09670
C         -4.41320       15.18000        0.18360
C         -3.60210       13.90520        0.22630
C         -4.57730       12.99750        0.98690
C         -3.71160       13.34830       -1.20900
C         -1.34430        5.35220       -1.54240
C         -1.19990        3.96370       -1.30050
N         -2.21610        3.05670       -1.12840
C         -1.99260        1.71840       -1.50550
C         -2.38990        0.66740       -0.68250
C         -2.09260       -0.63590       -1.02690
C         -1.40700       -0.93280       -2.20030
C         -1.00390       -2.33670       -2.52760
C         -1.07000        0.11880       -3.04450
C         -1.35670        1.42690       -2.70940
C         -3.40360        3.35670       -0.43060
C         -4.60950        2.80710       -0.85870
C         -5.77130        3.06820       -0.16230
C         -5.76550        3.87630        0.96900
C         -7.04270        4.14780        1.69810
C         -4.55600        4.41770        1.38890
C         -3.38300        4.16040        0.70570
C          0.16010        3.60950       -1.25310
S          0.99180        2.14300       -0.86210
C          2.54280        2.96430       -1.02550
C          2.40840        4.30880       -1.32530
N          3.45110        5.20180       -1.45390
C          3.31340        6.30290       -2.31490
C          3.81770        7.54620       -1.94650
C          3.65750        8.63360       -2.78100
C          2.99110        8.51640       -3.99450
C          2.77680        9.70960       -4.87420
C          2.50250        7.26890       -4.36010
C          2.66250        6.17180       -3.53810
C          4.64430        5.01000       -0.74350
C          4.62390        4.54310        0.56910
C          5.80510        4.28310        1.23320
C          7.03460        4.50150        0.62270
C          8.30940        4.16310        1.33360
C          7.04550        5.02060       -0.66550
C          5.87070        5.27010       -1.34680
C          1.03900        4.66500       -1.45500
S          0.21970        6.17030       -1.66810
C          3.70090        2.16800       -0.72860
C          4.85550        1.90580       -1.43670
C          5.20740        2.50080       -2.72250
C          4.23850        2.85570       -3.65760
C          4.61130        3.44630       -4.84920
C          5.94650        3.68050       -5.12750
C          6.92910        3.31150       -4.21790
C          8.38540        3.49860       -4.53120
C          8.97160        2.20880       -5.10830
C          6.54810        2.72130       -3.02380
C          5.64680        0.93390       -0.77250
S          7.03350       -0.02660       -1.26100
C          6.79370       -1.07400        0.10960
C          7.14650       -2.36170        0.56780
C          7.85680       -3.43290       -0.02670
C          7.55640       -4.79110        0.37490
N          8.18810       -5.68250       -0.37070
S          9.09360       -4.90190       -1.46380
N          8.70080       -3.38930       -1.04310
C          6.64520       -5.01770        1.43200
C          5.85980       -6.12110        1.85540
S          5.33110       -7.64710        1.21630
C          3.87370       -7.56090        2.19180
C          2.58500       -8.14470        2.06680
C          2.25080       -9.36020        1.33600
C          3.08980       -9.87400        0.34900
C          2.74680      -11.03180       -0.32190
C          1.57670      -11.70170       -0.01400
C          0.74090      -11.22790        0.99070
C         -0.48290      -12.00480        1.38430
C         -0.10360      -13.18020        2.28690
C          1.08920      -10.06530        1.65610
C          1.64890       -7.40500        2.77980
S          2.38670       -6.17250        3.79950
C          3.91610       -6.47620        3.06860
C          5.04550       -5.67170        2.89660
N          5.32680       -4.35030        3.20350
C          6.21100       -3.92240        2.21240
C          6.33590       -2.61290        1.70830
N          5.53870       -1.51410        1.95190
C          5.77050       -0.62160        0.94620
C          5.10410        0.49560        0.43020
S          3.60900        1.27320        0.77940
C          4.36170       -1.38130        2.77890
C          3.16280       -2.12450        2.19410
C          5.49740       -3.92210        4.58490
C          4.20210       -3.91730        5.38490
C          0.25370       -7.19560        2.55290
C         -0.38940       -7.08070        1.32520
N          0.11360       -7.44830        0.08170
C         -0.80880       -8.03340       -0.80280
C         -0.88130       -7.66560       -2.14390
C         -1.81180       -8.25660       -2.97280
C         -2.69950       -9.21560       -2.49660
C         -3.71470       -9.83010       -3.41110
C         -2.63120       -9.56470       -1.15510
C         -1.70040       -8.98460       -0.31650
C          1.33510       -6.94620       -0.37770
C          1.87020       -5.76300        0.12520
C          3.08020       -5.28780       -0.34590
C          3.78120       -5.96150       -1.33520
C          5.09150       -5.45540       -1.85150
C          3.23800       -7.14050       -1.83640
C          2.03960       -7.63220       -1.36660
C         -1.62230       -6.39950        1.44750
S         -2.63560       -5.67580        0.24990
C         -3.47130       -4.75680        1.50730
C         -2.93190       -5.00930        2.79700
N         -3.26030       -4.31120        3.93330
C         -3.16460       -4.95080        5.17850
C         -3.56580       -6.27900        5.31070
C         -3.47310       -6.91150        6.53250
C         -2.99030       -6.24340        7.65300
C         -2.91070       -6.94370        8.97410
C         -2.60040       -4.91780        7.51270
C         -2.68030       -4.27400        6.29360
C         -3.50090       -2.92200        3.87620
C         -4.50020       -2.34170        4.65130
C         -4.77310       -0.99270        4.52600
C         -4.06580       -0.19190        3.63630
C         -4.42590        1.24920        3.44760
C         -3.02870       -0.77150        2.91240
C         -2.74140       -2.11570        3.03070
C         -1.90720       -5.96260        2.73540
S         -0.69940       -6.49570        3.86650
C         -4.49800       -3.84290        1.28740
C         -4.90420       -3.21530        0.12810
C         -4.33640       -3.41400       -1.20500
O         -3.60920       -4.31880       -1.58090
C         -4.81030       -2.27970       -2.02240
C         -4.52430       -1.97760       -3.33900
C         -5.09090       -0.84060       -3.89340
C         -5.93100       -0.05710       -3.11740
F         -6.49170        1.02410       -3.67760
C         -6.23090       -0.34150       -1.79070
C         -5.65030       -1.46890       -1.23930
C         -5.76840       -2.06310        0.09270
C         -6.55500       -1.57920        1.11170
C         -6.84060       -2.27060        2.30410
N         -7.16190       -2.79520        3.27530
C         -7.18950       -0.32450        1.09460
N         -7.68340        0.70980        1.18060
H         -3.41670        5.29210       -1.72610
H         -1.32680       11.19310       -1.39830
H         -6.23270        9.97840       -1.73390
H         -5.81090       13.35610       -2.12910
H         -6.72800       12.88590        0.32740
H         -6.54580       15.48550       -0.00940
H         -3.98340       16.16450        0.16440
H         -2.58780       13.98310        0.60900
H         -4.73480       13.32970        2.01180
H         -4.29830       11.94550        0.98350
H         -3.29950       14.02090       -1.95920
H         -2.91860        0.88270        0.23440
H         -2.38100       -1.43810       -0.36170
H         -0.07440       -2.58050       -2.01070
H         -1.75360       -3.05660       -2.20950
H         -0.83160       -2.45160       -3.59510
H         -0.56350       -0.08820       -3.97610
H         -1.08250        2.23290       -3.37440
H         -4.62570        2.19080       -1.74360
H         -6.70590        2.65440       -0.50570
H         -7.66190        4.83490        1.12120
H         -6.85330        4.59060        2.67300
H         -7.60300        3.22400        1.82510
H         -4.52690        5.04260        2.27030
H         -2.44790        4.58230        1.04610
H          4.32630        7.65410       -0.99970
H          4.04610        9.59500       -2.47720
H          1.80540       10.15500       -4.65670
H          3.54100       10.46390       -4.70240
H          2.78820        9.42620       -5.92450
H          1.98890        7.15390       -5.30380
H          2.28540        5.20670       -3.84110
H          3.67740        4.38500        1.06560
H          5.77210        3.90490        2.24530
H          8.24050        4.40720        2.39180
H          8.50900        3.09380        1.24940
H          9.15050        4.69950        0.90170
H          7.98910        5.21790       -1.15350
H          5.89500        5.65070       -2.35700
H          3.19850        2.64840       -3.45630
H          3.85680        3.72460       -5.57050
H          6.22800        4.14920       -6.05950
H          8.92740        3.76180       -3.62050
H          8.51070        4.30910       -5.25200
H          8.45130        1.93420       -6.02330
H         10.02760        2.33740       -5.33430
H          8.86360        1.39410       -4.39590
H          7.30460        2.45120       -2.30210
H          3.99970       -9.35820        0.08920
H          3.39900      -11.41290       -1.09380
H          1.31250      -12.60330       -0.54750
H         -0.98140      -12.38150        0.48860
H         -1.18200      -11.35810        1.91730
H          0.38070      -12.81930        3.19180
H          0.58570      -13.84710        1.77430
H         -0.98900      -13.74550        2.56850
H          0.45670       -9.70590        2.45520
H          4.13520       -0.31280        2.82750
H          4.56730       -1.72520        3.78940
H          2.96800       -1.78190        1.18030
H          3.34370       -3.19620        2.17780
H          2.28060       -1.92700        2.79710
H          5.95420       -2.93020        4.56830
H          6.21570       -4.59510        5.07470
H          3.41270       -3.38790        4.85940
H          3.86330       -4.93210        5.57120
H          4.37330       -3.43470        6.34380
H         -0.21790       -6.90570       -2.52770
H         -1.86150       -7.95770       -4.00970
H         -4.20250      -10.67900       -2.93860
H         -3.24760      -10.16320       -4.33630
H         -4.47760       -9.09550       -3.66920
H         -3.31390      -10.30230       -0.75800
H         -1.65850       -9.26490        0.72500
H          1.33180       -5.20450        0.87780
H          3.48190       -4.36790        0.05570
H          5.09680       -5.44450       -2.94030
H          5.29200       -4.44860       -1.49030
H          5.89990       -6.10840       -1.52140
H          3.77120       -7.68500       -2.60190
H          1.63800       -8.55470       -1.75720
H         -3.96100       -6.80430        4.45360
H         -3.78960       -7.94030        6.62320
H         -2.36650       -7.88170        8.87620
H         -2.41090       -6.32450        9.71430
H         -3.91120       -7.17690        9.33770
H         -2.22060       -4.37950        8.36890
H         -2.36170       -3.24670        6.19830
H         -5.07900       -2.95500        5.32420
H         -5.56980       -0.56080        5.11260
H         -4.71650        1.70320        4.39210
H         -3.59650        1.81110        3.02410
H         -5.27230        1.33760        2.76440
H         -2.43070       -0.16260        2.25040
H         -1.93520       -2.55080        2.45770
H         -4.98580       -3.50480        2.19250
H         -3.87760       -2.61920       -3.91620
H         -4.90030       -0.55630       -4.91600
H         -6.89430        0.30640       -1.24310
