
  xtb     02252210173D
 energy: -387.262462270968 gnorm: 0.000747580930 xtb: 6.4.1 (unknown)
240265  0     0  0            999 V2000
   10.3361   -4.9134   -2.2316 C   0  0  0  0  0  0  0  0  0  0  0  0
   10.5155   -6.0287   -3.0182 C   0  0  0  0  0  0  0  0  0  0  0  0
    9.4598   -6.8596   -3.5991 C   0  0  0  0  0  0  0  0  0  0  0  0
    8.2591   -6.7953   -3.3926 O   0  0  0  0  0  0  0  0  0  0  0  0
   10.1318   -7.8009   -4.5142 C   0  0  0  0  0  0  0  0  0  0  0  0
    9.5314   -8.7756   -5.3059 C   0  0  0  0  0  0  0  0  0  0  0  0
   10.4175   -9.5070   -6.0604 C   0  0  0  0  0  0  0  0  0  0  0  0
   11.7992   -9.2813   -6.0323 C   0  0  0  0  0  0  0  0  0  0  0  0
   12.4039   -8.3209   -5.2554 C   0  0  0  0  0  0  0  0  0  0  0  0
   11.5210   -7.5686   -4.4771 C   0  0  0  0  0  0  0  0  0  0  0  0
   11.7859   -6.4924   -3.5214 C   0  0  0  0  0  0  0  0  0  0  0  0
   13.0342   -6.0389   -3.1653 C   0  0  0  0  0  0  0  0  0  0  0  0
   13.3074   -5.1129   -2.1411 C   0  0  0  0  0  0  0  0  0  0  0  0
   13.6257   -4.3966   -1.2991 N   0  0  0  0  0  0  0  0  0  0  0  0
   14.2388   -6.4671   -3.7564 C   0  0  0  0  0  0  0  0  0  0  0  0
   15.2610   -6.7445   -4.2025 N   0  0  0  0  0  0  0  0  0  0  0  0
   12.0803  -10.3821   -7.0247 C   0  0  0  0  0  0  0  0  0  0  0  0
   12.6388  -11.7197   -6.4796 C   0  0  0  0  0  0  0  0  0  0  0  0
   12.1656  -11.8310   -5.0517 C   0  0  0  0  0  0  0  0  0  0  0  0
   10.8570  -12.0460   -5.0746 C   0  0  0  0  0  0  0  0  0  0  0  0
   10.4219  -12.0844   -6.5186 C   0  0  0  0  0  0  0  0  0  0  0  0
   11.6736  -12.7022   -7.1620 C   0  0  0  0  0  0  0  0  0  0  0  0
   10.5400  -10.6357   -7.0537 C   0  0  0  0  0  0  0  0  0  0  0  0
    9.1740   -4.3416   -1.7173 C   0  0  0  0  0  0  0  0  0  0  0  0
    9.1723   -3.1293   -0.9794 C   0  0  0  0  0  0  0  0  0  0  0  0
   10.2323   -2.2751   -0.8418 N   0  0  0  0  0  0  0  0  0  0  0  0
   10.3142   -1.4935    0.3282 C   0  0  0  0  0  0  0  0  0  0  0  0
   10.1284   -2.0857    1.5738 C   0  0  0  0  0  0  0  0  0  0  0  0
   10.2024   -1.3208    2.7197 C   0  0  0  0  0  0  0  0  0  0  0  0
   10.4559    0.0437    2.6558 C   0  0  0  0  0  0  0  0  0  0  0  0
   10.4902    0.8721    3.9017 C   0  0  0  0  0  0  0  0  0  0  0  0
   10.6524    0.6229    1.4076 C   0  0  0  0  0  0  0  0  0  0  0  0
   10.5855   -0.1311    0.2533 C   0  0  0  0  0  0  0  0  0  0  0  0
   11.1604   -2.0379   -1.8730 C   0  0  0  0  0  0  0  0  0  0  0  0
   10.7603   -2.0322   -3.2072 C   0  0  0  0  0  0  0  0  0  0  0  0
   11.6893   -1.8190   -4.2055 C   0  0  0  0  0  0  0  0  0  0  0  0
   13.0267   -1.5864   -3.9050 C   0  0  0  0  0  0  0  0  0  0  0  0
   14.0428   -1.3913   -4.9874 C   0  0  0  0  0  0  0  0  0  0  0  0
   13.4072   -1.5548   -2.5688 C   0  0  0  0  0  0  0  0  0  0  0  0
   12.4928   -1.7818   -1.5598 C   0  0  0  0  0  0  0  0  0  0  0  0
    7.9075   -2.8905   -0.4139 C   0  0  0  0  0  0  0  0  0  0  0  0
    7.2296   -1.6247    0.5600 S   0  0  0  0  0  0  0  0  0  0  0  0
    5.6466   -2.3993    0.5005 C   0  0  0  0  0  0  0  0  0  0  0  0
    5.6537   -3.5414   -0.2796 C   0  0  0  0  0  0  0  0  0  0  0  0
    4.5623   -4.3789   -0.5181 N   0  0  0  0  0  0  0  0  0  0  0  0
    3.4669   -3.9041   -1.2398 C   0  0  0  0  0  0  0  0  0  0  0  0
    3.6068   -2.8371   -2.1278 C   0  0  0  0  0  0  0  0  0  0  0  0
    2.5129   -2.3594   -2.8199 C   0  0  0  0  0  0  0  0  0  0  0  0
    1.2556   -2.9279   -2.6579 C   0  0  0  0  0  0  0  0  0  0  0  0
    0.0846   -2.4102   -3.4380 C   0  0  0  0  0  0  0  0  0  0  0  0
    1.1235   -3.9921   -1.7740 C   0  0  0  0  0  0  0  0  0  0  0  0
    2.2074   -4.4765   -1.0701 C   0  0  0  0  0  0  0  0  0  0  0  0
    4.7862   -5.7528   -0.3333 C   0  0  0  0  0  0  0  0  0  0  0  0
    4.3198   -6.7027   -1.2375 C   0  0  0  0  0  0  0  0  0  0  0  0
    4.5852   -8.0411   -1.0326 C   0  0  0  0  0  0  0  0  0  0  0  0
    5.3245   -8.4723    0.0627 C   0  0  0  0  0  0  0  0  0  0  0  0
    5.6374   -9.9252    0.2511 C   0  0  0  0  0  0  0  0  0  0  0  0
    5.7893   -7.5186    0.9584 C   0  0  0  0  0  0  0  0  0  0  0  0
    5.5231   -6.1776    0.7695 C   0  0  0  0  0  0  0  0  0  0  0  0
    6.9509   -3.8315   -0.7667 C   0  0  0  0  0  0  0  0  0  0  0  0
    7.5684   -5.0774   -1.7896 S   0  0  0  0  0  0  0  0  0  0  0  0
    4.5871   -1.7882    1.2473 C   0  0  0  0  0  0  0  0  0  0  0  0
    4.7018   -1.2434    2.5143 C   0  0  0  0  0  0  0  0  0  0  0  0
    5.8381   -1.4472    3.4127 C   0  0  0  0  0  0  0  0  0  0  0  0
    6.2718   -0.4307    4.2581 C   0  0  0  0  0  0  0  0  0  0  0  0
    7.2942   -0.6710    5.1563 C   0  0  0  0  0  0  0  0  0  0  0  0
    7.8949   -1.9158    5.2189 C   0  0  0  0  0  0  0  0  0  0  0  0
    7.4848   -2.9394    4.3734 C   0  0  0  0  0  0  0  0  0  0  0  0
    8.1013   -4.3072    4.4506 C   0  0  0  0  0  0  0  0  0  0  0  0
    7.2793   -5.2144    5.3680 C   0  0  0  0  0  0  0  0  0  0  0  0
    6.4523   -2.6942    3.4842 C   0  0  0  0  0  0  0  0  0  0  0  0
    3.5193   -0.5745    2.8946 C   0  0  0  0  0  0  0  0  0  0  0  0
    3.0623    0.3071    4.3328 S   0  0  0  0  0  0  0  0  0  0  0  0
    1.5063    0.6006    3.6324 C   0  0  0  0  0  0  0  0  0  0  0  0
    0.3376    1.3310    3.9037 C   0  0  0  0  0  0  0  0  0  0  0  0
    0.0290    2.2536    4.9274 C   0  0  0  0  0  0  0  0  0  0  0  0
   -1.1631    3.0477    4.8113 C   0  0  0  0  0  0  0  0  0  0  0  0
   -1.2813    3.9285    5.7921 N   0  0  0  0  0  0  0  0  0  0  0  0
   -0.0097    3.7680    6.7821 S   0  0  0  0  0  0  0  0  0  0  0  0
    0.7454    2.5717    5.9939 N   0  0  0  0  0  0  0  0  0  0  0  0
   -2.0587    2.7862    3.7515 C   0  0  0  0  0  0  0  0  0  0  0  0
   -3.3098    3.3386    3.4241 C   0  0  0  0  0  0  0  0  0  0  0  0
   -4.3643    4.6087    3.9497 S   0  0  0  0  0  0  0  0  0  0  0  0
   -5.4980    4.1456    2.7032 C   0  0  0  0  0  0  0  0  0  0  0  0
   -6.7501    4.6553    2.3225 C   0  0  0  0  0  0  0  0  0  0  0  0
   -7.3980    5.8026    2.9815 C   0  0  0  0  0  0  0  0  0  0  0  0
   -8.3149    5.6014    4.0060 C   0  0  0  0  0  0  0  0  0  0  0  0
   -8.9234    6.6903    4.6022 C   0  0  0  0  0  0  0  0  0  0  0  0
   -8.6317    7.9738    4.1746 C   0  0  0  0  0  0  0  0  0  0  0  0
   -7.7135    8.1896    3.1560 C   0  0  0  0  0  0  0  0  0  0  0  0
   -7.4342    9.5713    2.6402 C   0  0  0  0  0  0  0  0  0  0  0  0
   -8.2075    9.8153    1.3426 C   0  0  0  0  0  0  0  0  0  0  0  0
   -7.0933    7.0935    2.5728 C   0  0  0  0  0  0  0  0  0  0  0  0
   -7.2823    3.9471    1.2622 C   0  0  0  0  0  0  0  0  0  0  0  0
   -6.2331    2.6392    0.7336 S   0  0  0  0  0  0  0  0  0  0  0  0
   -5.0694    3.0565    1.9389 C   0  0  0  0  0  0  0  0  0  0  0  0
   -3.8094    2.6049    2.3463 C   0  0  0  0  0  0  0  0  0  0  0  0
   -2.9111    1.6361    1.9730 N   0  0  0  0  0  0  0  0  0  0  0  0
   -1.8112    1.7502    2.8101 C   0  0  0  0  0  0  0  0  0  0  0  0
   -0.5403    1.1207    2.8041 C   0  0  0  0  0  0  0  0  0  0  0  0
    0.1054    0.3266    1.8754 N   0  0  0  0  0  0  0  0  0  0  0  0
    1.3425    0.0195    2.3731 C   0  0  0  0  0  0  0  0  0  0  0  0
    2.5027   -0.6397    1.9429 C   0  0  0  0  0  0  0  0  0  0  0  0
    3.0043   -1.5115    0.5378 S   0  0  0  0  0  0  0  0  0  0  0  0
   -0.2050    0.0646    0.4895 C   0  0  0  0  0  0  0  0  0  0  0  0
   -0.5489   -1.4067    0.2496 C   0  0  0  0  0  0  0  0  0  0  0  0
   -3.4164    0.4589    1.3002 C   0  0  0  0  0  0  0  0  0  0  0  0
   -4.3723   -0.3239    2.2008 C   0  0  0  0  0  0  0  0  0  0  0  0
   -8.5132    4.1676    0.5812 C   0  0  0  0  0  0  0  0  0  0  0  0
   -9.3900    5.2067    0.7133 C   0  0  0  0  0  0  0  0  0  0  0  0
  -10.5213    5.1071   -0.1312 C   0  0  0  0  0  0  0  0  0  0  0  0
  -11.5762    6.0225   -0.2611 C   0  0  0  0  0  0  0  0  0  0  0  0
  -11.6664    7.2180    0.5892 C   0  0  0  0  0  0  0  0  0  0  0  0
  -11.6204    7.1019    1.9778 C   0  0  0  0  0  0  0  0  0  0  0  0
  -11.7559    8.2289    2.7637 C   0  0  0  0  0  0  0  0  0  0  0  0
  -11.9169    9.4806    2.1938 C   0  0  0  0  0  0  0  0  0  0  0  0
  -11.9437    9.6066    0.8111 C   0  0  0  0  0  0  0  0  0  0  0  0
  -12.1172   11.1265   -0.0672 S   0  0  0  0  0  0  0  0  0  0  0  0
  -12.2642   12.4176    1.2170 C   0  0  0  0  0  0  0  0  0  0  0  0
  -10.9225   12.8123    1.8066 C   0  0  0  0  0  0  0  0  0  0  0  0
  -11.8261    8.4700    0.0164 C   0  0  0  0  0  0  0  0  0  0  0  0
  -12.5406    5.7323   -1.2139 C   0  0  0  0  0  0  0  0  0  0  0  0
  -12.5048    4.5649   -2.0228 C   0  0  0  0  0  0  0  0  0  0  0  0
  -11.4459    3.6457   -1.8901 C   0  0  0  0  0  0  0  0  0  0  0  0
  -11.3373    2.4414   -2.7234 C   0  0  0  0  0  0  0  0  0  0  0  0
  -11.3994    2.5205   -4.1123 C   0  0  0  0  0  0  0  0  0  0  0  0
  -11.2346    1.3851   -4.8854 C   0  0  0  0  0  0  0  0  0  0  0  0
  -10.9999    0.1588   -4.2883 C   0  0  0  0  0  0  0  0  0  0  0  0
  -10.9346    0.0785   -2.9062 C   0  0  0  0  0  0  0  0  0  0  0  0
  -10.6024   -1.4880   -2.1140 S   0  0  0  0  0  0  0  0  0  0  0  0
   -8.8063   -1.5847   -2.4596 C   0  0  0  0  0  0  0  0  0  0  0  0
   -8.0188   -0.5637   -1.6628 C   0  0  0  0  0  0  0  0  0  0  0  0
  -11.1115    1.2052   -2.1251 C   0  0  0  0  0  0  0  0  0  0  0  0
  -10.4857    3.9424   -0.9406 C   0  0  0  0  0  0  0  0  0  0  0  0
   -9.0546    3.0006   -0.6133 S   0  0  0  0  0  0  0  0  0  0  0  0
  -13.6347    4.4797   -2.8613 C   0  0  0  0  0  0  0  0  0  0  0  0
  -14.5063    5.5351   -2.7283 C   0  0  0  0  0  0  0  0  0  0  0  0
  -13.9561    6.6960   -1.5343 S   0  0  0  0  0  0  0  0  0  0  0  0
  -15.7066    5.6768   -3.4695 C   0  0  0  0  0  0  0  0  0  0  0  0
  -16.6216    6.6798   -3.4007 C   0  0  0  0  0  0  0  0  0  0  0  0
  -16.5130    7.7829   -2.5283 C   0  0  0  0  0  0  0  0  0  0  0  0
  -16.4503    8.6917   -1.8309 N   0  0  0  0  0  0  0  0  0  0  0  0
  -17.8343    6.6843   -4.2561 C   0  0  0  0  0  0  0  0  0  0  0  0
  -18.6926    7.5302   -4.2222 O   0  0  0  0  0  0  0  0  0  0  0  0
  -17.8731    5.6291   -5.0846 O   0  0  0  0  0  0  0  0  0  0  0  0
  -19.0109    5.5568   -5.9443 C   0  0  0  0  0  0  0  0  0  0  0  0
  -18.8828    4.3116   -6.8007 C   0  0  0  0  0  0  0  0  0  0  0  0
   11.2383   -4.3745   -1.9726 H   0  0  0  0  0  0  0  0  0  0  0  0
    8.4614   -8.9142   -5.2976 H   0  0  0  0  0  0  0  0  0  0  0  0
   13.4690   -8.1604   -5.2468 H   0  0  0  0  0  0  0  0  0  0  0  0
   12.5640  -10.0775   -7.9508 H   0  0  0  0  0  0  0  0  0  0  0  0
   13.7028  -11.8657   -6.6454 H   0  0  0  0  0  0  0  0  0  0  0  0
   12.8012  -11.6876   -4.1975 H   0  0  0  0  0  0  0  0  0  0  0  0
   10.1807  -12.1176   -4.2430 H   0  0  0  0  0  0  0  0  0  0  0  0
    9.4672  -12.5637   -6.7197 H   0  0  0  0  0  0  0  0  0  0  0  0
   11.8381  -13.7348   -6.8573 H   0  0  0  0  0  0  0  0  0  0  0  0
   11.6814  -12.6336   -8.2490 H   0  0  0  0  0  0  0  0  0  0  0  0
   10.0191  -10.4998   -7.9998 H   0  0  0  0  0  0  0  0  0  0  0  0
    9.9367   -3.1467    1.6368 H   0  0  0  0  0  0  0  0  0  0  0  0
   10.0609   -1.7908    3.6801 H   0  0  0  0  0  0  0  0  0  0  0  0
   10.8450    0.2872    4.7468 H   0  0  0  0  0  0  0  0  0  0  0  0
   11.1314    1.7412    3.7760 H   0  0  0  0  0  0  0  0  0  0  0  0
    9.4840    1.2219    4.1341 H   0  0  0  0  0  0  0  0  0  0  0  0
   10.8546    1.6817    1.3369 H   0  0  0  0  0  0  0  0  0  0  0  0
   10.7353    0.3300   -0.7117 H   0  0  0  0  0  0  0  0  0  0  0  0
    9.7237   -2.2050   -3.4570 H   0  0  0  0  0  0  0  0  0  0  0  0
   11.3667   -1.8274   -5.2368 H   0  0  0  0  0  0  0  0  0  0  0  0
   14.6791   -2.2735   -5.0624 H   0  0  0  0  0  0  0  0  0  0  0  0
   13.5638   -1.2314   -5.9502 H   0  0  0  0  0  0  0  0  0  0  0  0
   14.6830   -0.5397   -4.7654 H   0  0  0  0  0  0  0  0  0  0  0  0
   14.4399   -1.3719   -2.3135 H   0  0  0  0  0  0  0  0  0  0  0  0
   12.8074   -1.7776   -0.5282 H   0  0  0  0  0  0  0  0  0  0  0  0
    4.5792   -2.3909   -2.2761 H   0  0  0  0  0  0  0  0  0  0  0  0
    2.6389   -1.5346   -3.5066 H   0  0  0  0  0  0  0  0  0  0  0  0
    0.0058   -1.3281   -3.3420 H   0  0  0  0  0  0  0  0  0  0  0  0
   -0.8430   -2.8645   -3.0980 H   0  0  0  0  0  0  0  0  0  0  0  0
    0.2078   -2.6394   -4.4965 H   0  0  0  0  0  0  0  0  0  0  0  0
    0.1542   -4.4476   -1.6286 H   0  0  0  0  0  0  0  0  0  0  0  0
    2.0865   -5.2973   -0.3790 H   0  0  0  0  0  0  0  0  0  0  0  0
    3.7650   -6.3860   -2.1077 H   0  0  0  0  0  0  0  0  0  0  0  0
    4.2237   -8.7662   -1.7474 H   0  0  0  0  0  0  0  0  0  0  0  0
    6.5122  -10.1951   -0.3416 H   0  0  0  0  0  0  0  0  0  0  0  0
    5.8543  -10.1453    1.2938 H   0  0  0  0  0  0  0  0  0  0  0  0
    4.8068  -10.5470   -0.0761 H   0  0  0  0  0  0  0  0  0  0  0  0
    6.3661   -7.8285    1.8184 H   0  0  0  0  0  0  0  0  0  0  0  0
    5.8901   -5.4486    1.4779 H   0  0  0  0  0  0  0  0  0  0  0  0
    5.8112    0.5439    4.2067 H   0  0  0  0  0  0  0  0  0  0  0  0
    7.6202    0.1171    5.8192 H   0  0  0  0  0  0  0  0  0  0  0  0
    8.6857   -2.0972    5.9335 H   0  0  0  0  0  0  0  0  0  0  0  0
    8.1433   -4.7493    3.4523 H   0  0  0  0  0  0  0  0  0  0  0  0
    9.1212   -4.2363    4.8343 H   0  0  0  0  0  0  0  0  0  0  0  0
    6.2621   -5.3095    4.9942 H   0  0  0  0  0  0  0  0  0  0  0  0
    7.7241   -6.2054    5.4224 H   0  0  0  0  0  0  0  0  0  0  0  0
    7.2360   -4.7970    6.3715 H   0  0  0  0  0  0  0  0  0  0  0  0
    6.1009   -3.4920    2.8451 H   0  0  0  0  0  0  0  0  0  0  0  0
   -8.5476    4.5967    4.3263 H   0  0  0  0  0  0  0  0  0  0  0  0
   -9.6329    6.5357    5.4018 H   0  0  0  0  0  0  0  0  0  0  0  0
   -9.1181    8.8193    4.6390 H   0  0  0  0  0  0  0  0  0  0  0  0
   -7.7303   10.3124    3.3850 H   0  0  0  0  0  0  0  0  0  0  0  0
   -6.3649    9.6867    2.4503 H   0  0  0  0  0  0  0  0  0  0  0  0
   -8.0295   10.8230    0.9749 H   0  0  0  0  0  0  0  0  0  0  0  0
   -7.8991    9.1082    0.5759 H   0  0  0  0  0  0  0  0  0  0  0  0
   -9.2746    9.6855    1.5077 H   0  0  0  0  0  0  0  0  0  0  0  0
   -6.3735    7.2412    1.7800 H   0  0  0  0  0  0  0  0  0  0  0  0
   -1.0083    0.7319    0.1742 H   0  0  0  0  0  0  0  0  0  0  0  0
    0.6834    0.3119   -0.1027 H   0  0  0  0  0  0  0  0  0  0  0  0
   -0.9592   -1.5330   -0.7477 H   0  0  0  0  0  0  0  0  0  0  0  0
   -1.2686   -1.7722    0.9793 H   0  0  0  0  0  0  0  0  0  0  0  0
    0.3462   -2.0178    0.3270 H   0  0  0  0  0  0  0  0  0  0  0  0
   -3.9437    0.7881    0.3990 H   0  0  0  0  0  0  0  0  0  0  0  0
   -2.5953   -0.1889    1.0189 H   0  0  0  0  0  0  0  0  0  0  0  0
   -5.2392    0.2771    2.4614 H   0  0  0  0  0  0  0  0  0  0  0  0
   -3.8665   -0.6207    3.1173 H   0  0  0  0  0  0  0  0  0  0  0  0
   -4.7139   -1.2163    1.6834 H   0  0  0  0  0  0  0  0  0  0  0  0
   -9.2291    6.0377    1.3726 H   0  0  0  0  0  0  0  0  0  0  0  0
  -11.5069    6.1301    2.4336 H   0  0  0  0  0  0  0  0  0  0  0  0
  -11.7396    8.1366    3.8392 H   0  0  0  0  0  0  0  0  0  0  0  0
  -12.0242   10.3387    2.8374 H   0  0  0  0  0  0  0  0  0  0  0  0
  -12.7133   13.2584    0.6883 H   0  0  0  0  0  0  0  0  0  0  0  0
  -12.9679   12.0679    1.9711 H   0  0  0  0  0  0  0  0  0  0  0  0
  -11.0593   13.6048    2.5403 H   0  0  0  0  0  0  0  0  0  0  0  0
  -10.4408   11.9667    2.2917 H   0  0  0  0  0  0  0  0  0  0  0  0
  -10.2627   13.1748    1.0219 H   0  0  0  0  0  0  0  0  0  0  0  0
  -11.8467    8.5811   -1.0571 H   0  0  0  0  0  0  0  0  0  0  0  0
  -11.5514    3.4802   -4.5841 H   0  0  0  0  0  0  0  0  0  0  0  0
  -11.2840    1.4562   -5.9620 H   0  0  0  0  0  0  0  0  0  0  0  0
  -10.8697   -0.7306   -4.8862 H   0  0  0  0  0  0  0  0  0  0  0  0
   -8.5296   -2.6018   -2.1844 H   0  0  0  0  0  0  0  0  0  0  0  0
   -8.6687   -1.4508   -3.5325 H   0  0  0  0  0  0  0  0  0  0  0  0
   -8.3103    0.4486   -1.9361 H   0  0  0  0  0  0  0  0  0  0  0  0
   -8.1955   -0.6946   -0.5980 H   0  0  0  0  0  0  0  0  0  0  0  0
   -6.9544   -0.6813   -1.8571 H   0  0  0  0  0  0  0  0  0  0  0  0
  -11.0816    1.1157   -1.0501 H   0  0  0  0  0  0  0  0  0  0  0  0
  -13.8145    3.6580   -3.5319 H   0  0  0  0  0  0  0  0  0  0  0  0
  -15.9062    4.8801   -4.1752 H   0  0  0  0  0  0  0  0  0  0  0  0
  -19.9173    5.5287   -5.3290 H   0  0  0  0  0  0  0  0  0  0  0  0
  -19.0476    6.4638   -6.5582 H   0  0  0  0  0  0  0  0  0  0  0  0
  -19.7414    4.2348   -7.4610 H   0  0  0  0  0  0  0  0  0  0  0  0
  -18.8383    3.4264   -6.1716 H   0  0  0  0  0  0  0  0  0  0  0  0
  -17.9771    4.3594   -7.3997 H   0  0  0  0  0  0  0  0  0  0  0  0
  1  2  2  0  0  0  0
  2  3  1  0  0  0  0
  3  4  2  0  0  0  0
  3  5  1  0  0  0  0
  5  6  2  0  0  0  0
  6  7  1  0  0  0  0
  7  8  2  0  0  0  0
  8  9  1  0  0  0  0
  9 10  2  0  0  0  0
 10 11  1  0  0  0  0
 11 12  2  0  0  0  0
 12 13  1  0  0  0  0
 13 14  3  0  0  0  0
 12 15  1  0  0  0  0
 15 16  3  0  0  0  0
  8 17  1  0  0  0  0
 17 18  1  0  0  0  0
 18 19  1  0  0  0  0
 19 20  2  0  0  0  0
 20 21  1  0  0  0  0
 21 22  1  0  0  0  0
 21 23  1  0  0  0  0
  1 24  1  0  0  0  0
 24 25  2  0  0  0  0
 25 26  1  0  0  0  0
 26 27  1  0  0  0  0
 27 28  2  0  0  0  0
 28 29  1  0  0  0  0
 29 30  2  0  0  0  0
 30 31  1  0  0  0  0
 30 32  1  0  0  0  0
 32 33  2  0  0  0  0
 26 34  1  0  0  0  0
 34 35  2  0  0  0  0
 35 36  1  0  0  0  0
 36 37  2  0  0  0  0
 37 38  1  0  0  0  0
 37 39  1  0  0  0  0
 39 40  2  0  0  0  0
 25 41  1  0  0  0  0
 41 42  1  0  0  0  0
 42 43  1  0  0  0  0
 43 44  2  0  0  0  0
 44 45  1  0  0  0  0
 45 46  1  0  0  0  0
 46 47  2  0  0  0  0
 47 48  1  0  0  0  0
 48 49  2  0  0  0  0
 49 50  1  0  0  0  0
 49 51  1  0  0  0  0
 51 52  2  0  0  0  0
 45 53  1  0  0  0  0
 53 54  2  0  0  0  0
 54 55  1  0  0  0  0
 55 56  2  0  0  0  0
 56 57  1  0  0  0  0
 56 58  1  0  0  0  0
 58 59  2  0  0  0  0
 44 60  1  0  0  0  0
 60 61  1  0  0  0  0
 43 62  1  0  0  0  0
 62 63  2  0  0  0  0
 63 64  1  0  0  0  0
 64 65  2  0  0  0  0
 65 66  1  0  0  0  0
 66 67  2  0  0  0  0
 67 68  1  0  0  0  0
 68 69  1  0  0  0  0
 69 70  1  0  0  0  0
 68 71  2  0  0  0  0
 63 72  1  0  0  0  0
 72 73  1  0  0  0  0
 73 74  1  0  0  0  0
 74 75  1  0  0  0  0
 75 76  1  0  0  0  0
 76 77  1  0  0  0  0
 77 78  2  0  0  0  0
 78 79  1  0  0  0  0
 79 80  1  0  0  0  0
 77 81  1  0  0  0  0
 81 82  1  0  0  0  0
 82 83  1  0  0  0  0
 83 84  1  0  0  0  0
 84 85  1  0  0  0  0
 85 86  1  0  0  0  0
 86 87  2  0  0  0  0
 87 88  1  0  0  0  0
 88 89  2  0  0  0  0
 89 90  1  0  0  0  0
 90 91  1  0  0  0  0
 91 92  1  0  0  0  0
 90 93  2  0  0  0  0
 85 94  2  0  0  0  0
 94 95  1  0  0  0  0
 95 96  1  0  0  0  0
 96 97  1  0  0  0  0
 97 98  1  0  0  0  0
 98 99  1  0  0  0  0
 99100  1  0  0  0  0
100101  1  0  0  0  0
101102  1  0  0  0  0
102103  1  0  0  0  0
103104  1  0  0  0  0
101105  1  0  0  0  0
105106  1  0  0  0  0
 98107  1  0  0  0  0
107108  1  0  0  0  0
 94109  1  0  0  0  0
109110  2  0  0  0  0
110111  1  0  0  0  0
111112  2  0  0  0  0
112113  1  0  0  0  0
113114  2  0  0  0  0
114115  1  0  0  0  0
115116  2  0  0  0  0
116117  1  0  0  0  0
117118  1  0  0  0  0
118119  1  0  0  0  0
119120  1  0  0  0  0
117121  2  0  0  0  0
112122  1  0  0  0  0
122123  2  0  0  0  0
123124  1  0  0  0  0
124125  1  0  0  0  0
125126  2  0  0  0  0
126127  1  0  0  0  0
127128  2  0  0  0  0
128129  1  0  0  0  0
129130  1  0  0  0  0
130131  1  0  0  0  0
131132  1  0  0  0  0
129133  2  0  0  0  0
124134  2  0  0  0  0
134135  1  0  0  0  0
123136  1  0  0  0  0
136137  2  0  0  0  0
137138  1  0  0  0  0
137139  1  0  0  0  0
139140  2  0  0  0  0
140141  1  0  0  0  0
141142  3  0  0  0  0
140143  1  0  0  0  0
143144  2  0  0  0  0
143145  1  0  0  0  0
145146  1  0  0  0  0
146147  1  0  0  0  0
 11  2  1  0  0  0  0
 23 17  1  0  0  0  0
 61 24  1  0  0  0  0
104 62  1  0  0  0  0
135109  1  0  0  0  0
 10  5  1  0  0  0  0
 22 18  1  0  0  0  0
 33 27  1  0  0  0  0
 40 34  1  0  0  0  0
 60 41  2  0  0  0  0
 71 64  1  0  0  0  0
103 72  2  0  0  0  0
134111  1  0  0  0  0
 23  7  1  0  0  0  0
 52 46  1  0  0  0  0
 59 53  1  0  0  0  0
102 74  2  0  0  0  0
121113  1  0  0  0  0
138122  1  0  0  0  0
100 75  2  0  0  0  0
133125  1  0  0  0  0
 80 76  2  0  0  0  0
 99 81  2  0  0  0  0
 97 82  2  0  0  0  0
 96 84  2  0  0  0  0
 93 86  1  0  0  0  0
  1148  1  0  0  0  0
  6149  1  0  0  0  0
  9150  1  0  0  0  0
 17151  1  0  0  0  0
 18152  1  0  0  0  0
 19153  1  0  0  0  0
 20154  1  0  0  0  0
 21155  1  0  0  0  0
 22156  1  0  0  0  0
 22157  1  0  0  0  0
 23158  1  0  0  0  0
 28159  1  0  0  0  0
 29160  1  0  0  0  0
 31161  1  0  0  0  0
 31162  1  0  0  0  0
 31163  1  0  0  0  0
 32164  1  0  0  0  0
 33165  1  0  0  0  0
 35166  1  0  0  0  0
 36167  1  0  0  0  0
 38168  1  0  0  0  0
 38169  1  0  0  0  0
 38170  1  0  0  0  0
 39171  1  0  0  0  0
 40172  1  0  0  0  0
 47173  1  0  0  0  0
 48174  1  0  0  0  0
 50175  1  0  0  0  0
 50176  1  0  0  0  0
 50177  1  0  0  0  0
 51178  1  0  0  0  0
 52179  1  0  0  0  0
 54180  1  0  0  0  0
 55181  1  0  0  0  0
 57182  1  0  0  0  0
 57183  1  0  0  0  0
 57184  1  0  0  0  0
 58185  1  0  0  0  0
 59186  1  0  0  0  0
 65187  1  0  0  0  0
 66188  1  0  0  0  0
 67189  1  0  0  0  0
 69190  1  0  0  0  0
 69191  1  0  0  0  0
 70192  1  0  0  0  0
 70193  1  0  0  0  0
 70194  1  0  0  0  0
 71195  1  0  0  0  0
 87196  1  0  0  0  0
 88197  1  0  0  0  0
 89198  1  0  0  0  0
 91199  1  0  0  0  0
 91200  1  0  0  0  0
 92201  1  0  0  0  0
 92202  1  0  0  0  0
 92203  1  0  0  0  0
 93204  1  0  0  0  0
105205  1  0  0  0  0
105206  1  0  0  0  0
106207  1  0  0  0  0
106208  1  0  0  0  0
106209  1  0  0  0  0
107210  1  0  0  0  0
107211  1  0  0  0  0
108212  1  0  0  0  0
108213  1  0  0  0  0
108214  1  0  0  0  0
110215  1  0  0  0  0
114216  1  0  0  0  0
115217  1  0  0  0  0
116218  1  0  0  0  0
119219  1  0  0  0  0
119220  1  0  0  0  0
120221  1  0  0  0  0
120222  1  0  0  0  0
120223  1  0  0  0  0
121224  1  0  0  0  0
126225  1  0  0  0  0
127226  1  0  0  0  0
128227  1  0  0  0  0
131228  1  0  0  0  0
131229  1  0  0  0  0
132230  1  0  0  0  0
132231  1  0  0  0  0
132232  1  0  0  0  0
133233  1  0  0  0  0
136234  1  0  0  0  0
139235  1  0  0  0  0
146236  1  0  0  0  0
146237  1  0  0  0  0
147238  1  0  0  0  0
147239  1  0  0  0  0
147240  1  0  0  0  0
M  END
