262

C         11.73600        2.77120       -0.00600
C         11.75950        4.01980        0.57610
C         10.59980        4.86270        0.87120
O          9.41820        4.58840        0.73850
C         11.13560        6.15300        1.34320
C         10.40510        7.26700        1.74640
C         11.18040        8.33040        2.14270
C         12.57990        8.28610        2.14070
C         13.31250        7.18950        1.75020
C         12.54310        6.09870        1.33870
C         12.95330        4.76850        0.88570
C         14.25290        4.32490        0.81250
C         15.38560        5.12780        1.04910
N         16.35800        5.72070        1.20260
C         14.65520        3.00710        0.52530
N         15.07720        1.95350        0.33850
C         12.70520        9.69950        2.65280
C         13.08220       10.80540        1.63650
C         12.60510       10.32820        0.28760
C         11.27940       10.37040        0.28890
C         10.83640       10.87650        1.63930
C         11.99120       11.83870        1.95990
C         11.14480        9.74880        2.65520
C         10.66150        1.93840       -0.31000
C         10.80940        0.67050       -0.93150
N         11.96070        0.19490       -1.50090
C         12.85050        1.03360       -2.19860
C         14.22280        0.80230       -2.13870
C         15.09170        1.63230       -2.81780
C         14.62520        2.71000       -3.56170
C         15.58850        3.62170       -4.25720
C         13.25290        2.91920       -3.63160
C         12.37040        2.08990       -2.96880
C         12.22670       -1.18640       -1.45590
C         12.74030       -1.84450       -2.57040
C         13.03360       -3.19030       -2.50230
C         12.81950       -3.91580       -1.33440
C         13.17660       -5.36970       -1.27620
C         12.29000       -3.25510       -0.23410
C         11.99920       -1.90570       -0.28670
C          9.60020       -0.04500       -0.90000
S          9.10990       -1.62510       -1.42350
C          7.46860       -1.31150       -0.88910
C          7.33100       -0.06320       -0.29920
N          6.17700        0.42400        0.29690
C          5.36020       -0.38250        1.09770
C          5.88890       -1.42020        1.86340
C          5.05460       -2.22410        2.61440
C          3.67830       -2.03300        2.62370
C          2.78590       -2.94550        3.40750
C          3.16300       -0.97740        1.88320
C          3.98400       -0.16080        1.13100
C          5.93250        1.80470        0.19510
C          6.14090        2.45610       -1.01770
C          5.97050        3.82230       -1.10930
C          5.57910        4.57010       -0.00600
C          5.45380        6.05910       -0.10230
C          5.34280        3.90700        1.19140
C          5.51790        2.54200        1.29920
C          8.54880        0.65700       -0.32520
S          8.99320        2.24460        0.18150
C          6.39060       -2.25400       -0.99700
C          6.25530       -3.49060       -0.40360
C          7.35900       -4.29920        0.11470
C          8.46740       -4.55750       -0.68650
C          9.49690       -5.34460       -0.20800
C          9.43110       -5.88030        1.06590
C          8.32010       -5.65510        1.86940
C          8.24570       -6.21360        3.26160
C          8.77640       -5.19680        4.27430
C          7.28920       -4.86740        1.38130
C          4.89850       -3.87820       -0.34390
S          4.08610       -5.16080        0.51690
C          2.56560       -4.48690        0.03710
C          1.19600       -4.66790        0.28690
C          0.52800       -5.48250        1.22610
C         -0.88220       -5.29910        1.42290
N         -1.36050       -6.05850        2.39570
S         -0.14380       -6.93570        3.00750
N          1.04350       -6.37410        2.05790
C         -1.57890       -4.41380        0.57220
C         -2.95030       -4.12830        0.45290
S         -4.44140       -4.47400        1.26070
C         -5.27920       -3.46710        0.10740
C         -6.62740       -3.06120       -0.01910
C         -7.73820       -3.51720        0.81500
C         -7.54850       -3.79580        2.16630
C         -8.61550       -4.20340        2.94340
C         -9.87380       -4.35170        2.38690
C        -10.07890       -4.10660        1.03510
C        -11.42640       -4.30600        0.40230
C        -11.46390       -5.61320       -0.39060
C         -9.00360       -3.69570        0.26170
C         -6.78110       -2.18920       -1.07530
S         -5.29740       -1.93680       -1.98000
C         -4.43410       -2.92590       -0.85960
C         -3.09720       -3.29170       -0.65270
N         -1.87310       -3.01230       -1.20040
C         -0.91590       -3.67790       -0.44800
C          0.50400       -3.69680       -0.48900
N          1.44220       -2.91250       -1.13720
C          2.68340       -3.37390       -0.79630
C          4.02260       -3.00030       -0.97730
S          4.86630       -1.64970       -1.64320
C          1.29090       -1.66130       -1.84160
C          0.61910       -0.59310       -0.98330
C         -1.79490       -2.52390       -2.55980
C         -1.26500       -3.59430       -3.51020
C         -7.93310       -1.37420       -1.34130
C         -8.52640       -0.50480       -0.43780
N         -8.07270       -0.23660        0.83900
C         -6.70280       -0.26680        1.13690
C         -6.24940       -0.82970        2.32860
C         -4.89730       -0.92170        2.58320
C         -3.95790       -0.44980        1.67200
C         -2.49260       -0.60580        1.94450
C         -4.41790        0.15670        0.51220
C         -5.77070        0.25500        0.24490
C         -9.00890       -0.03110        1.86780
C         -8.75210        0.90070        2.86890
C         -9.66400        1.09180        3.88820
C        -10.84920        0.36790        3.93890
C        -11.82510        0.55010        5.05900
C        -11.09960       -0.55390        2.92900
C        -10.19910       -0.75200        1.90240
C         -9.67230        0.09700       -1.01080
S        -10.81160        1.26930       -0.46030
C        -11.67240        1.20220       -2.00500
C        -11.04410        0.33370       -2.91240
N        -11.48430        0.00820       -4.16760
C        -12.03270        0.96330       -5.03240
C        -13.10540        0.63910       -5.85810
C        -13.63940        1.59230       -6.70250
C        -13.12780        2.88390       -6.74580
C        -13.73720        3.92810       -7.62740
C        -12.04800        3.19510       -5.92640
C        -11.50000        2.25100       -5.08250
C        -11.39920       -1.34080       -4.56960
C        -11.72740       -2.35220       -3.66950
C        -11.62760       -3.67300       -4.05470
C        -11.21420       -4.01810       -5.33720
C        -11.08960       -5.45720       -5.73260
C        -10.90680       -2.99940       -6.23070
C        -10.99280       -1.67200       -5.85700
C         -9.93040       -0.29630       -2.31280
S         -8.73630       -1.40120       -2.89920
C        -12.83000        1.96830       -2.20500
C        -13.70480        2.43940       -1.26130
C        -14.55970        3.61020       -1.58700
O        -14.70600        4.12380       -2.67750
C        -15.13230        4.01910       -0.29920
C        -14.74110        3.08120        0.71370
C        -15.23220        3.39470        1.93940
S        -16.17230        4.84490        1.87360
C        -15.91400        5.03380        0.15440
C        -16.49950        6.15980       -0.60780
C        -13.95290        2.02950        0.09880
C        -13.74720        0.78940        0.65920
C        -14.16280        0.51470        1.97280
N        -14.50560        0.28270        3.04500
C        -13.24670       -0.32450       -0.03360
N        -12.90550       -1.27640       -0.58190
H         12.70180        2.35460       -0.26120
H          9.32620        7.25370        1.73990
H         14.38940        7.17130        1.76060
H         13.22010        9.81810        3.60430
H         14.11640       11.13470        1.69080
H         13.25810        9.96390       -0.48380
H         10.60350       10.04820       -0.48150
H          9.82530       11.27180        1.69600
H         12.00300       12.17180        2.99690
H         12.01770       12.70160        1.29600
H         10.64180        9.90050        3.60850
H         14.60230       -0.01520       -1.54670
H         16.15390        1.45170       -2.75110
H         15.06540        4.33880       -4.88480
H         16.27790        3.05010       -4.87640
H         16.17960        4.17020       -3.52390
H         12.86600        3.73970       -4.21870
H         11.30620        2.26260       -3.03720
H         12.90930       -1.29370       -3.48370
H         13.43610       -3.69040       -3.37140
H         12.69620       -5.91660       -2.08680
H         12.87700       -5.80830       -0.32790
H         14.25330       -5.49550       -1.38830
H         12.11130       -3.79700        0.68290
H         11.61050       -1.39940        0.58460
H          6.95610       -1.58930        1.87180
H          5.47960       -3.01480        3.21530
H          2.81290       -3.95300        2.99180
H          1.75640       -2.59570        3.38660
H          3.11410       -3.00650        4.44410
H          2.09710       -0.79620        1.89880
H          3.56960        0.65130        0.55100
H          6.44480        1.88350       -1.88250
H          6.14940        4.31790       -2.05260
H          6.44010        6.51150        0.00390
H          5.05150        6.35530       -1.06910
H          4.81260        6.45050        0.68390
H          5.03560        4.46990        2.06120
H          5.35190        2.04190        2.24230
H          8.50450       -4.16940       -1.69330
H         10.34900       -5.54330       -0.83870
H         10.24000       -6.49470        1.43600
H          7.20960       -6.45730        3.50450
H          8.83660       -7.12920        3.32650
H          9.81380       -4.95140        4.05730
H          8.71880       -5.59820        5.28340
H          8.19340       -4.27930        4.23180
H          6.41830       -4.68960        1.99300
H         -6.57070       -3.67880        2.60640
H         -8.46430       -4.40640        3.99350
H        -10.70290       -4.66430        3.00510
H        -11.65050       -3.47200       -0.26610
H        -12.19590       -4.33060        1.17610
H        -11.26130       -6.45880        0.26370
H        -10.71150       -5.60360       -1.17660
H        -12.44300       -5.75290       -0.84330
H         -9.15360       -3.52320       -0.79440
H          0.75180       -1.81910       -2.77870
H          2.29880       -1.32830       -2.10140
H          0.45220        0.30440       -1.57370
H          1.26090       -0.33980       -0.14470
H         -0.33290       -0.94350       -0.59240
H         -2.81360       -2.25420       -2.84940
H         -1.19420       -1.61560       -2.61390
H         -1.21850       -3.20140       -4.52240
H         -0.27180       -3.92460       -3.21450
H         -1.92560       -4.45830       -3.50320
H         -6.96800       -1.20930        3.03880
H         -4.55990       -1.38390        3.49960
H         -1.90090       -0.06050        1.21280
H         -2.24600       -0.23580        2.93830
H         -2.21220       -1.65910        1.90400
H         -3.71040        0.55470       -0.20190
H         -6.10950        0.72940       -0.66500
H         -7.83450        1.47030        2.84300
H         -9.45040        1.82000        4.65770
H        -11.66100        1.49580        5.57000
H        -12.84570        0.51680        4.68270
H        -11.71210       -0.25500        5.78560
H        -12.01120       -1.13240        2.95070
H        -10.40990       -1.47940        1.13380
H        -13.52170       -0.35660       -5.82330
H        -14.47810        1.33040       -7.33080
H        -14.31180        3.47480       -8.43130
H        -14.40810        4.55560       -7.04010
H        -12.97020        4.56950       -8.05650
H        -11.63160        4.19130       -5.94990
H        -10.65760        2.50210       -4.45400
H        -12.07130       -2.09550       -2.67820
H        -11.88520       -4.45020       -3.35050
H        -11.89050       -6.04880       -5.29440
H        -10.14210       -5.86020       -5.37320
H        -11.11720       -5.56930       -6.81360
H        -10.58750       -3.24670       -7.23280
H        -10.74300       -0.88820       -6.55690
H        -13.04070        2.29570       -3.21810
H        -15.10610        2.89450        2.87840
H        -16.13940        7.11360       -0.22280
H        -16.21650        6.06460       -1.65370
H        -17.58610        6.15630       -0.52700
