
  xtb     02222202163D
 energy: -438.695047826357 gnorm: 0.000612094218 xtb: 6.4.1 (unknown)
281311  0     0  0            999 V2000
    8.7573   -4.6368    3.0776 C   0  0  0  0  0  0  0  0  0  0  0  0
    7.6534   -4.8030    3.8697 C   0  0  0  0  0  0  0  0  0  0  0  0
    7.5187   -6.0181    4.7067 C   0  0  0  0  0  0  0  0  0  0  0  0
    8.2402   -6.9936    4.6887 O   0  0  0  0  0  0  0  0  0  0  0  0
    6.3496   -5.7752    5.5778 C   0  0  0  0  0  0  0  0  0  0  0  0
    5.8457   -6.6063    6.5754 C   0  0  0  0  0  0  0  0  0  0  0  0
    4.7308   -6.1112    7.2099 C   0  0  0  0  0  0  0  0  0  0  0  0
    4.1744   -4.8639    6.8988 C   0  0  0  0  0  0  0  0  0  0  0  0
    4.6591   -4.0332    5.9175 C   0  0  0  0  0  0  0  0  0  0  0  0
    5.7708   -4.5351    5.2384 C   0  0  0  0  0  0  0  0  0  0  0  0
    6.4806   -3.9910    4.0818 C   0  0  0  0  0  0  0  0  0  0  0  0
    5.9345   -3.0783    3.2105 C   0  0  0  0  0  0  0  0  0  0  0  0
    4.7237   -2.3928    3.4232 C   0  0  0  0  0  0  0  0  0  0  0  0
    3.7512   -1.7880    3.5193 N   0  0  0  0  0  0  0  0  0  0  0  0
    6.4234   -2.7977    1.9215 C   0  0  0  0  0  0  0  0  0  0  0  0
    6.6941   -2.5678    0.8275 N   0  0  0  0  0  0  0  0  0  0  0  0
    3.0740   -5.0079    7.9190 C   0  0  0  0  0  0  0  0  0  0  0  0
    1.6606   -5.3630    7.3954 C   0  0  0  0  0  0  0  0  0  0  0  0
    1.8604   -6.0998    6.0942 C   0  0  0  0  0  0  0  0  0  0  0  0
    2.3775   -7.2878    6.3777 C   0  0  0  0  0  0  0  0  0  0  0  0
    2.5371   -7.3756    7.8752 C   0  0  0  0  0  0  0  0  0  0  0  0
    1.3273   -6.5405    8.3249 C   0  0  0  0  0  0  0  0  0  0  0  0
    3.6838   -6.4051    8.2565 C   0  0  0  0  0  0  0  0  0  0  0  0
    9.1889   -3.4378    2.4791 C   0  0  0  0  0  0  0  0  0  0  0  0
    9.7468   -3.2617    1.2013 C   0  0  0  0  0  0  0  0  0  0  0  0
   10.1567   -4.2670    0.3724 N   0  0  0  0  0  0  0  0  0  0  0  0
   10.7531   -5.4300    0.8851 C   0  0  0  0  0  0  0  0  0  0  0  0
   10.4555   -6.6734    0.3349 C   0  0  0  0  0  0  0  0  0  0  0  0
   11.0425   -7.8139    0.8461 C   0  0  0  0  0  0  0  0  0  0  0  0
   11.9327   -7.7490    1.9115 C   0  0  0  0  0  0  0  0  0  0  0  0
   12.5312   -8.9915    2.4922 C   0  0  0  0  0  0  0  0  0  0  0  0
   12.2332   -6.5011    2.4464 C   0  0  0  0  0  0  0  0  0  0  0  0
   11.6580   -5.3525    1.9420 C   0  0  0  0  0  0  0  0  0  0  0  0
    9.9656   -4.1559   -1.0205 C   0  0  0  0  0  0  0  0  0  0  0  0
   10.9779   -4.5375   -1.8942 C   0  0  0  0  0  0  0  0  0  0  0  0
   10.7858   -4.4348   -3.2582 C   0  0  0  0  0  0  0  0  0  0  0  0
    9.5930   -3.9482   -3.7790 C   0  0  0  0  0  0  0  0  0  0  0  0
    9.3955   -3.8098   -5.2572 C   0  0  0  0  0  0  0  0  0  0  0  0
    8.5871   -3.5752   -2.8948 C   0  0  0  0  0  0  0  0  0  0  0  0
    8.7601   -3.6807   -1.5293 C   0  0  0  0  0  0  0  0  0  0  0  0
    9.7121   -1.8930    0.8352 C   0  0  0  0  0  0  0  0  0  0  0  0
    9.9078   -1.0298   -0.6534 S   0  0  0  0  0  0  0  0  0  0  0  0
    9.3484    0.4513    0.0994 C   0  0  0  0  0  0  0  0  0  0  0  0
    9.0671    0.2882    1.4461 C   0  0  0  0  0  0  0  0  0  0  0  0
    8.5327    1.2551    2.2921 N   0  0  0  0  0  0  0  0  0  0  0  0
    7.3747    1.9475    1.9188 C   0  0  0  0  0  0  0  0  0  0  0  0
    7.1757    3.2655    2.3246 C   0  0  0  0  0  0  0  0  0  0  0  0
    6.0482    3.9544    1.9323 C   0  0  0  0  0  0  0  0  0  0  0  0
    5.0812    3.3571    1.1314 C   0  0  0  0  0  0  0  0  0  0  0  0
    3.8515    4.1206    0.7446 C   0  0  0  0  0  0  0  0  0  0  0  0
    5.2772    2.0383    0.7444 C   0  0  0  0  0  0  0  0  0  0  0  0
    6.4025    1.3349    1.1318 C   0  0  0  0  0  0  0  0  0  0  0  0
    9.1436    1.4472    3.5351 C   0  0  0  0  0  0  0  0  0  0  0  0
   10.5185    1.2716    3.6676 C   0  0  0  0  0  0  0  0  0  0  0  0
   11.1354    1.4790    4.8855 C   0  0  0  0  0  0  0  0  0  0  0  0
   10.4079    1.8652    6.0021 C   0  0  0  0  0  0  0  0  0  0  0  0
   11.0714    2.1047    7.3242 C   0  0  0  0  0  0  0  0  0  0  0  0
    9.0313    2.0138    5.8687 C   0  0  0  0  0  0  0  0  0  0  0  0
    8.4011    1.8019    4.6606 C   0  0  0  0  0  0  0  0  0  0  0  0
    9.2830   -1.0464    1.8445 C   0  0  0  0  0  0  0  0  0  0  0  0
    8.8645   -1.8988    3.2819 S   0  0  0  0  0  0  0  0  0  0  0  0
    8.9139    1.5747   -0.6816 C   0  0  0  0  0  0  0  0  0  0  0  0
    9.0509    2.9178   -0.3906 C   0  0  0  0  0  0  0  0  0  0  0  0
   10.0940    3.4092    0.5050 C   0  0  0  0  0  0  0  0  0  0  0  0
   11.3156    2.7406    0.5750 C   0  0  0  0  0  0  0  0  0  0  0  0
   12.2937    3.1699    1.4505 C   0  0  0  0  0  0  0  0  0  0  0  0
   12.0610    4.2532    2.2780 C   0  0  0  0  0  0  0  0  0  0  0  0
   10.8578    4.9450    2.2095 C   0  0  0  0  0  0  0  0  0  0  0  0
   10.5908    6.0860    3.1485 C   0  0  0  0  0  0  0  0  0  0  0  0
   10.1971    5.5541    4.5286 C   0  0  0  0  0  0  0  0  0  0  0  0
    9.8930    4.5302    1.3053 C   0  0  0  0  0  0  0  0  0  0  0  0
    8.0625    3.6804   -1.0595 C   0  0  0  0  0  0  0  0  0  0  0  0
    7.5349    5.3460   -0.9517 S   0  0  0  0  0  0  0  0  0  0  0  0
    6.1323    4.9598   -1.8974 C   0  0  0  0  0  0  0  0  0  0  0  0
    4.8891    5.5128   -2.2611 C   0  0  0  0  0  0  0  0  0  0  0  0
    4.3478    6.8068   -2.1015 C   0  0  0  0  0  0  0  0  0  0  0  0
    2.9805    7.0455   -2.4766 C   0  0  0  0  0  0  0  0  0  0  0  0
    2.6162    8.3030   -2.2846 N   0  0  0  0  0  0  0  0  0  0  0  0
    3.8797    9.1191   -1.6836 S   0  0  0  0  0  0  0  0  0  0  0  0
    4.9405    7.8956   -1.6373 N   0  0  0  0  0  0  0  0  0  0  0  0
    2.1831    5.9534   -2.8850 C   0  0  0  0  0  0  0  0  0  0  0  0
    0.7869    5.8186   -2.9942 C   0  0  0  0  0  0  0  0  0  0  0  0
   -0.6575    6.7630   -2.8057 S   0  0  0  0  0  0  0  0  0  0  0  0
   -1.6099    5.2948   -2.8877 C   0  0  0  0  0  0  0  0  0  0  0  0
   -2.9848    5.0251   -2.6930 C   0  0  0  0  0  0  0  0  0  0  0  0
   -3.9755    6.0677   -2.4128 C   0  0  0  0  0  0  0  0  0  0  0  0
   -3.7163    7.0063   -1.4175 C   0  0  0  0  0  0  0  0  0  0  0  0
   -4.6477    7.9870   -1.1375 C   0  0  0  0  0  0  0  0  0  0  0  0
   -5.8404    8.0367   -1.8375 C   0  0  0  0  0  0  0  0  0  0  0  0
   -6.1088    7.1170   -2.8428 C   0  0  0  0  0  0  0  0  0  0  0  0
   -7.4266    7.1301   -3.5614 C   0  0  0  0  0  0  0  0  0  0  0  0
   -8.4370    6.2658   -2.8046 C   0  0  0  0  0  0  0  0  0  0  0  0
   -5.1633    6.1433   -3.1303 C   0  0  0  0  0  0  0  0  0  0  0  0
   -3.2307    3.6673   -2.6985 C   0  0  0  0  0  0  0  0  0  0  0  0
   -1.7816    2.7222   -3.0257 S   0  0  0  0  0  0  0  0  0  0  0  0
   -0.8320    4.1586   -3.0993 C   0  0  0  0  0  0  0  0  0  0  0  0
    0.5323    4.4601   -3.1828 C   0  0  0  0  0  0  0  0  0  0  0  0
    1.7039    3.7637   -3.2710 N   0  0  0  0  0  0  0  0  0  0  0  0
    2.7405    4.6546   -3.0588 C   0  0  0  0  0  0  0  0  0  0  0  0
    4.1328    4.4653   -2.8579 C   0  0  0  0  0  0  0  0  0  0  0  0
    4.9344    3.3362   -2.9411 N   0  0  0  0  0  0  0  0  0  0  0  0
    6.1214    3.6358   -2.3296 C   0  0  0  0  0  0  0  0  0  0  0  0
    7.2239    2.9118   -1.8651 C   0  0  0  0  0  0  0  0  0  0  0  0
    7.6660    1.2477   -1.8739 S   0  0  0  0  0  0  0  0  0  0  0  0
    4.8798    2.2237   -3.8661 C   0  0  0  0  0  0  0  0  0  0  0  0
    4.6530    2.6978   -5.2990 C   0  0  0  0  0  0  0  0  0  0  0  0
    1.6677    2.3213   -3.3192 C   0  0  0  0  0  0  0  0  0  0  0  0
    1.9822    1.6929   -1.9646 C   0  0  0  0  0  0  0  0  0  0  0  0
   -4.3645    2.8901   -2.2937 C   0  0  0  0  0  0  0  0  0  0  0  0
   -4.2579    1.7557   -1.5397 C   0  0  0  0  0  0  0  0  0  0  0  0
   -5.4914    1.1304   -1.2529 C   0  0  0  0  0  0  0  0  0  0  0  0
   -5.7171    0.0004   -0.4413 C   0  0  0  0  0  0  0  0  0  0  0  0
   -4.6130   -0.7038    0.1802 C   0  0  0  0  0  0  0  0  0  0  0  0
   -3.4094   -1.0504   -0.3731 C   0  0  0  0  0  0  0  0  0  0  0  0
   -2.5455   -1.6780    0.5405 C   0  0  0  0  0  0  0  0  0  0  0  0
   -3.0639   -1.8147    1.7963 C   0  0  0  0  0  0  0  0  0  0  0  0
   -2.2665   -2.5304    3.3525 Si  0  0  0  0  0  4  0  0  0  0  0  0
   -2.9880   -4.2885    3.5928 C   0  0  0  0  0  0  0  0  0  0  0  0
   -2.3939   -5.0544    4.7701 C   0  0  0  0  0  0  0  0  0  0  0  0
   -2.7737   -1.4068    4.8163 C   0  0  0  0  0  0  0  0  0  0  0  0
   -2.3898    0.0568    4.6154 C   0  0  0  0  0  0  0  0  0  0  0  0
   -0.3723   -2.5280    3.0765 C   0  0  0  0  0  0  0  0  0  0  0  0
    0.4465   -2.6057    4.3620 C   0  0  0  0  0  0  0  0  0  0  0  0
   -4.6713   -1.1774    1.8525 S   0  0  0  0  0  0  0  0  0  0  0  0
   -7.0425   -0.3769   -0.2687 C   0  0  0  0  0  0  0  0  0  0  0  0
   -8.1298    0.2947   -0.8910 C   0  0  0  0  0  0  0  0  0  0  0  0
   -7.8996    1.4416   -1.6863 C   0  0  0  0  0  0  0  0  0  0  0  0
   -8.9949    2.1510   -2.3105 C   0  0  0  0  0  0  0  0  0  0  0  0
  -10.2044    2.5013   -1.7724 C   0  0  0  0  0  0  0  0  0  0  0  0
  -11.0386    3.1635   -2.6871 C   0  0  0  0  0  0  0  0  0  0  0  0
  -10.4947    3.3207   -3.9310 C   0  0  0  0  0  0  0  0  0  0  0  0
  -11.3111    4.0173   -5.4842 Si  0  0  0  0  0  4  0  0  0  0  0  0
  -10.0203    4.1119   -6.8913 C   0  0  0  0  0  0  0  0  0  0  0  0
   -8.8633    5.0652   -6.6077 C   0  0  0  0  0  0  0  0  0  0  0  0
  -12.0007    5.7526   -5.0539 C   0  0  0  0  0  0  0  0  0  0  0  0
  -12.8533    6.3613   -6.1621 C   0  0  0  0  0  0  0  0  0  0  0  0
  -12.7239    2.8025   -5.9417 C   0  0  0  0  0  0  0  0  0  0  0  0
  -13.0969    2.7939   -7.4210 C   0  0  0  0  0  0  0  0  0  0  0  0
   -8.9004    2.6521   -3.9719 S   0  0  0  0  0  0  0  0  0  0  0  0
   -6.5757    1.8237   -1.8437 C   0  0  0  0  0  0  0  0  0  0  0  0
   -6.0248    3.2344   -2.7131 S   0  0  0  0  0  0  0  0  0  0  0  0
   -9.3591   -0.3479   -0.6561 C   0  0  0  0  0  0  0  0  0  0  0  0
   -9.2580   -1.4655    0.1372 C   0  0  0  0  0  0  0  0  0  0  0  0
   -7.5905   -1.7489    0.6424 S   0  0  0  0  0  0  0  0  0  0  0  0
  -10.2180   -2.3865    0.6115 C   0  0  0  0  0  0  0  0  0  0  0  0
  -11.5372   -2.5590    0.2998 C   0  0  0  0  0  0  0  0  0  0  0  0
  -12.3461   -1.8863   -0.7442 C   0  0  0  0  0  0  0  0  0  0  0  0
  -12.0899   -0.8879   -1.3867 O   0  0  0  0  0  0  0  0  0  0  0  0
  -13.5802   -2.6843   -0.8720 C   0  0  0  0  0  0  0  0  0  0  0  0
  -14.6048   -2.4844   -1.7956 C   0  0  0  0  0  0  0  0  0  0  0  0
  -15.6294   -3.3941   -1.6989 C   0  0  0  0  0  0  0  0  0  0  0  0
  -15.6367   -4.4270   -0.7514 C   0  0  0  0  0  0  0  0  0  0  0  0
  -14.6379   -4.6295    0.1704 C   0  0  0  0  0  0  0  0  0  0  0  0
  -13.5838   -3.7132    0.0887 C   0  0  0  0  0  0  0  0  0  0  0  0
  -12.3654   -3.6040    0.8848 C   0  0  0  0  0  0  0  0  0  0  0  0
  -12.1018   -4.3180    2.0243 C   0  0  0  0  0  0  0  0  0  0  0  0
  -10.9840   -4.1497    2.8701 C   0  0  0  0  0  0  0  0  0  0  0  0
  -10.1281   -4.0726    3.6323 N   0  0  0  0  0  0  0  0  0  0  0  0
  -12.9530   -5.3095    2.5566 C   0  0  0  0  0  0  0  0  0  0  0  0
  -13.5892   -6.1304    3.0464 N   0  0  0  0  0  0  0  0  0  0  0  0
  -16.9580   -4.9705   -1.2356 C   0  0  0  0  0  0  0  0  0  0  0  0
  -16.9022   -6.2387   -2.1133 C   0  0  0  0  0  0  0  0  0  0  0  0
  -18.2405   -6.2514   -2.8161 C   0  0  0  0  0  0  0  0  0  0  0  0
  -18.2349   -5.2730   -3.7124 C   0  0  0  0  0  0  0  0  0  0  0  0
  -16.8925   -4.5827   -3.6306 C   0  0  0  0  0  0  0  0  0  0  0  0
  -16.0026   -5.7786   -3.2678 C   0  0  0  0  0  0  0  0  0  0  0  0
  -16.9507   -3.8183   -2.2909 C   0  0  0  0  0  0  0  0  0  0  0  0
    9.3494   -5.5326    2.9219 H   0  0  0  0  0  0  0  0  0  0  0  0
    6.3101   -7.5556    6.7925 H   0  0  0  0  0  0  0  0  0  0  0  0
    4.2241   -3.0739    5.6906 H   0  0  0  0  0  0  0  0  0  0  0  0
    3.0500   -4.2589    8.7080 H   0  0  0  0  0  0  0  0  0  0  0  0
    0.9650   -4.5283    7.3723 H   0  0  0  0  0  0  0  0  0  0  0  0
    1.6711   -5.6712    5.1275 H   0  0  0  0  0  0  0  0  0  0  0  0
    2.7022   -8.0514    5.6952 H   0  0  0  0  0  0  0  0  0  0  0  0
    2.6365   -8.3756    8.2895 H   0  0  0  0  0  0  0  0  0  0  0  0
    1.3496   -6.2787    9.3820 H   0  0  0  0  0  0  0  0  0  0  0  0
    0.3761   -7.0122    8.0824 H   0  0  0  0  0  0  0  0  0  0  0  0
    4.0485   -6.5732    9.2681 H   0  0  0  0  0  0  0  0  0  0  0  0
    9.7557   -6.7381   -0.4850 H   0  0  0  0  0  0  0  0  0  0  0  0
   10.7949   -8.7735    0.4166 H   0  0  0  0  0  0  0  0  0  0  0  0
   13.5427   -8.8069    2.8472 H   0  0  0  0  0  0  0  0  0  0  0  0
   11.9323   -9.3230    3.3410 H   0  0  0  0  0  0  0  0  0  0  0  0
   12.5524   -9.7942    1.7591 H   0  0  0  0  0  0  0  0  0  0  0  0
   12.9286   -6.4280    3.2697 H   0  0  0  0  0  0  0  0  0  0  0  0
   11.9024   -4.3889    2.3649 H   0  0  0  0  0  0  0  0  0  0  0  0
   11.9113   -4.9117   -1.4995 H   0  0  0  0  0  0  0  0  0  0  0  0
   11.5796   -4.7324   -3.9280 H   0  0  0  0  0  0  0  0  0  0  0  0
    9.5526   -2.7732   -5.5569 H   0  0  0  0  0  0  0  0  0  0  0  0
    8.3821   -4.0883   -5.5389 H   0  0  0  0  0  0  0  0  0  0  0  0
   10.0984   -4.4322   -5.8053 H   0  0  0  0  0  0  0  0  0  0  0  0
    7.6496   -3.2024   -3.2803 H   0  0  0  0  0  0  0  0  0  0  0  0
    7.9652   -3.4020   -0.8540 H   0  0  0  0  0  0  0  0  0  0  0  0
    7.9191    3.7437    2.9427 H   0  0  0  0  0  0  0  0  0  0  0  0
    5.9166    4.9799    2.2463 H   0  0  0  0  0  0  0  0  0  0  0  0
    3.3915    3.7062   -0.1483 H   0  0  0  0  0  0  0  0  0  0  0  0
    4.0898    5.1662    0.5602 H   0  0  0  0  0  0  0  0  0  0  0  0
    3.1192    4.0802    1.5518 H   0  0  0  0  0  0  0  0  0  0  0  0
    4.5337    1.5390    0.1397 H   0  0  0  0  0  0  0  0  0  0  0  0
    6.5226    0.3031    0.8332 H   0  0  0  0  0  0  0  0  0  0  0  0
   11.1046    0.9881    2.8064 H   0  0  0  0  0  0  0  0  0  0  0  0
   12.2053    1.3470    4.9626 H   0  0  0  0  0  0  0  0  0  0  0  0
   10.7841    3.0754    7.7258 H   0  0  0  0  0  0  0  0  0  0  0  0
   10.7667    1.3444    8.0434 H   0  0  0  0  0  0  0  0  0  0  0  0
   12.1538    2.0721    7.2281 H   0  0  0  0  0  0  0  0  0  0  0  0
    8.4427    2.2948    6.7304 H   0  0  0  0  0  0  0  0  0  0  0  0
    7.3291    1.9054    4.5823 H   0  0  0  0  0  0  0  0  0  0  0  0
   11.5012    1.8950   -0.0709 H   0  0  0  0  0  0  0  0  0  0  0  0
   13.2414    2.6526    1.4920 H   0  0  0  0  0  0  0  0  0  0  0  0
   12.8217    4.5734    2.9750 H   0  0  0  0  0  0  0  0  0  0  0  0
   11.4876    6.7020    3.2458 H   0  0  0  0  0  0  0  0  0  0  0  0
    9.7871    6.7113    2.7559 H   0  0  0  0  0  0  0  0  0  0  0  0
   10.0238    6.3770    5.2183 H   0  0  0  0  0  0  0  0  0  0  0  0
    9.2890    4.9586    4.4654 H   0  0  0  0  0  0  0  0  0  0  0  0
   10.9832    4.9192    4.9312 H   0  0  0  0  0  0  0  0  0  0  0  0
    8.9632    5.0732    1.2321 H   0  0  0  0  0  0  0  0  0  0  0  0
   -2.7939    6.9555   -0.8590 H   0  0  0  0  0  0  0  0  0  0  0  0
   -4.4445    8.7134   -0.3644 H   0  0  0  0  0  0  0  0  0  0  0  0
   -6.5688    8.8007   -1.6063 H   0  0  0  0  0  0  0  0  0  0  0  0
   -7.3027    6.7386   -4.5721 H   0  0  0  0  0  0  0  0  0  0  0  0
   -7.8039    8.1524   -3.6309 H   0  0  0  0  0  0  0  0  0  0  0  0
   -8.0683    5.2465   -2.7202 H   0  0  0  0  0  0  0  0  0  0  0  0
   -9.3925    6.2431   -3.3227 H   0  0  0  0  0  0  0  0  0  0  0  0
   -8.5928    6.6555   -1.8011 H   0  0  0  0  0  0  0  0  0  0  0  0
   -5.3429    5.4486   -3.9382 H   0  0  0  0  0  0  0  0  0  0  0  0
    4.1282    1.4936   -3.5630 H   0  0  0  0  0  0  0  0  0  0  0  0
    5.8492    1.7232   -3.8011 H   0  0  0  0  0  0  0  0  0  0  0  0
    5.4654    3.3518   -5.6077 H   0  0  0  0  0  0  0  0  0  0  0  0
    3.7216    3.2522   -5.3891 H   0  0  0  0  0  0  0  0  0  0  0  0
    4.6205    1.8440   -5.9708 H   0  0  0  0  0  0  0  0  0  0  0  0
    0.6499    2.0480   -3.6093 H   0  0  0  0  0  0  0  0  0  0  0  0
    2.3331    1.9530   -4.0994 H   0  0  0  0  0  0  0  0  0  0  0  0
    1.9302    0.6098   -2.0361 H   0  0  0  0  0  0  0  0  0  0  0  0
    2.9752    1.9749   -1.6235 H   0  0  0  0  0  0  0  0  0  0  0  0
    1.2572    2.0247   -1.2249 H   0  0  0  0  0  0  0  0  0  0  0  0
   -3.3172    1.4070   -1.1544 H   0  0  0  0  0  0  0  0  0  0  0  0
   -3.1704   -0.8919   -1.4104 H   0  0  0  0  0  0  0  0  0  0  0  0
   -1.5586   -2.0187    0.2828 H   0  0  0  0  0  0  0  0  0  0  0  0
   -4.0680   -4.2121    3.7307 H   0  0  0  0  0  0  0  0  0  0  0  0
   -2.8369   -4.8705    2.6819 H   0  0  0  0  0  0  0  0  0  0  0  0
   -2.5211   -4.4981    5.6955 H   0  0  0  0  0  0  0  0  0  0  0  0
   -1.3316   -5.2289    4.6186 H   0  0  0  0  0  0  0  0  0  0  0  0
   -2.8800   -6.0216    4.8862 H   0  0  0  0  0  0  0  0  0  0  0  0
   -3.8541   -1.4691    4.9573 H   0  0  0  0  0  0  0  0  0  0  0  0
   -2.3200   -1.7687    5.7398 H   0  0  0  0  0  0  0  0  0  0  0  0
   -2.8695    0.4567    3.7252 H   0  0  0  0  0  0  0  0  0  0  0  0
   -1.3144    0.1632    4.4965 H   0  0  0  0  0  0  0  0  0  0  0  0
   -2.7006    0.6585    5.4679 H   0  0  0  0  0  0  0  0  0  0  0  0
   -0.0823   -1.6232    2.5409 H   0  0  0  0  0  0  0  0  0  0  0  0
   -0.0957   -3.3658    2.4341 H   0  0  0  0  0  0  0  0  0  0  0  0
    0.2351   -3.5247    4.9023 H   0  0  0  0  0  0  0  0  0  0  0  0
    1.5111   -2.5715    4.1375 H   0  0  0  0  0  0  0  0  0  0  0  0
    0.2146   -1.7696    5.0162 H   0  0  0  0  0  0  0  0  0  0  0  0
  -10.4681    2.3169   -0.7463 H   0  0  0  0  0  0  0  0  0  0  0  0
  -12.0252    3.5119   -2.4396 H   0  0  0  0  0  0  0  0  0  0  0  0
   -9.6144    3.1153   -7.0725 H   0  0  0  0  0  0  0  0  0  0  0  0
  -10.5102    4.4193   -7.8161 H   0  0  0  0  0  0  0  0  0  0  0  0
   -9.2259    6.0801   -6.4637 H   0  0  0  0  0  0  0  0  0  0  0  0
   -8.3312    4.7585   -5.7111 H   0  0  0  0  0  0  0  0  0  0  0  0
   -8.1582    5.0711   -7.4373 H   0  0  0  0  0  0  0  0  0  0  0  0
  -11.1777    6.4337   -4.8324 H   0  0  0  0  0  0  0  0  0  0  0  0
  -12.5981    5.6910   -4.1430 H   0  0  0  0  0  0  0  0  0  0  0  0
  -12.2844    6.4425   -7.0850 H   0  0  0  0  0  0  0  0  0  0  0  0
  -13.1945    7.3576   -5.8851 H   0  0  0  0  0  0  0  0  0  0  0  0
  -13.7288    5.7461   -6.3526 H   0  0  0  0  0  0  0  0  0  0  0  0
  -13.6096    3.0508   -5.3551 H   0  0  0  0  0  0  0  0  0  0  0  0
  -12.4397    1.7910   -5.6478 H   0  0  0  0  0  0  0  0  0  0  0  0
  -12.2524    2.4753   -8.0265 H   0  0  0  0  0  0  0  0  0  0  0  0
  -13.9232    2.1090   -7.6049 H   0  0  0  0  0  0  0  0  0  0  0  0
  -13.3979    3.7841   -7.7529 H   0  0  0  0  0  0  0  0  0  0  0  0
  -10.2914   -0.0201   -1.0758 H   0  0  0  0  0  0  0  0  0  0  0  0
   -9.8008   -3.0964    1.3169 H   0  0  0  0  0  0  0  0  0  0  0  0
  -14.5573   -1.6745   -2.5067 H   0  0  0  0  0  0  0  0  0  0  0  0
  -14.6592   -5.4291    0.8914 H   0  0  0  0  0  0  0  0  0  0  0  0
  -17.7584   -4.9978   -0.4988 H   0  0  0  0  0  0  0  0  0  0  0  0
  -16.6175   -7.1451   -1.5861 H   0  0  0  0  0  0  0  0  0  0  0  0
  -19.0470   -6.9125   -2.5586 H   0  0  0  0  0  0  0  0  0  0  0  0
  -19.0357   -4.9536   -4.3533 H   0  0  0  0  0  0  0  0  0  0  0  0
  -16.5987   -3.9809   -4.4865 H   0  0  0  0  0  0  0  0  0  0  0  0
  -15.9541   -6.5137   -4.0696 H   0  0  0  0  0  0  0  0  0  0  0  0
  -14.9941   -5.5052   -2.9632 H   0  0  0  0  0  0  0  0  0  0  0  0
  -17.7471   -3.0771   -2.2576 H   0  0  0  0  0  0  0  0  0  0  0  0
  1  2  2  0  0  0  0
  2  3  1  0  0  0  0
  3  4  2  0  0  0  0
  3  5  1  0  0  0  0
  5  6  2  0  0  0  0
  6  7  1  0  0  0  0
  7  8  2  0  0  0  0
  8  9  1  0  0  0  0
  9 10  2  0  0  0  0
 10 11  1  0  0  0  0
 11 12  2  0  0  0  0
 12 13  1  0  0  0  0
 13 14  3  0  0  0  0
 12 15  1  0  0  0  0
 15 16  3  0  0  0  0
  8 17  1  0  0  0  0
 17 18  1  0  0  0  0
 18 19  1  0  0  0  0
 19 20  2  0  0  0  0
 20 21  1  0  0  0  0
 21 22  1  0  0  0  0
 21 23  1  0  0  0  0
  1 24  1  0  0  0  0
 24 25  2  0  0  0  0
 25 26  1  0  0  0  0
 26 27  1  0  0  0  0
 27 28  2  0  0  0  0
 28 29  1  0  0  0  0
 29 30  2  0  0  0  0
 30 31  1  0  0  0  0
 30 32  1  0  0  0  0
 32 33  2  0  0  0  0
 26 34  1  0  0  0  0
 34 35  2  0  0  0  0
 35 36  1  0  0  0  0
 36 37  2  0  0  0  0
 37 38  1  0  0  0  0
 37 39  1  0  0  0  0
 39 40  2  0  0  0  0
 25 41  1  0  0  0  0
 41 42  1  0  0  0  0
 42 43  1  0  0  0  0
 43 44  2  0  0  0  0
 44 45  1  0  0  0  0
 45 46  1  0  0  0  0
 46 47  2  0  0  0  0
 47 48  1  0  0  0  0
 48 49  2  0  0  0  0
 49 50  1  0  0  0  0
 49 51  1  0  0  0  0
 51 52  2  0  0  0  0
 45 53  1  0  0  0  0
 53 54  2  0  0  0  0
 54 55  1  0  0  0  0
 55 56  2  0  0  0  0
 56 57  1  0  0  0  0
 56 58  1  0  0  0  0
 58 59  2  0  0  0  0
 44 60  1  0  0  0  0
 60 61  1  0  0  0  0
 43 62  1  0  0  0  0
 62 63  2  0  0  0  0
 63 64  1  0  0  0  0
 64 65  2  0  0  0  0
 65 66  1  0  0  0  0
 66 67  2  0  0  0  0
 67 68  1  0  0  0  0
 68 69  1  0  0  0  0
 69 70  1  0  0  0  0
 68 71  2  0  0  0  0
 63 72  1  0  0  0  0
 72 73  1  0  0  0  0
 73 74  1  0  0  0  0
 74 75  1  0  0  0  0
 75 76  1  0  0  0  0
 76 77  1  0  0  0  0
 77 78  2  0  0  0  0
 78 79  1  0  0  0  0
 79 80  1  0  0  0  0
 77 81  1  0  0  0  0
 81 82  1  0  0  0  0
 82 83  1  0  0  0  0
 83 84  1  0  0  0  0
 84 85  1  0  0  0  0
 85 86  1  0  0  0  0
 86 87  2  0  0  0  0
 87 88  1  0  0  0  0
 88 89  2  0  0  0  0
 89 90  1  0  0  0  0
 90 91  1  0  0  0  0
 91 92  1  0  0  0  0
 90 93  2  0  0  0  0
 85 94  2  0  0  0  0
 94 95  1  0  0  0  0
 95 96  1  0  0  0  0
 96 97  1  0  0  0  0
 97 98  1  0  0  0  0
 98 99  1  0  0  0  0
 99100  1  0  0  0  0
100101  1  0  0  0  0
101102  1  0  0  0  0
102103  1  0  0  0  0
103104  1  0  0  0  0
101105  1  0  0  0  0
105106  1  0  0  0  0
 98107  1  0  0  0  0
107108  1  0  0  0  0
 94109  1  0  0  0  0
109110  2  0  0  0  0
110111  1  0  0  0  0
111112  2  0  0  0  0
112113  1  0  0  0  0
113114  2  0  0  0  0
114115  1  0  0  0  0
115116  2  0  0  0  0
116117  1  0  0  0  0
117118  1  0  0  0  0
118119  1  0  0  0  0
117120  1  0  0  0  0
120121  1  0  0  0  0
117122  1  0  0  0  0
122123  1  0  0  0  0
116124  1  0  0  0  0
112125  1  0  0  0  0
125126  2  0  0  0  0
126127  1  0  0  0  0
127128  1  0  0  0  0
128129  2  0  0  0  0
129130  1  0  0  0  0
130131  2  0  0  0  0
131132  1  0  0  0  0
132133  1  0  0  0  0
133134  1  0  0  0  0
132135  1  0  0  0  0
135136  1  0  0  0  0
132137  1  0  0  0  0
137138  1  0  0  0  0
131139  1  0  0  0  0
127140  2  0  0  0  0
140141  1  0  0  0  0
126142  1  0  0  0  0
142143  2  0  0  0  0
143144  1  0  0  0  0
143145  1  0  0  0  0
145146  2  0  0  0  0
146147  1  0  0  0  0
147148  2  0  0  0  0
147149  1  0  0  0  0
149150  2  0  0  0  0
150151  1  0  0  0  0
151152  2  0  0  0  0
152153  1  0  0  0  0
153154  2  0  0  0  0
154155  1  0  0  0  0
155156  2  0  0  0  0
156157  1  0  0  0  0
157158  3  0  0  0  0
156159  1  0  0  0  0
159160  3  0  0  0  0
152161  1  0  0  0  0
161162  1  0  0  0  0
162163  1  0  0  0  0
163164  2  0  0  0  0
164165  1  0  0  0  0
165166  1  0  0  0  0
165167  1  0  0  0  0
 11  2  1  0  0  0  0
 23 17  1  0  0  0  0
 61 24  1  0  0  0  0
104 62  1  0  0  0  0
141109  1  0  0  0  0
155146  1  0  0  0  0
167161  1  0  0  0  0
 10  5  1  0  0  0  0
 22 18  1  0  0  0  0
 33 27  1  0  0  0  0
 40 34  1  0  0  0  0
 60 41  2  0  0  0  0
 71 64  1  0  0  0  0
103 72  2  0  0  0  0
140111  1  0  0  0  0
154149  1  0  0  0  0
166162  1  0  0  0  0
 23  7  1  0  0  0  0
 52 46  1  0  0  0  0
 59 53  1  0  0  0  0
102 74  2  0  0  0  0
124113  1  0  0  0  0
144125  1  0  0  0  0
167151  1  0  0  0  0
100 75  2  0  0  0  0
139128  1  0  0  0  0
 80 76  2  0  0  0  0
 99 81  2  0  0  0  0
 97 82  2  0  0  0  0
 96 84  2  0  0  0  0
 93 86  1  0  0  0  0
  1168  1  0  0  0  0
  6169  1  0  0  0  0
  9170  1  0  0  0  0
 17171  1  0  0  0  0
 18172  1  0  0  0  0
 19173  1  0  0  0  0
 20174  1  0  0  0  0
 21175  1  0  0  0  0
 22176  1  0  0  0  0
 22177  1  0  0  0  0
 23178  1  0  0  0  0
 28179  1  0  0  0  0
 29180  1  0  0  0  0
 31181  1  0  0  0  0
 31182  1  0  0  0  0
 31183  1  0  0  0  0
 32184  1  0  0  0  0
 33185  1  0  0  0  0
 35186  1  0  0  0  0
 36187  1  0  0  0  0
 38188  1  0  0  0  0
 38189  1  0  0  0  0
 38190  1  0  0  0  0
 39191  1  0  0  0  0
 40192  1  0  0  0  0
 47193  1  0  0  0  0
 48194  1  0  0  0  0
 50195  1  0  0  0  0
 50196  1  0  0  0  0
 50197  1  0  0  0  0
 51198  1  0  0  0  0
 52199  1  0  0  0  0
 54200  1  0  0  0  0
 55201  1  0  0  0  0
 57202  1  0  0  0  0
 57203  1  0  0  0  0
 57204  1  0  0  0  0
 58205  1  0  0  0  0
 59206  1  0  0  0  0
 65207  1  0  0  0  0
 66208  1  0  0  0  0
 67209  1  0  0  0  0
 69210  1  0  0  0  0
 69211  1  0  0  0  0
 70212  1  0  0  0  0
 70213  1  0  0  0  0
 70214  1  0  0  0  0
 71215  1  0  0  0  0
 87216  1  0  0  0  0
 88217  1  0  0  0  0
 89218  1  0  0  0  0
 91219  1  0  0  0  0
 91220  1  0  0  0  0
 92221  1  0  0  0  0
 92222  1  0  0  0  0
 92223  1  0  0  0  0
 93224  1  0  0  0  0
105225  1  0  0  0  0
105226  1  0  0  0  0
106227  1  0  0  0  0
106228  1  0  0  0  0
106229  1  0  0  0  0
107230  1  0  0  0  0
107231  1  0  0  0  0
108232  1  0  0  0  0
108233  1  0  0  0  0
108234  1  0  0  0  0
110235  1  0  0  0  0
114236  1  0  0  0  0
115237  1  0  0  0  0
118238  1  0  0  0  0
118239  1  0  0  0  0
119240  1  0  0  0  0
119241  1  0  0  0  0
119242  1  0  0  0  0
120243  1  0  0  0  0
120244  1  0  0  0  0
121245  1  0  0  0  0
121246  1  0  0  0  0
121247  1  0  0  0  0
122248  1  0  0  0  0
122249  1  0  0  0  0
123250  1  0  0  0  0
123251  1  0  0  0  0
123252  1  0  0  0  0
129253  1  0  0  0  0
130254  1  0  0  0  0
133255  1  0  0  0  0
133256  1  0  0  0  0
134257  1  0  0  0  0
134258  1  0  0  0  0
134259  1  0  0  0  0
135260  1  0  0  0  0
135261  1  0  0  0  0
136262  1  0  0  0  0
136263  1  0  0  0  0
136264  1  0  0  0  0
137265  1  0  0  0  0
137266  1  0  0  0  0
138267  1  0  0  0  0
138268  1  0  0  0  0
138269  1  0  0  0  0
142270  1  0  0  0  0
145271  1  0  0  0  0
150272  1  0  0  0  0
153273  1  0  0  0  0
161274  1  0  0  0  0
162275  1  0  0  0  0
163276  1  0  0  0  0
164277  1  0  0  0  0
165278  1  0  0  0  0
166279  1  0  0  0  0
166280  1  0  0  0  0
167281  1  0  0  0  0
M  END
