
  xtb     02192223383D
 energy: -424.733969911894 gnorm: 0.000564407956 xtb: 6.4.1 (unknown)
262290  0     0  0            999 V2000
   -0.9015    7.3441    9.4670 C   0  0  0  0  0  0  0  0  0  0  0  0
   -1.2929    8.6028    9.0683 C   0  0  0  0  0  0  0  0  0  0  0  0
   -1.3240    9.1119    7.6962 C   0  0  0  0  0  0  0  0  0  0  0  0
   -0.8415    8.6078    6.6956 O   0  0  0  0  0  0  0  0  0  0  0  0
   -2.0796   10.3782    7.7449 C   0  0  0  0  0  0  0  0  0  0  0  0
   -2.4043   11.2036    6.6715 C   0  0  0  0  0  0  0  0  0  0  0  0
   -3.1411   12.3103    7.0198 C   0  0  0  0  0  0  0  0  0  0  0  0
   -3.5199   12.5800    8.3405 C   0  0  0  0  0  0  0  0  0  0  0  0
   -3.1952   11.7795    9.4108 C   0  0  0  0  0  0  0  0  0  0  0  0
   -2.4530   10.6435    9.0769 C   0  0  0  0  0  0  0  0  0  0  0  0
   -1.9279    9.5735    9.9263 C   0  0  0  0  0  0  0  0  0  0  0  0
   -2.0271    9.5274   11.2970 C   0  0  0  0  0  0  0  0  0  0  0  0
   -2.7558   10.4453   12.0772 C   0  0  0  0  0  0  0  0  0  0  0  0
   -3.3548   11.1334   12.7761 N   0  0  0  0  0  0  0  0  0  0  0  0
   -1.3983    8.5822   12.1291 C   0  0  0  0  0  0  0  0  0  0  0  0
   -0.8948    7.8760   12.8844 N   0  0  0  0  0  0  0  0  0  0  0  0
   -4.2556   13.8404    7.9570 C   0  0  0  0  0  0  0  0  0  0  0  0
   -5.7949   13.7464    7.8956 C   0  0  0  0  0  0  0  0  0  0  0  0
   -6.1971   14.9342    7.0517 C   0  0  0  0  0  0  0  0  0  0  0  0
   -5.8371   14.6803    5.8000 C   0  0  0  0  0  0  0  0  0  0  0  0
   -5.1857   13.3165    5.7772 C   0  0  0  0  0  0  0  0  0  0  0  0
   -5.9973   12.6181    6.8759 C   0  0  0  0  0  0  0  0  0  0  0  0
   -3.8316   13.5403    6.4836 C   0  0  0  0  0  0  0  0  0  0  0  0
   -0.4001    6.2756    8.7267 C   0  0  0  0  0  0  0  0  0  0  0  0
   -0.2474    4.9644    9.2480 C   0  0  0  0  0  0  0  0  0  0  0  0
   -0.7065    4.5326   10.4639 N   0  0  0  0  0  0  0  0  0  0  0  0
   -1.8930    5.0222   11.0449 C   0  0  0  0  0  0  0  0  0  0  0  0
   -1.9695    5.1896   12.4249 C   0  0  0  0  0  0  0  0  0  0  0  0
   -3.1221    5.6907   12.9960 C   0  0  0  0  0  0  0  0  0  0  0  0
   -4.2161    6.0457   12.2153 C   0  0  0  0  0  0  0  0  0  0  0  0
   -5.4360    6.6396   12.8489 C   0  0  0  0  0  0  0  0  0  0  0  0
   -4.1402    5.8448   10.8419 C   0  0  0  0  0  0  0  0  0  0  0  0
   -3.0007    5.3282   10.2582 C   0  0  0  0  0  0  0  0  0  0  0  0
   -0.0552    3.4535   11.0918 C   0  0  0  0  0  0  0  0  0  0  0  0
   -0.7930    2.4170   11.6559 C   0  0  0  0  0  0  0  0  0  0  0  0
   -0.1465    1.3654   12.2719 C   0  0  0  0  0  0  0  0  0  0  0  0
    1.2412    1.3169   12.3425 C   0  0  0  0  0  0  0  0  0  0  0  0
    1.9306    0.1581   12.9915 C   0  0  0  0  0  0  0  0  0  0  0  0
    1.9682    2.3590   11.7818 C   0  0  0  0  0  0  0  0  0  0  0  0
    1.3343    3.4185   11.1640 C   0  0  0  0  0  0  0  0  0  0  0  0
    0.3890    4.1272    8.3163 C   0  0  0  0  0  0  0  0  0  0  0  0
    0.8349    2.4474    8.3068 S   0  0  0  0  0  0  0  0  0  0  0  0
    1.3562    2.5865    6.6318 C   0  0  0  0  0  0  0  0  0  0  0  0
    1.2501    3.8834    6.1458 C   0  0  0  0  0  0  0  0  0  0  0  0
    1.6703    4.2958    4.8919 N   0  0  0  0  0  0  0  0  0  0  0  0
    2.8735    3.8321    4.3512 C   0  0  0  0  0  0  0  0  0  0  0  0
    3.0082    3.6684    2.9742 C   0  0  0  0  0  0  0  0  0  0  0  0
    4.1777    3.1586    2.4456 C   0  0  0  0  0  0  0  0  0  0  0  0
    5.2386    2.7929    3.2640 C   0  0  0  0  0  0  0  0  0  0  0  0
    6.4937    2.2025    2.6977 C   0  0  0  0  0  0  0  0  0  0  0  0
    5.1051    2.9793    4.6356 C   0  0  0  0  0  0  0  0  0  0  0  0
    3.9465    3.4979    5.1747 C   0  0  0  0  0  0  0  0  0  0  0  0
    0.9351    5.3077    4.2514 C   0  0  0  0  0  0  0  0  0  0  0  0
   -0.4564    5.2691    4.2727 C   0  0  0  0  0  0  0  0  0  0  0  0
   -1.1868    6.2944    3.7080 C   0  0  0  0  0  0  0  0  0  0  0  0
   -0.5551    7.3722    3.1007 C   0  0  0  0  0  0  0  0  0  0  0  0
   -1.3562    8.5095    2.5469 C   0  0  0  0  0  0  0  0  0  0  0  0
    0.8331    7.3849    3.0544 C   0  0  0  0  0  0  0  0  0  0  0  0
    1.5762    6.3700    3.6232 C   0  0  0  0  0  0  0  0  0  0  0  0
    0.6834    4.7505    7.1093 C   0  0  0  0  0  0  0  0  0  0  0  0
    0.1716    6.3971    7.0602 S   0  0  0  0  0  0  0  0  0  0  0  0
    1.6848    1.4176    5.8864 C   0  0  0  0  0  0  0  0  0  0  0  0
    2.2178    0.2217    6.3311 C   0  0  0  0  0  0  0  0  0  0  0  0
    2.8041    0.0070    7.6540 C   0  0  0  0  0  0  0  0  0  0  0  0
    2.5626   -1.1744    8.3492 C   0  0  0  0  0  0  0  0  0  0  0  0
    3.1659   -1.3880    9.5735 C   0  0  0  0  0  0  0  0  0  0  0  0
    4.0196   -0.4395   10.1094 C   0  0  0  0  0  0  0  0  0  0  0  0
    4.2726    0.7445    9.4294 C   0  0  0  0  0  0  0  0  0  0  0  0
    5.2482    1.7542    9.9639 C   0  0  0  0  0  0  0  0  0  0  0  0
    6.6149    1.5792    9.2992 C   0  0  0  0  0  0  0  0  0  0  0  0
    3.6582    0.9561    8.2058 C   0  0  0  0  0  0  0  0  0  0  0  0
    2.2034   -0.7545    5.3126 C   0  0  0  0  0  0  0  0  0  0  0  0
    2.7390   -2.4177    5.2420 S   0  0  0  0  0  0  0  0  0  0  0  0
    2.2425   -2.4930    3.5828 C   0  0  0  0  0  0  0  0  0  0  0  0
    2.1596   -3.4226    2.5267 C   0  0  0  0  0  0  0  0  0  0  0  0
    2.3660   -4.8186    2.4390 C   0  0  0  0  0  0  0  0  0  0  0  0
    1.9837   -5.5153    1.2343 C   0  0  0  0  0  0  0  0  0  0  0  0
    2.1559   -6.8234    1.3351 N   0  0  0  0  0  0  0  0  0  0  0  0
    2.7510   -7.1557    2.8038 S   0  0  0  0  0  0  0  0  0  0  0  0
    2.8117   -5.6419    3.3741 N   0  0  0  0  0  0  0  0  0  0  0  0
    1.5547   -4.7723    0.1107 C   0  0  0  0  0  0  0  0  0  0  0  0
    1.2167   -5.1141   -1.2142 C   0  0  0  0  0  0  0  0  0  0  0  0
    0.9436   -6.5249   -2.1817 S   0  0  0  0  0  0  0  0  0  0  0  0
    0.5857   -5.5008   -3.5486 C   0  0  0  0  0  0  0  0  0  0  0  0
    0.1801   -5.7687   -4.8730 C   0  0  0  0  0  0  0  0  0  0  0  0
   -0.2151   -7.0796   -5.3860 C   0  0  0  0  0  0  0  0  0  0  0  0
   -1.3356   -7.1922   -6.2069 C   0  0  0  0  0  0  0  0  0  0  0  0
   -1.7258   -8.4293   -6.6827 C   0  0  0  0  0  0  0  0  0  0  0  0
   -0.9926   -9.5587   -6.3667 C   0  0  0  0  0  0  0  0  0  0  0  0
    0.1176   -9.4689   -5.5360 C   0  0  0  0  0  0  0  0  0  0  0  0
    0.9414  -10.6897   -5.2441 C   0  0  0  0  0  0  0  0  0  0  0  0
    1.8608  -11.0009   -6.4275 C   0  0  0  0  0  0  0  0  0  0  0  0
    0.4809   -8.2305   -5.0304 C   0  0  0  0  0  0  0  0  0  0  0  0
    0.0715   -4.6004   -5.6027 C   0  0  0  0  0  0  0  0  0  0  0  0
    0.3627   -3.1618   -4.6383 S   0  0  0  0  0  0  0  0  0  0  0  0
    0.7046   -4.1415   -3.2587 C   0  0  0  0  0  0  0  0  0  0  0  0
    1.0405   -3.9190   -1.9178 C   0  0  0  0  0  0  0  0  0  0  0  0
    1.2188   -2.8455   -1.0796 N   0  0  0  0  0  0  0  0  0  0  0  0
    1.4960   -3.3579    0.1747 C   0  0  0  0  0  0  0  0  0  0  0  0
    1.6267   -2.7125    1.4215 C   0  0  0  0  0  0  0  0  0  0  0  0
    1.3331   -1.4146    1.7984 N   0  0  0  0  0  0  0  0  0  0  0  0
    1.7105   -1.2891    3.1125 C   0  0  0  0  0  0  0  0  0  0  0  0
    1.6813   -0.3008    4.1020 C   0  0  0  0  0  0  0  0  0  0  0  0
    1.1701    1.3422    4.2029 S   0  0  0  0  0  0  0  0  0  0  0  0
    0.2667   -0.5892    1.2680 C   0  0  0  0  0  0  0  0  0  0  0  0
   -1.0216   -0.7646    2.0718 C   0  0  0  0  0  0  0  0  0  0  0  0
    1.6664   -1.5683   -1.5959 C   0  0  0  0  0  0  0  0  0  0  0  0
    2.9726   -1.7185   -2.3738 C   0  0  0  0  0  0  0  0  0  0  0  0
   -0.1101   -4.4920   -7.0177 C   0  0  0  0  0  0  0  0  0  0  0  0
    0.5737   -5.2140   -7.9896 C   0  0  0  0  0  0  0  0  0  0  0  0
    1.6336   -6.0681   -7.7514 N   0  0  0  0  0  0  0  0  0  0  0  0
    1.7824   -7.2222   -8.5388 C   0  0  0  0  0  0  0  0  0  0  0  0
    3.0508   -7.6756   -8.8906 C   0  0  0  0  0  0  0  0  0  0  0  0
    3.1927   -8.8179   -9.6529 C   0  0  0  0  0  0  0  0  0  0  0  0
    2.0853   -9.5346  -10.0915 C   0  0  0  0  0  0  0  0  0  0  0  0
    2.2428  -10.7878  -10.8944 C   0  0  0  0  0  0  0  0  0  0  0  0
    0.8235   -9.0662   -9.7464 C   0  0  0  0  0  0  0  0  0  0  0  0
    0.6669   -7.9256   -8.9848 C   0  0  0  0  0  0  0  0  0  0  0  0
    2.5370   -5.7870   -6.7165 C   0  0  0  0  0  0  0  0  0  0  0  0
    3.0877   -6.8134   -5.9535 C   0  0  0  0  0  0  0  0  0  0  0  0
    3.8911   -6.5234   -4.8702 C   0  0  0  0  0  0  0  0  0  0  0  0
    4.1896   -5.2102   -4.5254 C   0  0  0  0  0  0  0  0  0  0  0  0
    4.9969   -4.9087   -3.3003 C   0  0  0  0  0  0  0  0  0  0  0  0
    3.7024   -4.1952   -5.3380 C   0  0  0  0  0  0  0  0  0  0  0  0
    2.8884   -4.4726   -6.4186 C   0  0  0  0  0  0  0  0  0  0  0  0
    0.0815   -4.8992   -9.2762 C   0  0  0  0  0  0  0  0  0  0  0  0
    0.4209   -5.5061  -10.8530 S   0  0  0  0  0  0  0  0  0  0  0  0
   -0.8029   -4.4368  -11.5519 C   0  0  0  0  0  0  0  0  0  0  0  0
   -1.4205   -3.6343  -10.5740 C   0  0  0  0  0  0  0  0  0  0  0  0
   -2.4237   -2.7417  -10.8136 N   0  0  0  0  0  0  0  0  0  0  0  0
   -2.6036   -1.6500   -9.9442 C   0  0  0  0  0  0  0  0  0  0  0  0
   -3.8803   -1.2759   -9.5367 C   0  0  0  0  0  0  0  0  0  0  0  0
   -4.0463   -0.1972   -8.6914 C   0  0  0  0  0  0  0  0  0  0  0  0
   -2.9551    0.5312   -8.2319 C   0  0  0  0  0  0  0  0  0  0  0  0
   -3.1380    1.6800   -7.2893 C   0  0  0  0  0  0  0  0  0  0  0  0
   -1.6849    0.1566   -8.6539 C   0  0  0  0  0  0  0  0  0  0  0  0
   -1.5048   -0.9160   -9.5037 C   0  0  0  0  0  0  0  0  0  0  0  0
   -3.3504   -2.9179  -11.8650 C   0  0  0  0  0  0  0  0  0  0  0  0
   -3.9090   -4.1671  -12.1156 C   0  0  0  0  0  0  0  0  0  0  0  0
   -4.8055   -4.3195  -13.1544 C   0  0  0  0  0  0  0  0  0  0  0  0
   -5.1776   -3.2414  -13.9494 C   0  0  0  0  0  0  0  0  0  0  0  0
   -6.1241   -3.4174  -15.0957 C   0  0  0  0  0  0  0  0  0  0  0  0
   -4.6342   -1.9932  -13.6685 C   0  0  0  0  0  0  0  0  0  0  0  0
   -3.7296   -1.8263  -12.6387 C   0  0  0  0  0  0  0  0  0  0  0  0
   -0.9032   -3.9210   -9.2920 C   0  0  0  0  0  0  0  0  0  0  0  0
   -1.2618   -3.3569   -7.6952 S   0  0  0  0  0  0  0  0  0  0  0  0
   -0.9886   -4.3678  -12.9364 C   0  0  0  0  0  0  0  0  0  0  0  0
   -0.6044   -5.2837  -13.8835 C   0  0  0  0  0  0  0  0  0  0  0  0
   -0.4189   -4.8623  -15.2875 C   0  0  0  0  0  0  0  0  0  0  0  0
   -0.7414   -3.8044  -15.7850 O   0  0  0  0  0  0  0  0  0  0  0  0
    0.2802   -5.9925  -15.9428 C   0  0  0  0  0  0  0  0  0  0  0  0
    0.7919   -6.0833  -17.2221 C   0  0  0  0  0  0  0  0  0  0  0  0
    1.4492   -7.2475  -17.5929 C   0  0  0  0  0  0  0  0  0  0  0  0
    1.5803   -8.2814  -16.6774 C   0  0  0  0  0  0  0  0  0  0  0  0
    2.5102   -9.8550  -17.1997 Br  0  0  0  0  0  0  0  0  0  0  0  0
    1.0615   -8.2135  -15.3898 C   0  0  0  0  0  0  0  0  0  0  0  0
    0.3995   -7.0544  -15.0284 C   0  0  0  0  0  0  0  0  0  0  0  0
   -0.2806   -6.6816  -13.7856 C   0  0  0  0  0  0  0  0  0  0  0  0
   -0.7680   -7.5812  -12.8674 C   0  0  0  0  0  0  0  0  0  0  0  0
   -1.6852   -7.2447  -11.8539 C   0  0  0  0  0  0  0  0  0  0  0  0
   -2.4891   -7.0304  -11.0607 N   0  0  0  0  0  0  0  0  0  0  0  0
   -0.5189   -8.9638  -12.9203 C   0  0  0  0  0  0  0  0  0  0  0  0
   -0.3537  -10.1010  -12.9190 N   0  0  0  0  0  0  0  0  0  0  0  0
   -1.0436    7.1228   10.5166 H   0  0  0  0  0  0  0  0  0  0  0  0
   -2.0853   10.9613    5.6698 H   0  0  0  0  0  0  0  0  0  0  0  0
   -3.4895   12.0050   10.4221 H   0  0  0  0  0  0  0  0  0  0  0  0
   -3.9036   14.7584    8.4238 H   0  0  0  0  0  0  0  0  0  0  0  0
   -6.2833   13.6434    8.8607 H   0  0  0  0  0  0  0  0  0  0  0  0
   -6.6366   15.8307    7.4480 H   0  0  0  0  0  0  0  0  0  0  0  0
   -5.9156   15.3224    4.9423 H   0  0  0  0  0  0  0  0  0  0  0  0
   -5.1200   12.8219    4.8116 H   0  0  0  0  0  0  0  0  0  0  0  0
   -7.0435   12.4953    6.6000 H   0  0  0  0  0  0  0  0  0  0  0  0
   -5.5878   11.6593    7.1884 H   0  0  0  0  0  0  0  0  0  0  0  0
   -3.1959   14.2584    5.9686 H   0  0  0  0  0  0  0  0  0  0  0  0
   -1.1179    4.9450   13.0400 H   0  0  0  0  0  0  0  0  0  0  0  0
   -3.1634    5.8327   14.0652 H   0  0  0  0  0  0  0  0  0  0  0  0
   -5.7958    6.0045   13.6568 H   0  0  0  0  0  0  0  0  0  0  0  0
   -6.2331    6.7663   12.1207 H   0  0  0  0  0  0  0  0  0  0  0  0
   -5.1981    7.6145   13.2748 H   0  0  0  0  0  0  0  0  0  0  0  0
   -4.9874    6.0913   10.2178 H   0  0  0  0  0  0  0  0  0  0  0  0
   -2.9583    5.1745    9.1897 H   0  0  0  0  0  0  0  0  0  0  0  0
   -1.8714    2.4413   11.6036 H   0  0  0  0  0  0  0  0  0  0  0  0
   -0.7297    0.5644   12.7024 H   0  0  0  0  0  0  0  0  0  0  0  0
    2.9131    0.4459   13.3574 H   0  0  0  0  0  0  0  0  0  0  0  0
    1.3430   -0.2285   13.8211 H   0  0  0  0  0  0  0  0  0  0  0  0
    2.0598   -0.6436   12.2643 H   0  0  0  0  0  0  0  0  0  0  0  0
    3.0458    2.3463   11.8362 H   0  0  0  0  0  0  0  0  0  0  0  0
    1.9095    4.2314   10.7456 H   0  0  0  0  0  0  0  0  0  0  0  0
    2.1845    3.9328    2.3277 H   0  0  0  0  0  0  0  0  0  0  0  0
    4.2618    3.0317    1.3755 H   0  0  0  0  0  0  0  0  0  0  0  0
    7.3721    2.6664    3.1428 H   0  0  0  0  0  0  0  0  0  0  0  0
    6.5366    1.1344    2.9135 H   0  0  0  0  0  0  0  0  0  0  0  0
    6.5352    2.3356    1.6195 H   0  0  0  0  0  0  0  0  0  0  0  0
    5.9261    2.7198    5.2888 H   0  0  0  0  0  0  0  0  0  0  0  0
    3.8664    3.6599    6.2397 H   0  0  0  0  0  0  0  0  0  0  0  0
   -0.9567    4.4339    4.7417 H   0  0  0  0  0  0  0  0  0  0  0  0
   -2.2661    6.2608    3.7446 H   0  0  0  0  0  0  0  0  0  0  0  0
   -0.7888    9.0647    1.8038 H   0  0  0  0  0  0  0  0  0  0  0  0
   -2.2805    8.1537    2.0962 H   0  0  0  0  0  0  0  0  0  0  0  0
   -1.6176    9.1911    3.3565 H   0  0  0  0  0  0  0  0  0  0  0  0
    1.3434    8.2128    2.5835 H   0  0  0  0  0  0  0  0  0  0  0  0
    2.6557    6.4033    3.6002 H   0  0  0  0  0  0  0  0  0  0  0  0
    1.8989   -1.9165    7.9324 H   0  0  0  0  0  0  0  0  0  0  0  0
    2.9768   -2.3075   10.1086 H   0  0  0  0  0  0  0  0  0  0  0  0
    4.5010   -0.6223   11.0595 H   0  0  0  0  0  0  0  0  0  0  0  0
    5.3589    1.6316   11.0432 H   0  0  0  0  0  0  0  0  0  0  0  0
    4.8795    2.7637    9.7679 H   0  0  0  0  0  0  0  0  0  0  0  0
    7.3219    2.3123    9.6812 H   0  0  0  0  0  0  0  0  0  0  0  0
    6.5310    1.7044    8.2221 H   0  0  0  0  0  0  0  0  0  0  0  0
    7.0055    0.5833    9.4967 H   0  0  0  0  0  0  0  0  0  0  0  0
    3.8645    1.8620    7.6552 H   0  0  0  0  0  0  0  0  0  0  0  0
   -1.9117   -6.3126   -6.4537 H   0  0  0  0  0  0  0  0  0  0  0  0
   -2.6001   -8.5099   -7.3119 H   0  0  0  0  0  0  0  0  0  0  0  0
   -1.2891  -10.5205   -6.7588 H   0  0  0  0  0  0  0  0  0  0  0  0
    1.5419  -10.5289   -4.3469 H   0  0  0  0  0  0  0  0  0  0  0  0
    0.2853  -11.5449   -5.0680 H   0  0  0  0  0  0  0  0  0  0  0  0
    2.5474  -10.1764   -6.6086 H   0  0  0  0  0  0  0  0  0  0  0  0
    1.2774  -11.1516   -7.3329 H   0  0  0  0  0  0  0  0  0  0  0  0
    2.4429  -11.8984   -6.2321 H   0  0  0  0  0  0  0  0  0  0  0  0
    1.3253   -8.1519   -4.3621 H   0  0  0  0  0  0  0  0  0  0  0  0
    0.0681   -0.8756    0.2374 H   0  0  0  0  0  0  0  0  0  0  0  0
    0.5883    0.4566    1.3047 H   0  0  0  0  0  0  0  0  0  0  0  0
   -0.8836   -0.4494    3.1020 H   0  0  0  0  0  0  0  0  0  0  0  0
   -1.8107   -0.1630    1.6294 H   0  0  0  0  0  0  0  0  0  0  0  0
   -1.3290   -1.8082    2.0629 H   0  0  0  0  0  0  0  0  0  0  0  0
    0.8890   -1.1635   -2.2523 H   0  0  0  0  0  0  0  0  0  0  0  0
    1.8365   -0.8869   -0.7638 H   0  0  0  0  0  0  0  0  0  0  0  0
    3.2979   -0.7456   -2.7321 H   0  0  0  0  0  0  0  0  0  0  0  0
    2.8365   -2.3778   -3.2260 H   0  0  0  0  0  0  0  0  0  0  0  0
    3.7458   -2.1324   -1.7299 H   0  0  0  0  0  0  0  0  0  0  0  0
    3.9227   -7.1269   -8.5650 H   0  0  0  0  0  0  0  0  0  0  0  0
    4.1845   -9.1562   -9.9171 H   0  0  0  0  0  0  0  0  0  0  0  0
    2.2233  -11.6573  -10.2364 H   0  0  0  0  0  0  0  0  0  0  0  0
    3.1899  -10.7912  -11.4290 H   0  0  0  0  0  0  0  0  0  0  0  0
    1.4284  -10.8895  -11.6085 H   0  0  0  0  0  0  0  0  0  0  0  0
   -0.0532   -9.6052  -10.0744 H   0  0  0  0  0  0  0  0  0  0  0  0
   -0.3230   -7.5864   -8.7221 H   0  0  0  0  0  0  0  0  0  0  0  0
    2.8607   -7.8368   -6.2069 H   0  0  0  0  0  0  0  0  0  0  0  0
    4.2830   -7.3315   -4.2696 H   0  0  0  0  0  0  0  0  0  0  0  0
    5.3953   -3.8974   -3.3335 H   0  0  0  0  0  0  0  0  0  0  0  0
    4.3703   -5.0027   -2.4118 H   0  0  0  0  0  0  0  0  0  0  0  0
    5.8221   -5.6104   -3.1985 H   0  0  0  0  0  0  0  0  0  0  0  0
    3.9629   -3.1676   -5.1271 H   0  0  0  0  0  0  0  0  0  0  0  0
    2.5155   -3.6652   -7.0322 H   0  0  0  0  0  0  0  0  0  0  0  0
   -4.7349   -1.8384   -9.8817 H   0  0  0  0  0  0  0  0  0  0  0  0
   -5.0421    0.0801   -8.3778 H   0  0  0  0  0  0  0  0  0  0  0  0
   -4.1306    2.1119   -7.3893 H   0  0  0  0  0  0  0  0  0  0  0  0
   -3.0200    1.3366   -6.2609 H   0  0  0  0  0  0  0  0  0  0  0  0
   -2.3949    2.4532   -7.4711 H   0  0  0  0  0  0  0  0  0  0  0  0
   -0.8247    0.7172   -8.3184 H   0  0  0  0  0  0  0  0  0  0  0  0
   -0.5138   -1.1843   -9.8400 H   0  0  0  0  0  0  0  0  0  0  0  0
   -3.6341   -5.0141  -11.5048 H   0  0  0  0  0  0  0  0  0  0  0  0
   -5.2292   -5.2949  -13.3435 H   0  0  0  0  0  0  0  0  0  0  0  0
   -6.7960   -2.5657  -15.1783 H   0  0  0  0  0  0  0  0  0  0  0  0
   -6.7128   -4.3239  -14.9800 H   0  0  0  0  0  0  0  0  0  0  0  0
   -5.5632   -3.4924  -16.0278 H   0  0  0  0  0  0  0  0  0  0  0  0
   -4.9154   -1.1418  -14.2706 H   0  0  0  0  0  0  0  0  0  0  0  0
   -3.3050   -0.8541  -12.4342 H   0  0  0  0  0  0  0  0  0  0  0  0
   -1.3979   -3.4442  -13.3317 H   0  0  0  0  0  0  0  0  0  0  0  0
    0.6806   -5.2621  -17.9128 H   0  0  0  0  0  0  0  0  0  0  0  0
    1.8626   -7.3529  -18.5841 H   0  0  0  0  0  0  0  0  0  0  0  0
    1.1904   -9.0372  -14.7063 H   0  0  0  0  0  0  0  0  0  0  0  0
  1  2  2  0  0  0  0
  2  3  1  0  0  0  0
  3  4  2  0  0  0  0
  3  5  1  0  0  0  0
  5  6  2  0  0  0  0
  6  7  1  0  0  0  0
  7  8  2  0  0  0  0
  8  9  1  0  0  0  0
  9 10  2  0  0  0  0
 10 11  1  0  0  0  0
 11 12  2  0  0  0  0
 12 13  1  0  0  0  0
 13 14  3  0  0  0  0
 12 15  1  0  0  0  0
 15 16  3  0  0  0  0
  8 17  1  0  0  0  0
 17 18  1  0  0  0  0
 18 19  1  0  0  0  0
 19 20  2  0  0  0  0
 20 21  1  0  0  0  0
 21 22  1  0  0  0  0
 21 23  1  0  0  0  0
  1 24  1  0  0  0  0
 24 25  2  0  0  0  0
 25 26  1  0  0  0  0
 26 27  1  0  0  0  0
 27 28  2  0  0  0  0
 28 29  1  0  0  0  0
 29 30  2  0  0  0  0
 30 31  1  0  0  0  0
 30 32  1  0  0  0  0
 32 33  2  0  0  0  0
 26 34  1  0  0  0  0
 34 35  2  0  0  0  0
 35 36  1  0  0  0  0
 36 37  2  0  0  0  0
 37 38  1  0  0  0  0
 37 39  1  0  0  0  0
 39 40  2  0  0  0  0
 25 41  1  0  0  0  0
 41 42  1  0  0  0  0
 42 43  1  0  0  0  0
 43 44  2  0  0  0  0
 44 45  1  0  0  0  0
 45 46  1  0  0  0  0
 46 47  2  0  0  0  0
 47 48  1  0  0  0  0
 48 49  2  0  0  0  0
 49 50  1  0  0  0  0
 49 51  1  0  0  0  0
 51 52  2  0  0  0  0
 45 53  1  0  0  0  0
 53 54  2  0  0  0  0
 54 55  1  0  0  0  0
 55 56  2  0  0  0  0
 56 57  1  0  0  0  0
 56 58  1  0  0  0  0
 58 59  2  0  0  0  0
 44 60  1  0  0  0  0
 60 61  1  0  0  0  0
 43 62  1  0  0  0  0
 62 63  2  0  0  0  0
 63 64  1  0  0  0  0
 64 65  2  0  0  0  0
 65 66  1  0  0  0  0
 66 67  2  0  0  0  0
 67 68  1  0  0  0  0
 68 69  1  0  0  0  0
 69 70  1  0  0  0  0
 68 71  2  0  0  0  0
 63 72  1  0  0  0  0
 72 73  1  0  0  0  0
 73 74  1  0  0  0  0
 74 75  1  0  0  0  0
 75 76  1  0  0  0  0
 76 77  1  0  0  0  0
 77 78  2  0  0  0  0
 78 79  1  0  0  0  0
 79 80  1  0  0  0  0
 77 81  1  0  0  0  0
 81 82  1  0  0  0  0
 82 83  1  0  0  0  0
 83 84  1  0  0  0  0
 84 85  1  0  0  0  0
 85 86  1  0  0  0  0
 86 87  2  0  0  0  0
 87 88  1  0  0  0  0
 88 89  2  0  0  0  0
 89 90  1  0  0  0  0
 90 91  1  0  0  0  0
 91 92  1  0  0  0  0
 90 93  2  0  0  0  0
 85 94  2  0  0  0  0
 94 95  1  0  0  0  0
 95 96  1  0  0  0  0
 96 97  1  0  0  0  0
 97 98  1  0  0  0  0
 98 99  1  0  0  0  0
 99100  1  0  0  0  0
100101  1  0  0  0  0
101102  1  0  0  0  0
102103  1  0  0  0  0
103104  1  0  0  0  0
101105  1  0  0  0  0
105106  1  0  0  0  0
 98107  1  0  0  0  0
107108  1  0  0  0  0
 94109  1  0  0  0  0
109110  2  0  0  0  0
110111  1  0  0  0  0
111112  1  0  0  0  0
112113  2  0  0  0  0
113114  1  0  0  0  0
114115  2  0  0  0  0
115116  1  0  0  0  0
115117  1  0  0  0  0
117118  2  0  0  0  0
111119  1  0  0  0  0
119120  2  0  0  0  0
120121  1  0  0  0  0
121122  2  0  0  0  0
122123  1  0  0  0  0
122124  1  0  0  0  0
124125  2  0  0  0  0
110126  1  0  0  0  0
126127  1  0  0  0  0
127128  1  0  0  0  0
128129  2  0  0  0  0
129130  1  0  0  0  0
130131  1  0  0  0  0
131132  2  0  0  0  0
132133  1  0  0  0  0
133134  2  0  0  0  0
134135  1  0  0  0  0
134136  1  0  0  0  0
136137  2  0  0  0  0
130138  1  0  0  0  0
138139  2  0  0  0  0
139140  1  0  0  0  0
140141  2  0  0  0  0
141142  1  0  0  0  0
141143  1  0  0  0  0
143144  2  0  0  0  0
129145  1  0  0  0  0
145146  1  0  0  0  0
128147  1  0  0  0  0
147148  2  0  0  0  0
148149  1  0  0  0  0
149150  2  0  0  0  0
149151  1  0  0  0  0
151152  2  0  0  0  0
152153  1  0  0  0  0
153154  2  0  0  0  0
154155  1  0  0  0  0
154156  1  0  0  0  0
156157  2  0  0  0  0
157158  1  0  0  0  0
158159  2  0  0  0  0
159160  1  0  0  0  0
160161  3  0  0  0  0
159162  1  0  0  0  0
162163  3  0  0  0  0
 11  2  1  0  0  0  0
 23 17  1  0  0  0  0
 61 24  1  0  0  0  0
104 62  1  0  0  0  0
146109  1  0  0  0  0
158148  1  0  0  0  0
 10  5  1  0  0  0  0
 22 18  1  0  0  0  0
 33 27  1  0  0  0  0
 40 34  1  0  0  0  0
 60 41  2  0  0  0  0
 71 64  1  0  0  0  0
103 72  2  0  0  0  0
118112  1  0  0  0  0
125119  1  0  0  0  0
145126  2  0  0  0  0
157151  1  0  0  0  0
 23  7  1  0  0  0  0
 52 46  1  0  0  0  0
 59 53  1  0  0  0  0
102 74  2  0  0  0  0
137131  1  0  0  0  0
144138  1  0  0  0  0
100 75  2  0  0  0  0
 80 76  2  0  0  0  0
 99 81  2  0  0  0  0
 97 82  2  0  0  0  0
 96 84  2  0  0  0  0
 93 86  1  0  0  0  0
  1164  1  0  0  0  0
  6165  1  0  0  0  0
  9166  1  0  0  0  0
 17167  1  0  0  0  0
 18168  1  0  0  0  0
 19169  1  0  0  0  0
 20170  1  0  0  0  0
 21171  1  0  0  0  0
 22172  1  0  0  0  0
 22173  1  0  0  0  0
 23174  1  0  0  0  0
 28175  1  0  0  0  0
 29176  1  0  0  0  0
 31177  1  0  0  0  0
 31178  1  0  0  0  0
 31179  1  0  0  0  0
 32180  1  0  0  0  0
 33181  1  0  0  0  0
 35182  1  0  0  0  0
 36183  1  0  0  0  0
 38184  1  0  0  0  0
 38185  1  0  0  0  0
 38186  1  0  0  0  0
 39187  1  0  0  0  0
 40188  1  0  0  0  0
 47189  1  0  0  0  0
 48190  1  0  0  0  0
 50191  1  0  0  0  0
 50192  1  0  0  0  0
 50193  1  0  0  0  0
 51194  1  0  0  0  0
 52195  1  0  0  0  0
 54196  1  0  0  0  0
 55197  1  0  0  0  0
 57198  1  0  0  0  0
 57199  1  0  0  0  0
 57200  1  0  0  0  0
 58201  1  0  0  0  0
 59202  1  0  0  0  0
 65203  1  0  0  0  0
 66204  1  0  0  0  0
 67205  1  0  0  0  0
 69206  1  0  0  0  0
 69207  1  0  0  0  0
 70208  1  0  0  0  0
 70209  1  0  0  0  0
 70210  1  0  0  0  0
 71211  1  0  0  0  0
 87212  1  0  0  0  0
 88213  1  0  0  0  0
 89214  1  0  0  0  0
 91215  1  0  0  0  0
 91216  1  0  0  0  0
 92217  1  0  0  0  0
 92218  1  0  0  0  0
 92219  1  0  0  0  0
 93220  1  0  0  0  0
105221  1  0  0  0  0
105222  1  0  0  0  0
106223  1  0  0  0  0
106224  1  0  0  0  0
106225  1  0  0  0  0
107226  1  0  0  0  0
107227  1  0  0  0  0
108228  1  0  0  0  0
108229  1  0  0  0  0
108230  1  0  0  0  0
113231  1  0  0  0  0
114232  1  0  0  0  0
116233  1  0  0  0  0
116234  1  0  0  0  0
116235  1  0  0  0  0
117236  1  0  0  0  0
118237  1  0  0  0  0
120238  1  0  0  0  0
121239  1  0  0  0  0
123240  1  0  0  0  0
123241  1  0  0  0  0
123242  1  0  0  0  0
124243  1  0  0  0  0
125244  1  0  0  0  0
132245  1  0  0  0  0
133246  1  0  0  0  0
135247  1  0  0  0  0
135248  1  0  0  0  0
135249  1  0  0  0  0
136250  1  0  0  0  0
137251  1  0  0  0  0
139252  1  0  0  0  0
140253  1  0  0  0  0
142254  1  0  0  0  0
142255  1  0  0  0  0
142256  1  0  0  0  0
143257  1  0  0  0  0
144258  1  0  0  0  0
147259  1  0  0  0  0
152260  1  0  0  0  0
153261  1  0  0  0  0
156262  1  0  0  0  0
M  END
