
  xtb     02272201593D
 energy: -429.422918902052 gnorm: 0.000444429055 xtb: 6.4.1 (unknown)
262290  0     0  0            999 V2000
   11.3853    4.5051   -1.3795 C   0  0  0  0  0  0  0  0  0  0  0  0
   12.4970    4.6824   -0.5801 C   0  0  0  0  0  0  0  0  0  0  0  0
   12.5453    4.3380    0.8480 C   0  0  0  0  0  0  0  0  0  0  0  0
   11.6617    3.8360    1.5202 O   0  0  0  0  0  0  0  0  0  0  0  0
   13.8427    4.8478    1.3409 C   0  0  0  0  0  0  0  0  0  0  0  0
   14.3404    4.7634    2.6366 C   0  0  0  0  0  0  0  0  0  0  0  0
   15.5876    5.3204    2.7952 C   0  0  0  0  0  0  0  0  0  0  0  0
   16.2834    5.9287    1.7444 C   0  0  0  0  0  0  0  0  0  0  0  0
   15.8001    6.0219    0.4599 C   0  0  0  0  0  0  0  0  0  0  0  0
   14.5388    5.4530    0.2774 C   0  0  0  0  0  0  0  0  0  0  0  0
   13.7247    5.3351   -0.9316 C   0  0  0  0  0  0  0  0  0  0  0  0
   14.1341    5.6332   -2.2100 C   0  0  0  0  0  0  0  0  0  0  0  0
   15.3959    6.1579   -2.5397 C   0  0  0  0  0  0  0  0  0  0  0  0
   16.4168    6.5658   -2.8760 N   0  0  0  0  0  0  0  0  0  0  0  0
   13.3708    5.3660   -3.3628 C   0  0  0  0  0  0  0  0  0  0  0  0
   12.8202    5.1462   -4.3472 N   0  0  0  0  0  0  0  0  0  0  0  0
   17.4565    6.2888    2.6223 C   0  0  0  0  0  0  0  0  0  0  0  0
   17.5778    7.7561    3.1025 C   0  0  0  0  0  0  0  0  0  0  0  0
   16.1785    8.3190    3.1217 C   0  0  0  0  0  0  0  0  0  0  0  0
   15.5220    7.7382    4.1170 C   0  0  0  0  0  0  0  0  0  0  0  0
   16.4659    6.7719    4.7887 C   0  0  0  0  0  0  0  0  0  0  0  0
   17.7955    7.5210    4.6058 C   0  0  0  0  0  0  0  0  0  0  0  0
   16.6827    5.6053    3.7936 C   0  0  0  0  0  0  0  0  0  0  0  0
   10.3828    3.5568   -1.1795 C   0  0  0  0  0  0  0  0  0  0  0  0
   10.3894    2.3308   -0.4790 C   0  0  0  0  0  0  0  0  0  0  0  0
   11.4747    1.6645    0.0047 N   0  0  0  0  0  0  0  0  0  0  0  0
   12.7801    1.8614   -0.4648 C   0  0  0  0  0  0  0  0  0  0  0  0
   13.0462    2.0671   -1.8179 C   0  0  0  0  0  0  0  0  0  0  0  0
   14.3372    2.2992   -2.2425 C   0  0  0  0  0  0  0  0  0  0  0  0
   15.3986    2.3351   -1.3409 C   0  0  0  0  0  0  0  0  0  0  0  0
   16.7820    2.6530   -1.8137 C   0  0  0  0  0  0  0  0  0  0  0  0
   15.1315    2.0810   -0.0024 C   0  0  0  0  0  0  0  0  0  0  0  0
   13.8426    1.8413    0.4358 C   0  0  0  0  0  0  0  0  0  0  0  0
   11.2738    0.6620    0.9823 C   0  0  0  0  0  0  0  0  0  0  0  0
   10.5843    0.9558    2.1545 C   0  0  0  0  0  0  0  0  0  0  0  0
   10.3669   -0.0383    3.0864 C   0  0  0  0  0  0  0  0  0  0  0  0
   10.8246   -1.3346    2.8733 C   0  0  0  0  0  0  0  0  0  0  0  0
   10.5573   -2.4002    3.8900 C   0  0  0  0  0  0  0  0  0  0  0  0
   11.5292   -1.6083    1.7086 C   0  0  0  0  0  0  0  0  0  0  0  0
   11.7593   -0.6221    0.7686 C   0  0  0  0  0  0  0  0  0  0  0  0
    9.0929    1.7669   -0.4644 C   0  0  0  0  0  0  0  0  0  0  0  0
    8.4394    0.3094    0.2002 S   0  0  0  0  0  0  0  0  0  0  0  0
    6.8912    0.6226   -0.5717 C   0  0  0  0  0  0  0  0  0  0  0  0
    6.8978    1.7968   -1.3181 C   0  0  0  0  0  0  0  0  0  0  0  0
    5.8630    2.2758   -2.1067 N   0  0  0  0  0  0  0  0  0  0  0  0
    5.0624    1.4089   -2.8553 C   0  0  0  0  0  0  0  0  0  0  0  0
    3.7174    1.7039   -3.0738 C   0  0  0  0  0  0  0  0  0  0  0  0
    2.9033    0.7990   -3.7262 C   0  0  0  0  0  0  0  0  0  0  0  0
    3.3946   -0.4217   -4.1705 C   0  0  0  0  0  0  0  0  0  0  0  0
    2.5005   -1.4344   -4.8183 C   0  0  0  0  0  0  0  0  0  0  0  0
    4.7464   -0.6921   -3.9851 C   0  0  0  0  0  0  0  0  0  0  0  0
    5.5736    0.2096   -3.3494 C   0  0  0  0  0  0  0  0  0  0  0  0
    5.6799    3.6668   -2.1838 C   0  0  0  0  0  0  0  0  0  0  0  0
    5.3841    4.2792   -3.3983 C   0  0  0  0  0  0  0  0  0  0  0  0
    5.2186    5.6479   -3.4600 C   0  0  0  0  0  0  0  0  0  0  0  0
    5.3506    6.4409   -2.3256 C   0  0  0  0  0  0  0  0  0  0  0  0
    5.2020    7.9288   -2.4099 C   0  0  0  0  0  0  0  0  0  0  0  0
    5.6474    5.8209   -1.1185 C   0  0  0  0  0  0  0  0  0  0  0  0
    5.8058    4.4516   -1.0409 C   0  0  0  0  0  0  0  0  0  0  0  0
    8.1521    2.4457   -1.2245 C   0  0  0  0  0  0  0  0  0  0  0  0
    8.8144    3.8648   -1.9485 S   0  0  0  0  0  0  0  0  0  0  0  0
    5.8229   -0.2950   -0.3512 C   0  0  0  0  0  0  0  0  0  0  0  0
    5.9069   -1.6462   -0.0641 C   0  0  0  0  0  0  0  0  0  0  0  0
    7.1314   -2.4505   -0.0393 C   0  0  0  0  0  0  0  0  0  0  0  0
    8.0553   -2.4007   -1.0796 C   0  0  0  0  0  0  0  0  0  0  0  0
    9.1888   -3.1877   -1.0328 C   0  0  0  0  0  0  0  0  0  0  0  0
    9.4003   -4.0456    0.0325 C   0  0  0  0  0  0  0  0  0  0  0  0
    8.4766   -4.1289    1.0652 C   0  0  0  0  0  0  0  0  0  0  0  0
    8.6436   -5.1253    2.1756 C   0  0  0  0  0  0  0  0  0  0  0  0
    7.8645   -6.4025    1.8543 C   0  0  0  0  0  0  0  0  0  0  0  0
    7.3498   -3.3220    1.0210 C   0  0  0  0  0  0  0  0  0  0  0  0
    4.6318   -2.2058    0.1457 C   0  0  0  0  0  0  0  0  0  0  0  0
    4.1033   -3.8432    0.4491 S   0  0  0  0  0  0  0  0  0  0  0  0
    2.4605   -3.3042    0.3535 C   0  0  0  0  0  0  0  0  0  0  0  0
    1.1653   -3.8469    0.3517 C   0  0  0  0  0  0  0  0  0  0  0  0
    0.7132   -5.1832    0.4023 C   0  0  0  0  0  0  0  0  0  0  0  0
   -0.6798   -5.4546    0.1795 C   0  0  0  0  0  0  0  0  0  0  0  0
   -0.9496   -6.7506    0.1852 N   0  0  0  0  0  0  0  0  0  0  0  0
    0.4266   -7.5600    0.4559 S   0  0  0  0  0  0  0  0  0  0  0  0
    1.4225   -6.2881    0.5718 N   0  0  0  0  0  0  0  0  0  0  0  0
   -1.5722   -4.3708    0.0336 C   0  0  0  0  0  0  0  0  0  0  0  0
   -2.9691   -4.3254   -0.1164 C   0  0  0  0  0  0  0  0  0  0  0  0
   -4.3090   -5.4107   -0.2747 S   0  0  0  0  0  0  0  0  0  0  0  0
   -5.3856   -4.0344   -0.3228 C   0  0  0  0  0  0  0  0  0  0  0  0
   -6.7843   -3.9260   -0.4069 C   0  0  0  0  0  0  0  0  0  0  0  0
   -7.6706   -5.0903   -0.4792 C   0  0  0  0  0  0  0  0  0  0  0  0
   -7.4238   -6.0877   -1.4166 C   0  0  0  0  0  0  0  0  0  0  0  0
   -8.2593   -7.1859   -1.4897 C   0  0  0  0  0  0  0  0  0  0  0  0
   -9.3452   -7.2938   -0.6407 C   0  0  0  0  0  0  0  0  0  0  0  0
   -9.5991   -6.3147    0.3119 C   0  0  0  0  0  0  0  0  0  0  0  0
  -10.7498   -6.4565    1.2658 C   0  0  0  0  0  0  0  0  0  0  0  0
  -10.3370   -7.2812    2.4865 C   0  0  0  0  0  0  0  0  0  0  0  0
   -8.7452   -5.2272    0.3950 C   0  0  0  0  0  0  0  0  0  0  0  0
   -7.1935   -2.6002   -0.3891 C   0  0  0  0  0  0  0  0  0  0  0  0
   -5.8300   -1.4886   -0.2678 S   0  0  0  0  0  0  0  0  0  0  0  0
   -4.7219   -2.8103   -0.2193 C   0  0  0  0  0  0  0  0  0  0  0  0
   -3.3382   -2.9792   -0.0999 C   0  0  0  0  0  0  0  0  0  0  0  0
   -2.2279   -2.1831    0.0401 N   0  0  0  0  0  0  0  0  0  0  0  0
   -1.1247   -3.0228    0.1043 C   0  0  0  0  0  0  0  0  0  0  0  0
    0.2681   -2.7634    0.1393 C   0  0  0  0  0  0  0  0  0  0  0  0
    1.0082   -1.6044   -0.0179 N   0  0  0  0  0  0  0  0  0  0  0  0
    2.3318   -1.9336    0.1169 C   0  0  0  0  0  0  0  0  0  0  0  0
    3.5779   -1.3026    0.0054 C   0  0  0  0  0  0  0  0  0  0  0  0
    4.1648    0.2899   -0.3038 S   0  0  0  0  0  0  0  0  0  0  0  0
    0.6410   -0.3563   -0.6509 C   0  0  0  0  0  0  0  0  0  0  0  0
    0.7531    0.8310    0.3053 C   0  0  0  0  0  0  0  0  0  0  0  0
   -2.4018   -0.8832    0.6523 C   0  0  0  0  0  0  0  0  0  0  0  0
   -2.8391   -1.0170    2.1107 C   0  0  0  0  0  0  0  0  0  0  0  0
   -8.4988   -2.0879   -0.6185 C   0  0  0  0  0  0  0  0  0  0  0  0
   -8.9849   -0.8001   -0.3837 C   0  0  0  0  0  0  0  0  0  0  0  0
   -8.3583    0.1925    0.3463 N   0  0  0  0  0  0  0  0  0  0  0  0
   -8.7533    1.5249    0.0890 C   0  0  0  0  0  0  0  0  0  0  0  0
   -8.6867    2.0312   -1.2050 C   0  0  0  0  0  0  0  0  0  0  0  0
   -9.1464    3.3069   -1.4723 C   0  0  0  0  0  0  0  0  0  0  0  0
   -9.6755    4.1029   -0.4640 C   0  0  0  0  0  0  0  0  0  0  0  0
  -10.1876    5.4791   -0.7554 C   0  0  0  0  0  0  0  0  0  0  0  0
   -9.7092    3.5979    0.8314 C   0  0  0  0  0  0  0  0  0  0  0  0
   -9.2560    2.3252    1.1107 C   0  0  0  0  0  0  0  0  0  0  0  0
   -7.6627   -0.0807    1.5312 C   0  0  0  0  0  0  0  0  0  0  0  0
   -6.6686    0.8009    1.9510 C   0  0  0  0  0  0  0  0  0  0  0  0
   -5.9546    0.5480    3.1049 C   0  0  0  0  0  0  0  0  0  0  0  0
   -6.1958   -0.5892    3.8646 C   0  0  0  0  0  0  0  0  0  0  0  0
   -5.4102   -0.8812    5.1063 C   0  0  0  0  0  0  0  0  0  0  0  0
   -7.1973   -1.4585    3.4455 C   0  0  0  0  0  0  0  0  0  0  0  0
   -7.9297   -1.2094    2.3033 C   0  0  0  0  0  0  0  0  0  0  0  0
  -10.2714   -0.6412   -0.9444 C   0  0  0  0  0  0  0  0  0  0  0  0
  -11.3675    0.6877   -1.0272 S   0  0  0  0  0  0  0  0  0  0  0  0
  -12.5917   -0.3320   -1.7922 C   0  0  0  0  0  0  0  0  0  0  0  0
  -12.1487   -1.6693   -1.9161 C   0  0  0  0  0  0  0  0  0  0  0  0
  -12.9194   -2.7106   -2.3277 N   0  0  0  0  0  0  0  0  0  0  0  0
  -14.3197   -2.7357   -2.1391 C   0  0  0  0  0  0  0  0  0  0  0  0
  -15.1274   -3.2956   -3.1230 C   0  0  0  0  0  0  0  0  0  0  0  0
  -16.4969   -3.3410   -2.9484 C   0  0  0  0  0  0  0  0  0  0  0  0
  -17.0890   -2.8346   -1.7978 C   0  0  0  0  0  0  0  0  0  0  0  0
  -18.5765   -2.8500   -1.6317 C   0  0  0  0  0  0  0  0  0  0  0  0
  -16.2677   -2.2934   -0.8144 C   0  0  0  0  0  0  0  0  0  0  0  0
  -14.8974   -2.2467   -0.9713 C   0  0  0  0  0  0  0  0  0  0  0  0
  -12.3014   -3.8869   -2.8033 C   0  0  0  0  0  0  0  0  0  0  0  0
  -11.3342   -3.8146   -3.8016 C   0  0  0  0  0  0  0  0  0  0  0  0
  -10.7347   -4.9685   -4.2649 C   0  0  0  0  0  0  0  0  0  0  0  0
  -11.0843   -6.2130   -3.7542 C   0  0  0  0  0  0  0  0  0  0  0  0
  -10.4514   -7.4578   -4.2920 C   0  0  0  0  0  0  0  0  0  0  0  0
  -12.0561   -6.2727   -2.7628 C   0  0  0  0  0  0  0  0  0  0  0  0
  -12.6628   -5.1270   -2.2885 C   0  0  0  0  0  0  0  0  0  0  0  0
  -10.8079   -1.7946   -1.4983 C   0  0  0  0  0  0  0  0  0  0  0  0
   -9.6885   -3.1123   -1.4173 S   0  0  0  0  0  0  0  0  0  0  0  0
  -13.7293    0.2137   -2.3842 C   0  0  0  0  0  0  0  0  0  0  0  0
  -14.1681    1.5182   -2.3415 C   0  0  0  0  0  0  0  0  0  0  0  0
  -14.9666    2.0586   -3.4553 C   0  0  0  0  0  0  0  0  0  0  0  0
  -15.5295    1.4408   -4.3336 O   0  0  0  0  0  0  0  0  0  0  0  0
  -14.8826    3.5355   -3.3044 C   0  0  0  0  0  0  0  0  0  0  0  0
  -15.3599    4.5195   -4.1441 C   0  0  0  0  0  0  0  0  0  0  0  0
  -15.1162    5.8477   -3.8099 C   0  0  0  0  0  0  0  0  0  0  0  0
  -15.6772    7.1220   -4.8238 Cl  0  0  0  0  0  0  0  0  0  0  0  0
  -14.4098    6.1448   -2.6450 C   0  0  0  0  0  0  0  0  0  0  0  0
  -14.1649    7.4274   -2.3378 F   0  0  0  0  0  0  0  0  0  0  0  0
  -13.9424    5.1615   -1.7855 C   0  0  0  0  0  0  0  0  0  0  0  0
  -14.1807    3.8417   -2.1248 C   0  0  0  0  0  0  0  0  0  0  0  0
  -13.8571    2.5916   -1.4393 C   0  0  0  0  0  0  0  0  0  0  0  0
  -13.5794    2.4703   -0.0961 C   0  0  0  0  0  0  0  0  0  0  0  0
  -13.6737    1.2360    0.5757 C   0  0  0  0  0  0  0  0  0  0  0  0
  -13.8221    0.2525    1.1512 N   0  0  0  0  0  0  0  0  0  0  0  0
  -13.2695    3.5545    0.7403 C   0  0  0  0  0  0  0  0  0  0  0  0
  -12.9737    4.4113    1.4467 N   0  0  0  0  0  0  0  0  0  0  0  0
   11.2409    5.1717   -2.2213 H   0  0  0  0  0  0  0  0  0  0  0  0
   13.7713    4.2885    3.4209 H   0  0  0  0  0  0  0  0  0  0  0  0
   16.3423    6.5006   -0.3387 H   0  0  0  0  0  0  0  0  0  0  0  0
   18.4177    5.8683    2.3322 H   0  0  0  0  0  0  0  0  0  0  0  0
   18.3241    8.3436    2.5743 H   0  0  0  0  0  0  0  0  0  0  0  0
   15.8036    9.0163    2.3956 H   0  0  0  0  0  0  0  0  0  0  0  0
   14.4888    7.8530    4.3881 H   0  0  0  0  0  0  0  0  0  0  0  0
   16.2001    6.4630    5.7965 H   0  0  0  0  0  0  0  0  0  0  0  0
   17.8390    8.4480    5.1758 H   0  0  0  0  0  0  0  0  0  0  0  0
   18.6708    6.9116    4.8273 H   0  0  0  0  0  0  0  0  0  0  0  0
   17.1388    4.7369    4.2659 H   0  0  0  0  0  0  0  0  0  0  0  0
   12.2396    2.0499   -2.5353 H   0  0  0  0  0  0  0  0  0  0  0  0
   14.5258    2.4666   -3.2931 H   0  0  0  0  0  0  0  0  0  0  0  0
   17.0321    2.0647   -2.6946 H   0  0  0  0  0  0  0  0  0  0  0  0
   16.8515    3.7055   -2.0907 H   0  0  0  0  0  0  0  0  0  0  0  0
   17.5149    2.4557   -1.0358 H   0  0  0  0  0  0  0  0  0  0  0  0
   15.9397    2.0876    0.7144 H   0  0  0  0  0  0  0  0  0  0  0  0
   13.6463    1.6558    1.4811 H   0  0  0  0  0  0  0  0  0  0  0  0
   10.2488    1.9672    2.3227 H   0  0  0  0  0  0  0  0  0  0  0  0
    9.8332    0.1928    3.9967 H   0  0  0  0  0  0  0  0  0  0  0  0
   10.9258   -2.0956    4.8685 H   0  0  0  0  0  0  0  0  0  0  0  0
    9.4853   -2.5709    3.9757 H   0  0  0  0  0  0  0  0  0  0  0  0
   11.0353   -3.3351    3.6112 H   0  0  0  0  0  0  0  0  0  0  0  0
   11.8972   -2.6074    1.5287 H   0  0  0  0  0  0  0  0  0  0  0  0
   12.3039   -0.8428   -0.1379 H   0  0  0  0  0  0  0  0  0  0  0  0
    3.3108    2.6330   -2.7036 H   0  0  0  0  0  0  0  0  0  0  0  0
    1.8607    1.0424   -3.8770 H   0  0  0  0  0  0  0  0  0  0  0  0
    2.3646   -2.2924   -4.1587 H   0  0  0  0  0  0  0  0  0  0  0  0
    2.9397   -1.7972   -5.7459 H   0  0  0  0  0  0  0  0  0  0  0  0
    1.5234   -1.0103   -5.0364 H   0  0  0  0  0  0  0  0  0  0  0  0
    5.1554   -1.6256   -4.3440 H   0  0  0  0  0  0  0  0  0  0  0  0
    6.6225   -0.0141   -3.2228 H   0  0  0  0  0  0  0  0  0  0  0  0
    5.2920    3.6771   -4.2901 H   0  0  0  0  0  0  0  0  0  0  0  0
    4.9933    6.1113   -4.4096 H   0  0  0  0  0  0  0  0  0  0  0  0
    4.4838    8.2048   -3.1787 H   0  0  0  0  0  0  0  0  0  0  0  0
    4.8780    8.3420   -1.4576 H   0  0  0  0  0  0  0  0  0  0  0  0
    6.1597    8.3831   -2.6664 H   0  0  0  0  0  0  0  0  0  0  0  0
    5.7513    6.4173   -0.2236 H   0  0  0  0  0  0  0  0  0  0  0  0
    6.0249    3.9817   -0.0930 H   0  0  0  0  0  0  0  0  0  0  0  0
    7.8749   -1.7542   -1.9255 H   0  0  0  0  0  0  0  0  0  0  0  0
    9.9073   -3.1412   -1.8381 H   0  0  0  0  0  0  0  0  0  0  0  0
   10.2846   -4.6664    0.0550 H   0  0  0  0  0  0  0  0  0  0  0  0
    8.2701   -4.7066    3.1121 H   0  0  0  0  0  0  0  0  0  0  0  0
    9.6999   -5.3687    2.3045 H   0  0  0  0  0  0  0  0  0  0  0  0
    7.9739   -7.1276    2.6574 H   0  0  0  0  0  0  0  0  0  0  0  0
    8.2317   -6.8470    0.9319 H   0  0  0  0  0  0  0  0  0  0  0  0
    6.8079   -6.1785    1.7274 H   0  0  0  0  0  0  0  0  0  0  0  0
    6.6297   -3.3671    1.8253 H   0  0  0  0  0  0  0  0  0  0  0  0
   -6.5862   -5.9923   -2.0908 H   0  0  0  0  0  0  0  0  0  0  0  0
   -8.0609   -7.9614   -2.2143 H   0  0  0  0  0  0  0  0  0  0  0  0
  -10.0011   -8.1497   -0.7092 H   0  0  0  0  0  0  0  0  0  0  0  0
  -11.0838   -5.4696    1.5917 H   0  0  0  0  0  0  0  0  0  0  0  0
  -11.5845   -6.9487    0.7625 H   0  0  0  0  0  0  0  0  0  0  0  0
   -9.5124   -6.7990    3.0066 H   0  0  0  0  0  0  0  0  0  0  0  0
  -10.0130   -8.2735    2.1810 H   0  0  0  0  0  0  0  0  0  0  0  0
  -11.1710   -7.3844    3.1768 H   0  0  0  0  0  0  0  0  0  0  0  0
   -8.9145   -4.4696    1.1475 H   0  0  0  0  0  0  0  0  0  0  0  0
    1.3317   -0.1913   -1.4869 H   0  0  0  0  0  0  0  0  0  0  0  0
   -0.3632   -0.4534   -1.0658 H   0  0  0  0  0  0  0  0  0  0  0  0
    0.2127    0.6543    1.2328 H   0  0  0  0  0  0  0  0  0  0  0  0
    1.7951    1.0097    0.5548 H   0  0  0  0  0  0  0  0  0  0  0  0
    0.3567    1.7240   -0.1699 H   0  0  0  0  0  0  0  0  0  0  0  0
   -1.4741   -0.3258    0.6123 H   0  0  0  0  0  0  0  0  0  0  0  0
   -3.1695   -0.3479    0.0851 H   0  0  0  0  0  0  0  0  0  0  0  0
   -2.9305   -0.0310    2.5566 H   0  0  0  0  0  0  0  0  0  0  0  0
   -2.1048   -1.5915    2.6721 H   0  0  0  0  0  0  0  0  0  0  0  0
   -3.8029   -1.5142    2.1819 H   0  0  0  0  0  0  0  0  0  0  0  0
   -8.2880    1.4134   -1.9969 H   0  0  0  0  0  0  0  0  0  0  0  0
   -9.1013    3.6859   -2.4832 H   0  0  0  0  0  0  0  0  0  0  0  0
  -10.9360    5.7682   -0.0218 H   0  0  0  0  0  0  0  0  0  0  0  0
  -10.6218    5.5299   -1.7517 H   0  0  0  0  0  0  0  0  0  0  0  0
   -9.3719    6.2012   -0.7071 H   0  0  0  0  0  0  0  0  0  0  0  0
  -10.1234    4.2004    1.6257 H   0  0  0  0  0  0  0  0  0  0  0  0
   -9.3097    1.9341    2.1160 H   0  0  0  0  0  0  0  0  0  0  0  0
   -6.4607    1.6815    1.3621 H   0  0  0  0  0  0  0  0  0  0  0  0
   -5.1913    1.2466    3.4163 H   0  0  0  0  0  0  0  0  0  0  0  0
   -6.0738   -0.9540    5.9669 H   0  0  0  0  0  0  0  0  0  0  0  0
   -4.8857   -1.8315    5.0112 H   0  0  0  0  0  0  0  0  0  0  0  0
   -4.6794   -0.0997    5.2975 H   0  0  0  0  0  0  0  0  0  0  0  0
   -7.4127   -2.3410    4.0309 H   0  0  0  0  0  0  0  0  0  0  0  0
   -8.7185   -1.8861    2.0105 H   0  0  0  0  0  0  0  0  0  0  0  0
  -14.6771   -3.6857   -4.0240 H   0  0  0  0  0  0  0  0  0  0  0  0
  -17.1154   -3.7698   -3.7230 H   0  0  0  0  0  0  0  0  0  0  0  0
  -19.0171   -3.7018   -2.1446 H   0  0  0  0  0  0  0  0  0  0  0  0
  -19.0036   -1.9423   -2.0593 H   0  0  0  0  0  0  0  0  0  0  0  0
  -18.8500   -2.8870   -0.5800 H   0  0  0  0  0  0  0  0  0  0  0  0
  -16.7041   -1.9064    0.0943 H   0  0  0  0  0  0  0  0  0  0  0  0
  -14.2809   -1.8232   -0.1929 H   0  0  0  0  0  0  0  0  0  0  0  0
  -11.0653   -2.8532   -4.2143 H   0  0  0  0  0  0  0  0  0  0  0  0
   -9.9870   -4.9027   -5.0414 H   0  0  0  0  0  0  0  0  0  0  0  0
  -10.9368   -7.7487   -5.2244 H   0  0  0  0  0  0  0  0  0  0  0  0
  -10.5497   -8.2795   -3.5880 H   0  0  0  0  0  0  0  0  0  0  0  0
   -9.3973   -7.2923   -4.5013 H   0  0  0  0  0  0  0  0  0  0  0  0
  -12.3423   -7.2306   -2.3543 H   0  0  0  0  0  0  0  0  0  0  0  0
  -13.4143   -5.1824   -1.5149 H   0  0  0  0  0  0  0  0  0  0  0  0
  -14.2603   -0.4211   -3.0853 H   0  0  0  0  0  0  0  0  0  0  0  0
  -15.9062    4.2643   -5.0380 H   0  0  0  0  0  0  0  0  0  0  0  0
  -13.4054    5.4491   -0.8966 H   0  0  0  0  0  0  0  0  0  0  0  0
  1  2  2  0  0  0  0
  2  3  1  0  0  0  0
  3  4  2  0  0  0  0
  3  5  1  0  0  0  0
  5  6  2  0  0  0  0
  6  7  1  0  0  0  0
  7  8  2  0  0  0  0
  8  9  1  0  0  0  0
  9 10  2  0  0  0  0
 10 11  1  0  0  0  0
 11 12  2  0  0  0  0
 12 13  1  0  0  0  0
 13 14  3  0  0  0  0
 12 15  1  0  0  0  0
 15 16  3  0  0  0  0
  8 17  1  0  0  0  0
 17 18  1  0  0  0  0
 18 19  1  0  0  0  0
 19 20  2  0  0  0  0
 20 21  1  0  0  0  0
 21 22  1  0  0  0  0
 21 23  1  0  0  0  0
  1 24  1  0  0  0  0
 24 25  2  0  0  0  0
 25 26  1  0  0  0  0
 26 27  1  0  0  0  0
 27 28  2  0  0  0  0
 28 29  1  0  0  0  0
 29 30  2  0  0  0  0
 30 31  1  0  0  0  0
 30 32  1  0  0  0  0
 32 33  2  0  0  0  0
 26 34  1  0  0  0  0
 34 35  2  0  0  0  0
 35 36  1  0  0  0  0
 36 37  2  0  0  0  0
 37 38  1  0  0  0  0
 37 39  1  0  0  0  0
 39 40  2  0  0  0  0
 25 41  1  0  0  0  0
 41 42  1  0  0  0  0
 42 43  1  0  0  0  0
 43 44  2  0  0  0  0
 44 45  1  0  0  0  0
 45 46  1  0  0  0  0
 46 47  2  0  0  0  0
 47 48  1  0  0  0  0
 48 49  2  0  0  0  0
 49 50  1  0  0  0  0
 49 51  1  0  0  0  0
 51 52  2  0  0  0  0
 45 53  1  0  0  0  0
 53 54  2  0  0  0  0
 54 55  1  0  0  0  0
 55 56  2  0  0  0  0
 56 57  1  0  0  0  0
 56 58  1  0  0  0  0
 58 59  2  0  0  0  0
 44 60  1  0  0  0  0
 60 61  1  0  0  0  0
 43 62  1  0  0  0  0
 62 63  2  0  0  0  0
 63 64  1  0  0  0  0
 64 65  2  0  0  0  0
 65 66  1  0  0  0  0
 66 67  2  0  0  0  0
 67 68  1  0  0  0  0
 68 69  1  0  0  0  0
 69 70  1  0  0  0  0
 68 71  2  0  0  0  0
 63 72  1  0  0  0  0
 72 73  1  0  0  0  0
 73 74  1  0  0  0  0
 74 75  1  0  0  0  0
 75 76  1  0  0  0  0
 76 77  1  0  0  0  0
 77 78  2  0  0  0  0
 78 79  1  0  0  0  0
 79 80  1  0  0  0  0
 77 81  1  0  0  0  0
 81 82  1  0  0  0  0
 82 83  1  0  0  0  0
 83 84  1  0  0  0  0
 84 85  1  0  0  0  0
 85 86  1  0  0  0  0
 86 87  2  0  0  0  0
 87 88  1  0  0  0  0
 88 89  2  0  0  0  0
 89 90  1  0  0  0  0
 90 91  1  0  0  0  0
 91 92  1  0  0  0  0
 90 93  2  0  0  0  0
 85 94  2  0  0  0  0
 94 95  1  0  0  0  0
 95 96  1  0  0  0  0
 96 97  1  0  0  0  0
 97 98  1  0  0  0  0
 98 99  1  0  0  0  0
 99100  1  0  0  0  0
100101  1  0  0  0  0
101102  1  0  0  0  0
102103  1  0  0  0  0
103104  1  0  0  0  0
101105  1  0  0  0  0
105106  1  0  0  0  0
 98107  1  0  0  0  0
107108  1  0  0  0  0
 94109  1  0  0  0  0
109110  2  0  0  0  0
110111  1  0  0  0  0
111112  1  0  0  0  0
112113  2  0  0  0  0
113114  1  0  0  0  0
114115  2  0  0  0  0
115116  1  0  0  0  0
115117  1  0  0  0  0
117118  2  0  0  0  0
111119  1  0  0  0  0
119120  2  0  0  0  0
120121  1  0  0  0  0
121122  2  0  0  0  0
122123  1  0  0  0  0
122124  1  0  0  0  0
124125  2  0  0  0  0
110126  1  0  0  0  0
126127  1  0  0  0  0
127128  1  0  0  0  0
128129  2  0  0  0  0
129130  1  0  0  0  0
130131  1  0  0  0  0
131132  2  0  0  0  0
132133  1  0  0  0  0
133134  2  0  0  0  0
134135  1  0  0  0  0
134136  1  0  0  0  0
136137  2  0  0  0  0
130138  1  0  0  0  0
138139  2  0  0  0  0
139140  1  0  0  0  0
140141  2  0  0  0  0
141142  1  0  0  0  0
141143  1  0  0  0  0
143144  2  0  0  0  0
129145  1  0  0  0  0
145146  1  0  0  0  0
128147  1  0  0  0  0
147148  2  0  0  0  0
148149  1  0  0  0  0
149150  2  0  0  0  0
149151  1  0  0  0  0
151152  2  0  0  0  0
152153  1  0  0  0  0
153154  1  0  0  0  0
153155  2  0  0  0  0
155156  1  0  0  0  0
155157  1  0  0  0  0
157158  2  0  0  0  0
158159  1  0  0  0  0
159160  2  0  0  0  0
160161  1  0  0  0  0
161162  3  0  0  0  0
160163  1  0  0  0  0
163164  3  0  0  0  0
 11  2  1  0  0  0  0
 23 17  1  0  0  0  0
 61 24  1  0  0  0  0
104 62  1  0  0  0  0
146109  1  0  0  0  0
159148  1  0  0  0  0
 10  5  1  0  0  0  0
 22 18  1  0  0  0  0
 33 27  1  0  0  0  0
 40 34  1  0  0  0  0
 60 41  2  0  0  0  0
 71 64  1  0  0  0  0
103 72  2  0  0  0  0
118112  1  0  0  0  0
125119  1  0  0  0  0
145126  2  0  0  0  0
158151  1  0  0  0  0
 23  7  1  0  0  0  0
 52 46  1  0  0  0  0
 59 53  1  0  0  0  0
102 74  2  0  0  0  0
137131  1  0  0  0  0
144138  1  0  0  0  0
100 75  2  0  0  0  0
 80 76  2  0  0  0  0
 99 81  2  0  0  0  0
 97 82  2  0  0  0  0
 96 84  2  0  0  0  0
 93 86  1  0  0  0  0
  1165  1  0  0  0  0
  6166  1  0  0  0  0
  9167  1  0  0  0  0
 17168  1  0  0  0  0
 18169  1  0  0  0  0
 19170  1  0  0  0  0
 20171  1  0  0  0  0
 21172  1  0  0  0  0
 22173  1  0  0  0  0
 22174  1  0  0  0  0
 23175  1  0  0  0  0
 28176  1  0  0  0  0
 29177  1  0  0  0  0
 31178  1  0  0  0  0
 31179  1  0  0  0  0
 31180  1  0  0  0  0
 32181  1  0  0  0  0
 33182  1  0  0  0  0
 35183  1  0  0  0  0
 36184  1  0  0  0  0
 38185  1  0  0  0  0
 38186  1  0  0  0  0
 38187  1  0  0  0  0
 39188  1  0  0  0  0
 40189  1  0  0  0  0
 47190  1  0  0  0  0
 48191  1  0  0  0  0
 50192  1  0  0  0  0
 50193  1  0  0  0  0
 50194  1  0  0  0  0
 51195  1  0  0  0  0
 52196  1  0  0  0  0
 54197  1  0  0  0  0
 55198  1  0  0  0  0
 57199  1  0  0  0  0
 57200  1  0  0  0  0
 57201  1  0  0  0  0
 58202  1  0  0  0  0
 59203  1  0  0  0  0
 65204  1  0  0  0  0
 66205  1  0  0  0  0
 67206  1  0  0  0  0
 69207  1  0  0  0  0
 69208  1  0  0  0  0
 70209  1  0  0  0  0
 70210  1  0  0  0  0
 70211  1  0  0  0  0
 71212  1  0  0  0  0
 87213  1  0  0  0  0
 88214  1  0  0  0  0
 89215  1  0  0  0  0
 91216  1  0  0  0  0
 91217  1  0  0  0  0
 92218  1  0  0  0  0
 92219  1  0  0  0  0
 92220  1  0  0  0  0
 93221  1  0  0  0  0
105222  1  0  0  0  0
105223  1  0  0  0  0
106224  1  0  0  0  0
106225  1  0  0  0  0
106226  1  0  0  0  0
107227  1  0  0  0  0
107228  1  0  0  0  0
108229  1  0  0  0  0
108230  1  0  0  0  0
108231  1  0  0  0  0
113232  1  0  0  0  0
114233  1  0  0  0  0
116234  1  0  0  0  0
116235  1  0  0  0  0
116236  1  0  0  0  0
117237  1  0  0  0  0
118238  1  0  0  0  0
120239  1  0  0  0  0
121240  1  0  0  0  0
123241  1  0  0  0  0
123242  1  0  0  0  0
123243  1  0  0  0  0
124244  1  0  0  0  0
125245  1  0  0  0  0
132246  1  0  0  0  0
133247  1  0  0  0  0
135248  1  0  0  0  0
135249  1  0  0  0  0
135250  1  0  0  0  0
136251  1  0  0  0  0
137252  1  0  0  0  0
139253  1  0  0  0  0
140254  1  0  0  0  0
142255  1  0  0  0  0
142256  1  0  0  0  0
142257  1  0  0  0  0
143258  1  0  0  0  0
144259  1  0  0  0  0
147260  1  0  0  0  0
152261  1  0  0  0  0
157262  1  0  0  0  0
M  END
