
  xtb     02082201473D
 energy: -425.204796824440 gnorm: 0.000563466463 xtb: 6.4.1 (unknown)
262290  0     0  0            999 V2000
   -8.0766    7.8822    4.7436 C   0  0  0  0  0  0  0  0  0  0  0  0
   -9.2811    7.8731    5.4172 C   0  0  0  0  0  0  0  0  0  0  0  0
  -10.0637    6.6566    5.6789 C   0  0  0  0  0  0  0  0  0  0  0  0
   -9.7736    5.5106    5.3850 O   0  0  0  0  0  0  0  0  0  0  0  0
  -11.3450    7.1191    6.2537 C   0  0  0  0  0  0  0  0  0  0  0  0
  -12.4158    6.3295    6.6608 C   0  0  0  0  0  0  0  0  0  0  0  0
  -13.4723    7.0425    7.1772 C   0  0  0  0  0  0  0  0  0  0  0  0
  -13.4693    8.4389    7.2699 C   0  0  0  0  0  0  0  0  0  0  0  0
  -12.4199    9.2305    6.8649 C   0  0  0  0  0  0  0  0  0  0  0  0
  -11.3333    8.5236    6.3460 C   0  0  0  0  0  0  0  0  0  0  0  0
  -10.0457    9.0070    5.8492 C   0  0  0  0  0  0  0  0  0  0  0  0
   -9.5812   10.2978    5.9398 C   0  0  0  0  0  0  0  0  0  0  0  0
  -10.3116   11.3720    6.4773 C   0  0  0  0  0  0  0  0  0  0  0  0
  -10.8472   12.2877    6.9203 N   0  0  0  0  0  0  0  0  0  0  0  0
   -8.2771   10.6911    5.5819 C   0  0  0  0  0  0  0  0  0  0  0  0
   -7.2216   11.0757    5.3402 N   0  0  0  0  0  0  0  0  0  0  0  0
  -14.8545    8.4833    7.8677 C   0  0  0  0  0  0  0  0  0  0  0  0
  -16.0034    8.8877    6.9203 C   0  0  0  0  0  0  0  0  0  0  0  0
  -17.2447    8.3849    7.6213 C   0  0  0  0  0  0  0  0  0  0  0  0
  -17.2470    7.0607    7.5374 C   0  0  0  0  0  0  0  0  0  0  0  0
  -16.0074    6.6464    6.7780 C   0  0  0  0  0  0  0  0  0  0  0  0
  -15.8798    7.8326    5.8135 C   0  0  0  0  0  0  0  0  0  0  0  0
  -14.8564    6.9240    7.7677 C   0  0  0  0  0  0  0  0  0  0  0  0
   -7.1756    6.8188    4.6743 C   0  0  0  0  0  0  0  0  0  0  0  0
   -6.9713    5.7156    5.5304 C   0  0  0  0  0  0  0  0  0  0  0  0
   -7.5000    5.5306    6.7732 N   0  0  0  0  0  0  0  0  0  0  0  0
   -7.5499    4.2244    7.3109 C   0  0  0  0  0  0  0  0  0  0  0  0
   -8.1023    3.1819    6.5731 C   0  0  0  0  0  0  0  0  0  0  0  0
   -8.1482    1.9123    7.1109 C   0  0  0  0  0  0  0  0  0  0  0  0
   -7.6504    1.6522    8.3839 C   0  0  0  0  0  0  0  0  0  0  0  0
   -7.7201    0.2663    8.9474 C   0  0  0  0  0  0  0  0  0  0  0  0
   -7.1087    2.7033    9.1119 C   0  0  0  0  0  0  0  0  0  0  0  0
   -7.0575    3.9808    8.5874 C   0  0  0  0  0  0  0  0  0  0  0  0
   -7.9723    6.5806    7.5724 C   0  0  0  0  0  0  0  0  0  0  0  0
   -7.3089    7.8058    7.6294 C   0  0  0  0  0  0  0  0  0  0  0  0
   -7.8182    8.8348    8.3925 C   0  0  0  0  0  0  0  0  0  0  0  0
   -8.9968    8.6802    9.1192 C   0  0  0  0  0  0  0  0  0  0  0  0
   -9.5652    9.8280    9.8925 C   0  0  0  0  0  0  0  0  0  0  0  0
   -9.6260    7.4430    9.0935 C   0  0  0  0  0  0  0  0  0  0  0  0
   -9.1235    6.4014    8.3361 C   0  0  0  0  0  0  0  0  0  0  0  0
   -5.9970    4.8459    4.9879 C   0  0  0  0  0  0  0  0  0  0  0  0
   -5.2884    3.3667    5.5380 S   0  0  0  0  0  0  0  0  0  0  0  0
   -4.1764    3.3719    4.1767 C   0  0  0  0  0  0  0  0  0  0  0  0
   -4.3452    4.4732    3.3461 C   0  0  0  0  0  0  0  0  0  0  0  0
   -3.5857    4.7956    2.2332 N   0  0  0  0  0  0  0  0  0  0  0  0
   -2.2381    4.4278    2.1373 C   0  0  0  0  0  0  0  0  0  0  0  0
   -1.4143    4.4397    3.2610 C   0  0  0  0  0  0  0  0  0  0  0  0
   -0.1395    3.9162    3.1984 C   0  0  0  0  0  0  0  0  0  0  0  0
    0.3643    3.3947    2.0119 C   0  0  0  0  0  0  0  0  0  0  0  0
    1.7142    2.7462    1.9779 C   0  0  0  0  0  0  0  0  0  0  0  0
   -0.4290    3.4697    0.8741 C   0  0  0  0  0  0  0  0  0  0  0  0
   -1.7129    3.9755    0.9280 C   0  0  0  0  0  0  0  0  0  0  0  0
   -4.2128    5.4408    1.1533 C   0  0  0  0  0  0  0  0  0  0  0  0
   -5.5003    5.0838    0.7629 C   0  0  0  0  0  0  0  0  0  0  0  0
   -6.1122    5.7372   -0.2885 C   0  0  0  0  0  0  0  0  0  0  0  0
   -5.4591    6.7476   -0.9827 C   0  0  0  0  0  0  0  0  0  0  0  0
   -6.1367    7.4709   -2.1057 C   0  0  0  0  0  0  0  0  0  0  0  0
   -4.1678    7.0872   -0.5947 C   0  0  0  0  0  0  0  0  0  0  0  0
   -3.5485    6.4491    0.4604 C   0  0  0  0  0  0  0  0  0  0  0  0
   -5.3968    5.2961    3.8212 C   0  0  0  0  0  0  0  0  0  0  0  0
   -6.0361    6.8169    3.3166 S   0  0  0  0  0  0  0  0  0  0  0  0
   -3.2263    2.3095    4.0633 C   0  0  0  0  0  0  0  0  0  0  0  0
   -2.4789    1.7239    5.0663 C   0  0  0  0  0  0  0  0  0  0  0  0
   -2.5134    2.0911    6.4840 C   0  0  0  0  0  0  0  0  0  0  0  0
   -2.5080    3.4192    6.9006 C   0  0  0  0  0  0  0  0  0  0  0  0
   -2.5426    3.7239    8.2472 C   0  0  0  0  0  0  0  0  0  0  0  0
   -2.5741    2.7130    9.1910 C   0  0  0  0  0  0  0  0  0  0  0  0
   -2.5584    1.3816    8.7966 C   0  0  0  0  0  0  0  0  0  0  0  0
   -2.6235    0.2800    9.8148 C   0  0  0  0  0  0  0  0  0  0  0  0
   -4.0807   -0.0586   10.1321 C   0  0  0  0  0  0  0  0  0  0  0  0
   -2.5307    1.0837    7.4431 C   0  0  0  0  0  0  0  0  0  0  0  0
   -1.6131    0.7386    4.5460 C   0  0  0  0  0  0  0  0  0  0  0  0
   -0.3681   -0.2480    5.2750 S   0  0  0  0  0  0  0  0  0  0  0  0
    0.0500   -0.8445    3.7032 C   0  0  0  0  0  0  0  0  0  0  0  0
    0.9519   -1.7415    3.1035 C   0  0  0  0  0  0  0  0  0  0  0  0
    1.8466   -2.6800    3.6626 C   0  0  0  0  0  0  0  0  0  0  0  0
    2.5312   -3.5933    2.7901 C   0  0  0  0  0  0  0  0  0  0  0  0
    3.2779   -4.4622    3.4531 N   0  0  0  0  0  0  0  0  0  0  0  0
    3.1373   -4.1556    5.0374 S   0  0  0  0  0  0  0  0  0  0  0  0
    2.1166   -2.9021    4.9392 N   0  0  0  0  0  0  0  0  0  0  0  0
    2.4037   -3.4272    1.3940 C   0  0  0  0  0  0  0  0  0  0  0  0
    3.0765   -4.0330    0.3200 C   0  0  0  0  0  0  0  0  0  0  0  0
    4.2328   -5.2890    0.0347 S   0  0  0  0  0  0  0  0  0  0  0  0
    4.2594   -4.8521   -1.6577 C   0  0  0  0  0  0  0  0  0  0  0  0
    4.9504   -5.3729   -2.7717 C   0  0  0  0  0  0  0  0  0  0  0  0
    5.7375   -6.6047   -2.7025 C   0  0  0  0  0  0  0  0  0  0  0  0
    5.6089   -7.5863   -3.6840 C   0  0  0  0  0  0  0  0  0  0  0  0
    6.2719   -8.7893   -3.5516 C   0  0  0  0  0  0  0  0  0  0  0  0
    7.0516   -9.0369   -2.4339 C   0  0  0  0  0  0  0  0  0  0  0  0
    7.1929   -8.0718   -1.4454 C   0  0  0  0  0  0  0  0  0  0  0  0
    7.9733   -8.3527   -0.1939 C   0  0  0  0  0  0  0  0  0  0  0  0
    7.0287   -8.8062    0.9212 C   0  0  0  0  0  0  0  0  0  0  0  0
    6.5400   -6.8578   -1.5958 C   0  0  0  0  0  0  0  0  0  0  0  0
    4.6501   -4.6655   -3.9248 C   0  0  0  0  0  0  0  0  0  0  0  0
    3.4757   -3.3893   -3.6420 S   0  0  0  0  0  0  0  0  0  0  0  0
    3.4066   -3.7926   -1.9640 C   0  0  0  0  0  0  0  0  0  0  0  0
    2.7115   -3.3388   -0.8350 C   0  0  0  0  0  0  0  0  0  0  0  0
    1.8086   -2.3582   -0.5241 N   0  0  0  0  0  0  0  0  0  0  0  0
    1.5828   -2.4064    0.8383 C   0  0  0  0  0  0  0  0  0  0  0  0
    0.7369   -1.6614    1.7003 C   0  0  0  0  0  0  0  0  0  0  0  0
   -0.3056   -0.7765    1.4618 N   0  0  0  0  0  0  0  0  0  0  0  0
   -0.7256   -0.3032    2.6777 C   0  0  0  0  0  0  0  0  0  0  0  0
   -1.6934    0.5847    3.1630 C   0  0  0  0  0  0  0  0  0  0  0  0
   -2.9340    1.5758    2.4920 S   0  0  0  0  0  0  0  0  0  0  0  0
   -1.2311   -0.7356    0.3510 C   0  0  0  0  0  0  0  0  0  0  0  0
   -2.0550   -2.0197    0.2789 C   0  0  0  0  0  0  0  0  0  0  0  0
    1.5119   -1.3191   -1.4815 C   0  0  0  0  0  0  0  0  0  0  0  0
    0.4898   -1.7701   -2.5239 C   0  0  0  0  0  0  0  0  0  0  0  0
    5.2797   -4.8402   -5.1971 C   0  0  0  0  0  0  0  0  0  0  0  0
    4.7537   -4.8200   -6.4788 C   0  0  0  0  0  0  0  0  0  0  0  0
    3.4264   -4.5723   -6.8259 N   0  0  0  0  0  0  0  0  0  0  0  0
    2.8530   -3.3297   -6.5503 C   0  0  0  0  0  0  0  0  0  0  0  0
    1.4741   -3.2088   -6.3865 C   0  0  0  0  0  0  0  0  0  0  0  0
    0.9131   -1.9805   -6.1025 C   0  0  0  0  0  0  0  0  0  0  0  0
    1.6999   -0.8431   -5.9663 C   0  0  0  0  0  0  0  0  0  0  0  0
    1.0941    0.4950   -5.6665 C   0  0  0  0  0  0  0  0  0  0  0  0
    3.0738   -0.9704   -6.1285 C   0  0  0  0  0  0  0  0  0  0  0  0
    3.6482   -2.1908   -6.4207 C   0  0  0  0  0  0  0  0  0  0  0  0
    2.8376   -5.4668   -7.7365 C   0  0  0  0  0  0  0  0  0  0  0  0
    2.0298   -5.0227   -8.7783 C   0  0  0  0  0  0  0  0  0  0  0  0
    1.4830   -5.9290   -9.6663 C   0  0  0  0  0  0  0  0  0  0  0  0
    1.7352   -7.2896   -9.5540 C   0  0  0  0  0  0  0  0  0  0  0  0
    1.1607   -8.2732  -10.5268 C   0  0  0  0  0  0  0  0  0  0  0  0
    2.5519   -7.7243   -8.5158 C   0  0  0  0  0  0  0  0  0  0  0  0
    3.0923   -6.8317   -7.6144 C   0  0  0  0  0  0  0  0  0  0  0  0
    5.7338   -5.1771   -7.4335 C   0  0  0  0  0  0  0  0  0  0  0  0
    5.6922   -5.3574   -9.1424 S   0  0  0  0  0  0  0  0  0  0  0  0
    7.3917   -5.8492   -9.1562 C   0  0  0  0  0  0  0  0  0  0  0  0
    7.9758   -5.7570   -7.8727 C   0  0  0  0  0  0  0  0  0  0  0  0
    9.3034   -5.8900   -7.5639 N   0  0  0  0  0  0  0  0  0  0  0  0
   10.3504   -5.5634   -8.4413 C   0  0  0  0  0  0  0  0  0  0  0  0
   11.5837   -6.1982   -8.2862 C   0  0  0  0  0  0  0  0  0  0  0  0
   12.6311   -5.9070   -9.1353 C   0  0  0  0  0  0  0  0  0  0  0  0
   12.4821   -4.9926  -10.1714 C   0  0  0  0  0  0  0  0  0  0  0  0
   13.6088   -4.7052  -11.1125 C   0  0  0  0  0  0  0  0  0  0  0  0
   11.2631   -4.3363  -10.2968 C   0  0  0  0  0  0  0  0  0  0  0  0
   10.2128   -4.6045   -9.4416 C   0  0  0  0  0  0  0  0  0  0  0  0
    9.6671   -6.0987   -6.2056 C   0  0  0  0  0  0  0  0  0  0  0  0
    9.1786   -7.1891   -5.4957 C   0  0  0  0  0  0  0  0  0  0  0  0
    9.5682   -7.3868   -4.1853 C   0  0  0  0  0  0  0  0  0  0  0  0
   10.4350   -6.5058   -3.5528 C   0  0  0  0  0  0  0  0  0  0  0  0
   10.8247   -6.7080   -2.1227 C   0  0  0  0  0  0  0  0  0  0  0  0
   10.9135   -5.4158   -4.2714 C   0  0  0  0  0  0  0  0  0  0  0  0
   10.5396   -5.2112   -5.5837 C   0  0  0  0  0  0  0  0  0  0  0  0
    6.9969   -5.4157   -6.9116 C   0  0  0  0  0  0  0  0  0  0  0  0
    7.0069   -5.1828   -5.1956 S   0  0  0  0  0  0  0  0  0  0  0  0
    7.8893   -6.2410  -10.4020 C   0  0  0  0  0  0  0  0  0  0  0  0
    9.0136   -6.9638  -10.7284 C   0  0  0  0  0  0  0  0  0  0  0  0
    9.6313   -6.7939  -12.0613 C   0  0  0  0  0  0  0  0  0  0  0  0
    9.1830   -6.1853  -13.0086 O   0  0  0  0  0  0  0  0  0  0  0  0
   10.9446   -7.4702  -11.9653 C   0  0  0  0  0  0  0  0  0  0  0  0
   11.9678   -7.5259  -12.8903 C   0  0  0  0  0  0  0  0  0  0  0  0
   13.1270   -8.2107  -12.5584 C   0  0  0  0  0  0  0  0  0  0  0  0
   13.2299   -8.8321  -11.3207 C   0  0  0  0  0  0  0  0  0  0  0  0
   14.6864   -9.6657  -10.9199 Cl  0  0  0  0  0  0  0  0  0  0  0  0
   12.2011   -8.7982  -10.3850 C   0  0  0  0  0  0  0  0  0  0  0  0
   11.0554   -8.0976  -10.7131 C   0  0  0  0  0  0  0  0  0  0  0  0
    9.8207   -7.8645   -9.9619 C   0  0  0  0  0  0  0  0  0  0  0  0
    9.4140   -8.5616   -8.8445 C   0  0  0  0  0  0  0  0  0  0  0  0
    8.0878   -8.5602   -8.3833 C   0  0  0  0  0  0  0  0  0  0  0  0
    7.0069   -8.6200   -7.9955 N   0  0  0  0  0  0  0  0  0  0  0  0
   10.2521   -9.3971   -8.0865 C   0  0  0  0  0  0  0  0  0  0  0  0
   10.9028  -10.0491   -7.3994 N   0  0  0  0  0  0  0  0  0  0  0  0
   -7.8037    8.7673    4.1815 H   0  0  0  0  0  0  0  0  0  0  0  0
  -12.3791    5.2547    6.5727 H   0  0  0  0  0  0  0  0  0  0  0  0
  -12.4327   10.3055    6.9353 H   0  0  0  0  0  0  0  0  0  0  0  0
  -14.9337    8.9422    8.8517 H   0  0  0  0  0  0  0  0  0  0  0  0
  -15.9997    9.9320    6.6202 H   0  0  0  0  0  0  0  0  0  0  0  0
  -17.9410    9.0195    8.1377 H   0  0  0  0  0  0  0  0  0  0  0  0
  -17.9455    6.3683    7.9699 H   0  0  0  0  0  0  0  0  0  0  0  0
  -16.0081    5.6485    6.3475 H   0  0  0  0  0  0  0  0  0  0  0  0
  -16.7060    7.8791    5.1059 H   0  0  0  0  0  0  0  0  0  0  0  0
  -14.9352    7.8649    5.2739 H   0  0  0  0  0  0  0  0  0  0  0  0
  -14.9356    6.3443    8.6860 H   0  0  0  0  0  0  0  0  0  0  0  0
   -8.5154    3.3919    5.5991 H   0  0  0  0  0  0  0  0  0  0  0  0
   -8.5850    1.1074    6.5380 H   0  0  0  0  0  0  0  0  0  0  0  0
   -7.1870   -0.4308    8.3026 H   0  0  0  0  0  0  0  0  0  0  0  0
   -7.2840    0.2244    9.9417 H   0  0  0  0  0  0  0  0  0  0  0  0
   -8.7561   -0.0655    9.0071 H   0  0  0  0  0  0  0  0  0  0  0  0
   -6.7199    2.5232   10.1035 H   0  0  0  0  0  0  0  0  0  0  0  0
   -6.6337    4.7928    9.1603 H   0  0  0  0  0  0  0  0  0  0  0  0
   -6.3968    7.9512    7.0703 H   0  0  0  0  0  0  0  0  0  0  0  0
   -7.2974    9.7809    8.4189 H   0  0  0  0  0  0  0  0  0  0  0  0
   -9.9691   10.5775    9.2109 H   0  0  0  0  0  0  0  0  0  0  0  0
   -8.7928   10.3094   10.4896 H   0  0  0  0  0  0  0  0  0  0  0  0
  -10.3660    9.4972   10.5490 H   0  0  0  0  0  0  0  0  0  0  0  0
  -10.5337    7.2931    9.6599 H   0  0  0  0  0  0  0  0  0  0  0  0
   -9.6281    5.4471    8.3177 H   0  0  0  0  0  0  0  0  0  0  0  0
   -1.7876    4.8466    4.1880 H   0  0  0  0  0  0  0  0  0  0  0  0
    0.4714    3.9017    4.0895 H   0  0  0  0  0  0  0  0  0  0  0  0
    2.0867    2.6708    0.9590 H   0  0  0  0  0  0  0  0  0  0  0  0
    1.6531    1.7395    2.3953 H   0  0  0  0  0  0  0  0  0  0  0  0
    2.4297    3.3086    2.5742 H   0  0  0  0  0  0  0  0  0  0  0  0
   -0.0482    3.0995   -0.0674 H   0  0  0  0  0  0  0  0  0  0  0  0
   -2.3318    3.9855    0.0431 H   0  0  0  0  0  0  0  0  0  0  0  0
   -6.0158    4.2894    1.2830 H   0  0  0  0  0  0  0  0  0  0  0  0
   -7.1132    5.4517   -0.5780 H   0  0  0  0  0  0  0  0  0  0  0  0
   -6.6440    8.3571   -1.7228 H   0  0  0  0  0  0  0  0  0  0  0  0
   -6.8808    6.8378   -2.5836 H   0  0  0  0  0  0  0  0  0  0  0  0
   -5.4146    7.7943   -2.8520 H   0  0  0  0  0  0  0  0  0  0  0  0
   -3.6430    7.8711   -1.1213 H   0  0  0  0  0  0  0  0  0  0  0  0
   -2.5485    6.7281    0.7581 H   0  0  0  0  0  0  0  0  0  0  0  0
   -2.4643    4.2129    6.1709 H   0  0  0  0  0  0  0  0  0  0  0  0
   -2.5393    4.7571    8.5626 H   0  0  0  0  0  0  0  0  0  0  0  0
   -2.5996    2.9587   10.2430 H   0  0  0  0  0  0  0  0  0  0  0  0
   -2.1171    0.5912   10.7306 H   0  0  0  0  0  0  0  0  0  0  0  0
   -2.1202   -0.6090    9.4305 H   0  0  0  0  0  0  0  0  0  0  0  0
   -4.5911    0.8161   10.5289 H   0  0  0  0  0  0  0  0  0  0  0  0
   -4.1370   -0.8597   10.8656 H   0  0  0  0  0  0  0  0  0  0  0  0
   -4.5977   -0.3734    9.2288 H   0  0  0  0  0  0  0  0  0  0  0  0
   -2.5309    0.0509    7.1259 H   0  0  0  0  0  0  0  0  0  0  0  0
    4.9690   -7.4120   -4.5361 H   0  0  0  0  0  0  0  0  0  0  0  0
    6.1698   -9.5438   -4.3176 H   0  0  0  0  0  0  0  0  0  0  0  0
    7.5485   -9.9910   -2.3257 H   0  0  0  0  0  0  0  0  0  0  0  0
    8.4978   -7.4511    0.1286 H   0  0  0  0  0  0  0  0  0  0  0  0
    8.7134   -9.1336   -0.3805 H   0  0  0  0  0  0  0  0  0  0  0  0
    7.5863   -9.0127    1.8318 H   0  0  0  0  0  0  0  0  0  0  0  0
    6.5006   -9.7096    0.6245 H   0  0  0  0  0  0  0  0  0  0  0  0
    6.2929   -8.0331    1.1304 H   0  0  0  0  0  0  0  0  0  0  0  0
    6.6555   -6.0971   -0.8378 H   0  0  0  0  0  0  0  0  0  0  0  0
   -0.7134   -0.5671   -0.5887 H   0  0  0  0  0  0  0  0  0  0  0  0
   -1.8903    0.1184    0.5272 H   0  0  0  0  0  0  0  0  0  0  0  0
   -2.6114   -2.1608    1.2026 H   0  0  0  0  0  0  0  0  0  0  0  0
   -2.7603   -1.9642   -0.5458 H   0  0  0  0  0  0  0  0  0  0  0  0
   -1.4068   -2.8819    0.1344 H   0  0  0  0  0  0  0  0  0  0  0  0
    1.1879   -0.4284   -0.9408 H   0  0  0  0  0  0  0  0  0  0  0  0
    2.4454   -1.0702   -1.9996 H   0  0  0  0  0  0  0  0  0  0  0  0
   -0.3980   -2.1862   -2.0558 H   0  0  0  0  0  0  0  0  0  0  0  0
    0.2033   -0.9284   -3.1472 H   0  0  0  0  0  0  0  0  0  0  0  0
    0.9259   -2.5310   -3.1656 H   0  0  0  0  0  0  0  0  0  0  0  0
    0.8505   -4.0857   -6.4760 H   0  0  0  0  0  0  0  0  0  0  0  0
   -0.1580   -1.9068   -5.9785 H   0  0  0  0  0  0  0  0  0  0  0  0
    1.2443    1.1736   -6.5058 H   0  0  0  0  0  0  0  0  0  0  0  0
    1.5653    0.9428   -4.7923 H   0  0  0  0  0  0  0  0  0  0  0  0
    0.0253    0.4086   -5.4857 H   0  0  0  0  0  0  0  0  0  0  0  0
    3.7036   -0.0976   -6.0330 H   0  0  0  0  0  0  0  0  0  0  0  0
    4.7174   -2.2683   -6.5545 H   0  0  0  0  0  0  0  0  0  0  0  0
    1.8417   -3.9662   -8.8987 H   0  0  0  0  0  0  0  0  0  0  0  0
    0.8599   -5.5656  -10.4710 H   0  0  0  0  0  0  0  0  0  0  0  0
    0.6170   -9.0574  -10.0016 H   0  0  0  0  0  0  0  0  0  0  0  0
    0.4833   -7.7841  -11.2222 H   0  0  0  0  0  0  0  0  0  0  0  0
    1.9588   -8.7478  -11.0970 H   0  0  0  0  0  0  0  0  0  0  0  0
    2.7673   -8.7775   -8.4119 H   0  0  0  0  0  0  0  0  0  0  0  0
    3.7238   -7.1895   -6.8145 H   0  0  0  0  0  0  0  0  0  0  0  0
   11.7105   -6.9316   -7.5034 H   0  0  0  0  0  0  0  0  0  0  0  0
   13.5748   -6.4149   -9.0030 H   0  0  0  0  0  0  0  0  0  0  0  0
   13.2306   -4.4899  -12.1090 H   0  0  0  0  0  0  0  0  0  0  0  0
   14.2904   -5.5506  -11.1667 H   0  0  0  0  0  0  0  0  0  0  0  0
   14.1713   -3.8359  -10.7703 H   0  0  0  0  0  0  0  0  0  0  0  0
   11.1302   -3.6029  -11.0781 H   0  0  0  0  0  0  0  0  0  0  0  0
    9.2851   -4.0638   -9.5487 H   0  0  0  0  0  0  0  0  0  0  0  0
    8.4967   -7.8806   -5.9650 H   0  0  0  0  0  0  0  0  0  0  0  0
    9.1871   -8.2407   -3.6478 H   0  0  0  0  0  0  0  0  0  0  0  0
   11.8429   -6.3702   -1.9444 H   0  0  0  0  0  0  0  0  0  0  0  0
   10.1599   -6.1323   -1.4785 H   0  0  0  0  0  0  0  0  0  0  0  0
   10.7414   -7.7547   -1.8434 H   0  0  0  0  0  0  0  0  0  0  0  0
   11.5863   -4.7164   -3.7970 H   0  0  0  0  0  0  0  0  0  0  0  0
   10.9183   -4.3624   -6.1345 H   0  0  0  0  0  0  0  0  0  0  0  0
    7.3291   -5.8733  -11.2571 H   0  0  0  0  0  0  0  0  0  0  0  0
   11.8601   -7.0422  -13.8486 H   0  0  0  0  0  0  0  0  0  0  0  0
   13.9502   -8.2671  -13.2531 H   0  0  0  0  0  0  0  0  0  0  0  0
   12.3181   -9.2919   -9.4340 H   0  0  0  0  0  0  0  0  0  0  0  0
  1  2  2  0  0  0  0
  2  3  1  0  0  0  0
  3  4  2  0  0  0  0
  3  5  1  0  0  0  0
  5  6  2  0  0  0  0
  6  7  1  0  0  0  0
  7  8  2  0  0  0  0
  8  9  1  0  0  0  0
  9 10  2  0  0  0  0
 10 11  1  0  0  0  0
 11 12  2  0  0  0  0
 12 13  1  0  0  0  0
 13 14  3  0  0  0  0
 12 15  1  0  0  0  0
 15 16  3  0  0  0  0
  8 17  1  0  0  0  0
 17 18  1  0  0  0  0
 18 19  1  0  0  0  0
 19 20  2  0  0  0  0
 20 21  1  0  0  0  0
 21 22  1  0  0  0  0
 21 23  1  0  0  0  0
  1 24  1  0  0  0  0
 24 25  2  0  0  0  0
 25 26  1  0  0  0  0
 26 27  1  0  0  0  0
 27 28  2  0  0  0  0
 28 29  1  0  0  0  0
 29 30  2  0  0  0  0
 30 31  1  0  0  0  0
 30 32  1  0  0  0  0
 32 33  2  0  0  0  0
 26 34  1  0  0  0  0
 34 35  2  0  0  0  0
 35 36  1  0  0  0  0
 36 37  2  0  0  0  0
 37 38  1  0  0  0  0
 37 39  1  0  0  0  0
 39 40  2  0  0  0  0
 25 41  1  0  0  0  0
 41 42  1  0  0  0  0
 42 43  1  0  0  0  0
 43 44  2  0  0  0  0
 44 45  1  0  0  0  0
 45 46  1  0  0  0  0
 46 47  2  0  0  0  0
 47 48  1  0  0  0  0
 48 49  2  0  0  0  0
 49 50  1  0  0  0  0
 49 51  1  0  0  0  0
 51 52  2  0  0  0  0
 45 53  1  0  0  0  0
 53 54  2  0  0  0  0
 54 55  1  0  0  0  0
 55 56  2  0  0  0  0
 56 57  1  0  0  0  0
 56 58  1  0  0  0  0
 58 59  2  0  0  0  0
 44 60  1  0  0  0  0
 60 61  1  0  0  0  0
 43 62  1  0  0  0  0
 62 63  2  0  0  0  0
 63 64  1  0  0  0  0
 64 65  2  0  0  0  0
 65 66  1  0  0  0  0
 66 67  2  0  0  0  0
 67 68  1  0  0  0  0
 68 69  1  0  0  0  0
 69 70  1  0  0  0  0
 68 71  2  0  0  0  0
 63 72  1  0  0  0  0
 72 73  1  0  0  0  0
 73 74  1  0  0  0  0
 74 75  1  0  0  0  0
 75 76  1  0  0  0  0
 76 77  1  0  0  0  0
 77 78  2  0  0  0  0
 78 79  1  0  0  0  0
 79 80  1  0  0  0  0
 77 81  1  0  0  0  0
 81 82  1  0  0  0  0
 82 83  1  0  0  0  0
 83 84  1  0  0  0  0
 84 85  1  0  0  0  0
 85 86  1  0  0  0  0
 86 87  2  0  0  0  0
 87 88  1  0  0  0  0
 88 89  2  0  0  0  0
 89 90  1  0  0  0  0
 90 91  1  0  0  0  0
 91 92  1  0  0  0  0
 90 93  2  0  0  0  0
 85 94  2  0  0  0  0
 94 95  1  0  0  0  0
 95 96  1  0  0  0  0
 96 97  1  0  0  0  0
 97 98  1  0  0  0  0
 98 99  1  0  0  0  0
 99100  1  0  0  0  0
100101  1  0  0  0  0
101102  1  0  0  0  0
102103  1  0  0  0  0
103104  1  0  0  0  0
101105  1  0  0  0  0
105106  1  0  0  0  0
 98107  1  0  0  0  0
107108  1  0  0  0  0
 94109  1  0  0  0  0
109110  2  0  0  0  0
110111  1  0  0  0  0
111112  1  0  0  0  0
112113  2  0  0  0  0
113114  1  0  0  0  0
114115  2  0  0  0  0
115116  1  0  0  0  0
115117  1  0  0  0  0
117118  2  0  0  0  0
111119  1  0  0  0  0
119120  2  0  0  0  0
120121  1  0  0  0  0
121122  2  0  0  0  0
122123  1  0  0  0  0
122124  1  0  0  0  0
124125  2  0  0  0  0
110126  1  0  0  0  0
126127  1  0  0  0  0
127128  1  0  0  0  0
128129  2  0  0  0  0
129130  1  0  0  0  0
130131  1  0  0  0  0
131132  2  0  0  0  0
132133  1  0  0  0  0
133134  2  0  0  0  0
134135  1  0  0  0  0
134136  1  0  0  0  0
136137  2  0  0  0  0
130138  1  0  0  0  0
138139  2  0  0  0  0
139140  1  0  0  0  0
140141  2  0  0  0  0
141142  1  0  0  0  0
141143  1  0  0  0  0
143144  2  0  0  0  0
129145  1  0  0  0  0
145146  1  0  0  0  0
128147  1  0  0  0  0
147148  2  0  0  0  0
148149  1  0  0  0  0
149150  2  0  0  0  0
149151  1  0  0  0  0
151152  2  0  0  0  0
152153  1  0  0  0  0
153154  2  0  0  0  0
154155  1  0  0  0  0
154156  1  0  0  0  0
156157  2  0  0  0  0
157158  1  0  0  0  0
158159  2  0  0  0  0
159160  1  0  0  0  0
160161  3  0  0  0  0
159162  1  0  0  0  0
162163  3  0  0  0  0
 11  2  1  0  0  0  0
 23 17  1  0  0  0  0
 61 24  1  0  0  0  0
104 62  1  0  0  0  0
146109  1  0  0  0  0
158148  1  0  0  0  0
 10  5  1  0  0  0  0
 22 18  1  0  0  0  0
 33 27  1  0  0  0  0
 40 34  1  0  0  0  0
 60 41  2  0  0  0  0
 71 64  1  0  0  0  0
103 72  2  0  0  0  0
118112  1  0  0  0  0
125119  1  0  0  0  0
145126  2  0  0  0  0
157151  1  0  0  0  0
 23  7  1  0  0  0  0
 52 46  1  0  0  0  0
 59 53  1  0  0  0  0
102 74  2  0  0  0  0
137131  1  0  0  0  0
144138  1  0  0  0  0
100 75  2  0  0  0  0
 80 76  2  0  0  0  0
 99 81  2  0  0  0  0
 97 82  2  0  0  0  0
 96 84  2  0  0  0  0
 93 86  1  0  0  0  0
  1164  1  0  0  0  0
  6165  1  0  0  0  0
  9166  1  0  0  0  0
 17167  1  0  0  0  0
 18168  1  0  0  0  0
 19169  1  0  0  0  0
 20170  1  0  0  0  0
 21171  1  0  0  0  0
 22172  1  0  0  0  0
 22173  1  0  0  0  0
 23174  1  0  0  0  0
 28175  1  0  0  0  0
 29176  1  0  0  0  0
 31177  1  0  0  0  0
 31178  1  0  0  0  0
 31179  1  0  0  0  0
 32180  1  0  0  0  0
 33181  1  0  0  0  0
 35182  1  0  0  0  0
 36183  1  0  0  0  0
 38184  1  0  0  0  0
 38185  1  0  0  0  0
 38186  1  0  0  0  0
 39187  1  0  0  0  0
 40188  1  0  0  0  0
 47189  1  0  0  0  0
 48190  1  0  0  0  0
 50191  1  0  0  0  0
 50192  1  0  0  0  0
 50193  1  0  0  0  0
 51194  1  0  0  0  0
 52195  1  0  0  0  0
 54196  1  0  0  0  0
 55197  1  0  0  0  0
 57198  1  0  0  0  0
 57199  1  0  0  0  0
 57200  1  0  0  0  0
 58201  1  0  0  0  0
 59202  1  0  0  0  0
 65203  1  0  0  0  0
 66204  1  0  0  0  0
 67205  1  0  0  0  0
 69206  1  0  0  0  0
 69207  1  0  0  0  0
 70208  1  0  0  0  0
 70209  1  0  0  0  0
 70210  1  0  0  0  0
 71211  1  0  0  0  0
 87212  1  0  0  0  0
 88213  1  0  0  0  0
 89214  1  0  0  0  0
 91215  1  0  0  0  0
 91216  1  0  0  0  0
 92217  1  0  0  0  0
 92218  1  0  0  0  0
 92219  1  0  0  0  0
 93220  1  0  0  0  0
105221  1  0  0  0  0
105222  1  0  0  0  0
106223  1  0  0  0  0
106224  1  0  0  0  0
106225  1  0  0  0  0
107226  1  0  0  0  0
107227  1  0  0  0  0
108228  1  0  0  0  0
108229  1  0  0  0  0
108230  1  0  0  0  0
113231  1  0  0  0  0
114232  1  0  0  0  0
116233  1  0  0  0  0
116234  1  0  0  0  0
116235  1  0  0  0  0
117236  1  0  0  0  0
118237  1  0  0  0  0
120238  1  0  0  0  0
121239  1  0  0  0  0
123240  1  0  0  0  0
123241  1  0  0  0  0
123242  1  0  0  0  0
124243  1  0  0  0  0
125244  1  0  0  0  0
132245  1  0  0  0  0
133246  1  0  0  0  0
135247  1  0  0  0  0
135248  1  0  0  0  0
135249  1  0  0  0  0
136250  1  0  0  0  0
137251  1  0  0  0  0
139252  1  0  0  0  0
140253  1  0  0  0  0
142254  1  0  0  0  0
142255  1  0  0  0  0
142256  1  0  0  0  0
143257  1  0  0  0  0
144258  1  0  0  0  0
147259  1  0  0  0  0
152260  1  0  0  0  0
153261  1  0  0  0  0
156262  1  0  0  0  0
M  END
