244

C         -0.10380        0.95220       -7.21760
C          1.25600        0.75520       -7.30770
C          2.00120       -0.18840       -6.45880
O          1.55770       -0.88600       -5.56530
C          3.37050       -0.23160       -7.01470
C          4.44230       -0.98460       -6.54560
C          5.60530       -0.80620       -7.25710
C          5.69290        0.04820       -8.36230
C          4.63960        0.79280       -8.83920
C          3.45120        0.63310       -8.12280
C          2.15070        1.27550       -8.30300
C          1.87510        2.31460       -9.15860
C          0.64640        3.00270       -9.18630
N         -0.31610        3.62800       -9.24120
C          2.79810        2.86900      -10.06340
N          3.50770        3.36630      -10.81830
C          7.14940       -0.27100       -8.59630
C          7.46800       -1.24290       -9.75150
C          8.86360       -1.73230       -9.43870
C          8.78210       -2.54000       -8.38910
C          7.32990       -2.61010       -7.97510
C          6.65740       -2.48140       -9.34790
C          7.05260       -1.22200       -7.36040
C         -0.88340        0.75090       -6.07310
C         -0.55740        0.79640       -4.70250
N          0.62820        1.18340       -4.14490
C          1.51450        2.04790       -4.80480
C          1.04070        3.14440       -5.52140
C          1.91860        3.95860       -6.20830
C          3.28650        3.70590       -6.20510
C          4.23650        4.54670       -6.99720
C          3.75580        2.63650       -5.45060
C          2.88960        1.81860       -4.75330
C          1.02180        0.66010       -2.89380
C          0.82560       -0.68570       -2.59610
C          1.27210       -1.19640       -1.39470
C          1.93480       -0.39320       -0.47160
C          2.46700       -0.98450        0.79740
C          2.11430        0.95130       -0.77150
C          1.65800        1.47790       -1.96540
C         -1.69510        0.47910       -3.92170
S         -1.97860        0.43010       -2.21750
C         -3.65540       -0.01130       -2.49790
C         -3.98880       -0.05670       -3.83910
N         -5.25700       -0.31260       -4.32270
C         -5.42510       -0.99360       -5.53750
C         -4.54230       -1.99720       -5.92530
C         -4.71770       -2.64780       -7.13040
C         -5.77350       -2.32750       -7.97360
C         -5.94390       -3.01930       -9.29140
C         -6.65620       -1.33070       -7.57360
C         -6.48770       -0.66650       -6.37610
C         -6.37680        0.02700       -3.54760
C         -7.45030       -0.85260       -3.43020
C         -8.51000       -0.54460       -2.60220
C         -8.53850        0.64110       -1.87580
C         -9.66760        0.92880       -0.93340
C         -7.48900        1.53500       -2.03830
C         -6.42320        1.24010       -2.86630
C         -2.85500        0.23130       -4.64130
S         -2.60480        0.42170       -6.33620
C         -4.48410       -0.30260       -1.36160
C         -5.13800       -1.47810       -1.06740
C         -5.10380       -2.67970       -1.89970
C         -3.93570       -3.08870       -2.53250
C         -3.94800       -4.22370       -3.32250
C         -5.11410       -4.94600       -3.48740
C         -6.28770       -4.56660       -2.84080
C         -7.52360       -5.40380       -3.04350
C         -8.76760       -4.92520       -2.30680
C         -6.26480       -3.43600       -2.04200
C         -5.78300       -1.39950        0.18800
S         -6.49450       -2.61140        1.23120
C         -6.47170       -1.47550        2.54530
C         -6.56240       -1.46050        3.95480
C         -6.80590       -2.46900        4.91510
C         -6.43200       -2.23670        6.28810
N         -6.67860       -3.28160        7.05960
S         -7.33170       -4.45350        6.15160
N         -7.30930       -3.67800        4.73090
C         -5.76410       -1.03510        6.62320
C         -4.87660       -0.71900        7.66840
S         -4.01060       -1.55790        8.92140
C         -2.76120       -0.32290        8.87900
C         -1.40080       -0.29780        9.26430
C         -0.66960       -1.31920       10.00590
C         -1.02970       -2.66400        9.94560
C         -0.28030       -3.60910       10.61970
C          0.82830       -3.23170       11.35760
C          1.19480       -1.89400       11.44340
C          2.41440       -1.46920       12.21010
C          3.59530       -1.26040       11.26020
C          0.43880       -0.95060       10.76730
C         -0.76110        0.82410        8.75450
S         -1.86610        1.92740        7.93830
C         -3.12430        0.75440        8.06700
C         -4.29910        0.51410        7.34860
N         -4.80490        0.98100        6.16610
C         -5.67020        0.02570        5.67880
C         -6.15560       -0.16410        4.36420
N         -5.93370        0.62580        3.24140
C         -6.04230       -0.20760        2.15410
C         -5.62650       -0.16850        0.81930
S         -4.68300        0.92420       -0.12220
C         -6.26720        2.03080        3.08990
C         -7.58830        2.20910        2.34200
C         -4.16950        2.09280        5.50020
C         -4.68710        3.43130        6.02110
C          0.58670        0.91800        8.28180
S          1.36570        2.44340        7.96770
C          2.41510        1.69000        6.80430
C          3.27660        2.31070        5.88450
C          3.88410        1.51670        4.89430
O          3.79790        0.17690        4.86130
C          2.72160       -0.48000        5.55860
C          1.49160       -0.59790        4.64950
C          1.21010        0.37010        3.69470
C          0.04760        0.30560        2.94730
C         -0.87390       -0.71370        3.14330
C         -2.11260       -0.80230        2.29920
C         -1.81980       -1.57160        1.00910
C         -0.58760       -1.68070        4.09990
C          0.57660       -1.62690        4.84270
C          3.28200       -1.83820        5.93070
C          3.59650       -2.17860        7.23750
C          4.13520       -3.42070        7.52110
C          4.38890       -4.33820        6.51090
C          4.92660       -5.70240        6.83190
C          3.77770       -6.67250        7.11610
C          4.09250       -3.97990        5.20120
C          3.54730       -2.74480        4.91120
C          2.19580        0.32110        6.72410
C          1.19700       -0.11370        7.59320
C          4.58050        2.26090        3.95420
C          4.53070        3.63160        4.19300
S          3.62870        3.97610        5.66570
C          5.05710        4.71480        3.48600
C          5.45680        4.76480        2.16450
C          5.06310        3.81900        1.10680
O          4.42810        2.79080        1.20370
C          5.52490        4.44090       -0.16330
C          6.15940        5.66430        0.11190
C          6.67500        6.43880       -0.91270
C          6.54940        5.96710       -2.21160
F          7.03990        6.69420       -3.21990
C          5.92810        4.75600       -2.50100
F          5.84250        4.33360       -3.76750
C          5.40300        3.98340       -1.46290
F          4.80950        2.82630       -1.74870
C          6.14500        5.87680        1.56020
C          6.75660        6.92160        2.21020
C          7.42190        7.97980        1.55960
N          7.96920        8.87310        1.08930
C          6.83690        7.07130        3.61030
N          6.96910        7.25940        4.73580
H         -0.64580        1.25110       -8.10700
H          4.33410       -1.62990       -5.68760
H          4.71790        1.44210       -9.69560
H          7.83400        0.57400       -8.55040
H          7.30280       -0.83800      -10.74620
H          9.74460       -1.40690       -9.96020
H          9.58150       -3.02380       -7.85880
H          7.03900       -3.45150       -7.35160
H          6.86420       -3.33620       -9.98990
H          5.58330       -2.31210       -9.30070
H          7.67280       -1.00970       -6.49120
H         -0.01840        3.35450       -5.54670
H          1.53000        4.79840       -6.76600
H          5.05780        4.88640       -6.36950
H          4.66320        3.96210       -7.81270
H          3.73360        5.41060       -7.42370
H          4.81590        2.43510       -5.42020
H          3.27050        0.99280       -4.17230
H          0.36950       -1.32880       -3.33230
H          1.12910       -2.24580       -1.17880
H          3.17310       -1.78280        0.57000
H          1.65950       -1.41200        1.39140
H          2.97590       -0.22980        1.39050
H          2.63580        1.58860       -0.07320
H          1.81170        2.52260       -2.19260
H         -3.72840       -2.27540       -5.27380
H         -4.02270       -3.42400       -7.41660
H         -6.99420       -3.07530       -9.56850
H         -5.53180       -4.02520       -9.25860
H         -5.41960       -2.46590      -10.07130
H         -7.48400       -1.06390       -8.21470
H         -7.17630        0.11230       -6.08290
H         -7.43300       -1.78310       -3.97760
H         -9.32940       -1.24270       -2.50450
H         -9.57640        0.30940       -0.04010
H        -10.62490        0.70070       -1.39770
H         -9.66580        1.97250       -0.62840
H         -7.49980        2.47740       -1.50880
H         -5.61470        1.94760       -2.98020
H         -3.02000       -2.53460       -2.39010
H         -3.04080       -4.54660       -3.81230
H         -5.11740       -5.82400       -4.11760
H         -7.73490       -5.44200       -4.11700
H         -7.29530       -6.42690       -2.72930
H         -9.05200       -3.92800       -2.63500
H         -9.59670       -5.59900       -2.51180
H         -8.60000       -4.90900       -1.23240
H         -7.15360       -3.10890       -1.52750
H         -1.88130       -2.96920        9.35830
H         -0.56160       -4.65030       10.56510
H          1.40900       -3.97940       11.87830
H          2.67380       -2.23040       12.94780
H          2.21090       -0.53590       12.73920
H          3.36380       -0.48520       10.53250
H          3.81540       -2.18060       10.72350
H          4.48180       -0.96090       11.81400
H          0.70440        0.09430       10.84290
H         -5.46750        2.53120        2.53280
H         -6.36320        2.47550        4.07870
H         -7.84370        3.26480        2.30410
H         -7.50930        1.83360        1.32520
H         -8.38730        1.67420        2.85130
H         -4.30340        1.99350        4.42670
H         -3.09470        2.02950        5.69970
H         -4.44900        3.53490        7.07680
H         -4.21540        4.24580        5.47940
H         -5.76600        3.51130        5.90730
H          1.90160        1.17740        3.50990
H         -0.14120        1.05950        2.19720
H         -2.46190        0.20020        2.04300
H         -2.90590       -1.31120        2.85250
H         -1.06990       -1.05010        0.41790
H         -2.72330       -1.67060        0.41280
H         -1.45010       -2.56850        1.23890
H         -1.28620       -2.48830        4.26640
H          0.77970       -2.39530        5.57430
H          3.42360       -1.47770        8.04060
H          4.37000       -3.67740        8.54420
H          5.51400       -6.07660        5.99140
H          5.57690       -5.64860        7.70710
H          3.18630       -6.32220        7.95930
H          4.16400       -7.66180        7.34900
H          3.12480       -6.74930        6.24960
H          4.29400       -4.67610        4.39990
H          3.32420       -2.47180        3.89080
H          0.84050       -1.12550        7.64990
H          5.09870        1.82060        3.12480
H          5.10830        5.64000        4.04730
H          7.16380        7.38420       -0.74750
