
  xtb     02232216103D
 energy: -434.581002338928 gnorm: 0.000231012539 xtb: 6.4.1 (unknown)
268296  0     0  0            999 V2000
    7.2486   -1.4373   -3.3404 C   0  0  0  0  0  0  0  0  0  0  0  0
    7.2376   -0.6268   -2.2311 C   0  0  0  0  0  0  0  0  0  0  0  0
    6.0548   -0.0051   -1.6212 C   0  0  0  0  0  0  0  0  0  0  0  0
    5.0044    0.2952   -2.1591 O   0  0  0  0  0  0  0  0  0  0  0  0
    6.4016    0.2301   -0.2111 C   0  0  0  0  0  0  0  0  0  0  0  0
    5.5314    0.6127    0.8054 C   0  0  0  0  0  0  0  0  0  0  0  0
    6.1284    0.7086    2.0387 C   0  0  0  0  0  0  0  0  0  0  0  0
    7.4977    0.4873    2.2362 C   0  0  0  0  0  0  0  0  0  0  0  0
    8.3648    0.1023    1.2387 C   0  0  0  0  0  0  0  0  0  0  0  0
    7.7698   -0.0461   -0.0186 C   0  0  0  0  0  0  0  0  0  0  0  0
    8.3303   -0.5083   -1.2900 C   0  0  0  0  0  0  0  0  0  0  0  0
    9.6475   -0.8167   -1.5244 C   0  0  0  0  0  0  0  0  0  0  0  0
   10.6532   -0.8195   -0.5407 C   0  0  0  0  0  0  0  0  0  0  0  0
   11.5168   -0.8852    0.2150 N   0  0  0  0  0  0  0  0  0  0  0  0
   10.1798   -1.1575   -2.7834 C   0  0  0  0  0  0  0  0  0  0  0  0
   10.6950   -1.4131   -3.7785 N   0  0  0  0  0  0  0  0  0  0  0  0
    7.4069    0.7717    3.7168 C   0  0  0  0  0  0  0  0  0  0  0  0
    7.8686    2.1635    4.2008 C   0  0  0  0  0  0  0  0  0  0  0  0
    7.2342    2.2885    5.5679 C   0  0  0  0  0  0  0  0  0  0  0  0
    5.9294    2.4550    5.3932 C   0  0  0  0  0  0  0  0  0  0  0  0
    5.6581    2.4545    3.9068 C   0  0  0  0  0  0  0  0  0  0  0  0
    6.9545    3.0995    3.3995 C   0  0  0  0  0  0  0  0  0  0  0  0
    5.8740    0.9837    3.4988 C   0  0  0  0  0  0  0  0  0  0  0  0
    6.1598   -1.9188   -4.0807 C   0  0  0  0  0  0  0  0  0  0  0  0
    6.1603   -3.1256   -4.8195 C   0  0  0  0  0  0  0  0  0  0  0  0
    7.2285   -3.9803   -4.9599 N   0  0  0  0  0  0  0  0  0  0  0  0
    8.1593   -4.1889   -3.9226 C   0  0  0  0  0  0  0  0  0  0  0  0
    7.7389   -4.2621   -2.5957 C   0  0  0  0  0  0  0  0  0  0  0  0
    8.6660   -4.4129   -1.5847 C   0  0  0  0  0  0  0  0  0  0  0  0
   10.0244   -4.5230   -1.8645 C   0  0  0  0  0  0  0  0  0  0  0  0
   11.0279   -4.6462   -0.7605 C   0  0  0  0  0  0  0  0  0  0  0  0
   10.4271   -4.4960   -3.1943 C   0  0  0  0  0  0  0  0  0  0  0  0
    9.5125   -4.3259   -4.2153 C   0  0  0  0  0  0  0  0  0  0  0  0
    7.2935   -4.7873   -6.1082 C   0  0  0  0  0  0  0  0  0  0  0  0
    7.7032   -6.1146   -6.0235 C   0  0  0  0  0  0  0  0  0  0  0  0
    7.7507   -6.8982   -7.1595 C   0  0  0  0  0  0  0  0  0  0  0  0
    7.3877   -6.3896   -8.4001 C   0  0  0  0  0  0  0  0  0  0  0  0
    7.4402   -7.2375   -9.6334 C   0  0  0  0  0  0  0  0  0  0  0  0
    6.9876   -5.0600   -8.4764 C   0  0  0  0  0  0  0  0  0  0  0  0
    6.9448   -4.2630   -7.3515 C   0  0  0  0  0  0  0  0  0  0  0  0
    4.8697   -3.4187   -5.3027 C   0  0  0  0  0  0  0  0  0  0  0  0
    4.1348   -4.8054   -6.0577 S   0  0  0  0  0  0  0  0  0  0  0  0
    2.5358   -4.1285   -5.7855 C   0  0  0  0  0  0  0  0  0  0  0  0
    2.5912   -2.8588   -5.2341 C   0  0  0  0  0  0  0  0  0  0  0  0
    1.4874   -2.0942   -4.8927 N   0  0  0  0  0  0  0  0  0  0  0  0
    0.3551   -2.0248   -5.7140 C   0  0  0  0  0  0  0  0  0  0  0  0
   -0.9157   -1.9230   -5.1486 C   0  0  0  0  0  0  0  0  0  0  0  0
   -2.0345   -1.8638   -5.9514 C   0  0  0  0  0  0  0  0  0  0  0  0
   -1.9270   -1.9005   -7.3375 C   0  0  0  0  0  0  0  0  0  0  0  0
   -3.1600   -1.8634   -8.1866 C   0  0  0  0  0  0  0  0  0  0  0  0
   -0.6582   -1.9848   -7.8944 C   0  0  0  0  0  0  0  0  0  0  0  0
    0.4706   -2.0499   -7.1000 C   0  0  0  0  0  0  0  0  0  0  0  0
    1.5168   -1.3757   -3.6836 C   0  0  0  0  0  0  0  0  0  0  0  0
    1.0182   -0.0772   -3.6226 C   0  0  0  0  0  0  0  0  0  0  0  0
    1.0466    0.6184   -2.4329 C   0  0  0  0  0  0  0  0  0  0  0  0
    1.5764    0.0516   -1.2781 C   0  0  0  0  0  0  0  0  0  0  0  0
    1.6017    0.8347   -0.0024 C   0  0  0  0  0  0  0  0  0  0  0  0
    2.0750   -1.2406   -1.3481 C   0  0  0  0  0  0  0  0  0  0  0  0
    2.0424   -1.9536   -2.5317 C   0  0  0  0  0  0  0  0  0  0  0  0
    3.9225   -2.4618   -4.9685 C   0  0  0  0  0  0  0  0  0  0  0  0
    4.5658   -1.1640   -4.0459 S   0  0  0  0  0  0  0  0  0  0  0  0
    1.2788   -4.8477   -5.7354 C   0  0  0  0  0  0  0  0  0  0  0  0
    0.2678   -5.0908   -6.6415 C   0  0  0  0  0  0  0  0  0  0  0  0
    0.4760   -5.1408   -8.0847 C   0  0  0  0  0  0  0  0  0  0  0  0
    1.7311   -5.4650   -8.6005 C   0  0  0  0  0  0  0  0  0  0  0  0
    1.9307   -5.5150   -9.9658 C   0  0  0  0  0  0  0  0  0  0  0  0
    0.8867   -5.2553  -10.8369 C   0  0  0  0  0  0  0  0  0  0  0  0
   -0.3746   -4.9470  -10.3440 C   0  0  0  0  0  0  0  0  0  0  0  0
   -1.5341   -4.7212  -11.2715 C   0  0  0  0  0  0  0  0  0  0  0  0
   -2.3122   -6.0226  -11.4733 C   0  0  0  0  0  0  0  0  0  0  0  0
   -0.5677   -4.8964   -8.9727 C   0  0  0  0  0  0  0  0  0  0  0  0
   -0.9822   -5.2380   -5.9721 C   0  0  0  0  0  0  0  0  0  0  0  0
   -2.6596   -5.1740   -6.4934 S   0  0  0  0  0  0  0  0  0  0  0  0
   -3.1719   -4.9213   -4.8519 C   0  0  0  0  0  0  0  0  0  0  0  0
   -4.2692   -4.4200   -4.1241 C   0  0  0  0  0  0  0  0  0  0  0  0
   -5.5033   -3.8804   -4.5500 C   0  0  0  0  0  0  0  0  0  0  0  0
   -6.2692   -3.0754   -3.6341 C   0  0  0  0  0  0  0  0  0  0  0  0
   -7.3405   -2.5469   -4.2036 N   0  0  0  0  0  0  0  0  0  0  0  0
   -7.3925   -3.0240   -5.7504 S   0  0  0  0  0  0  0  0  0  0  0  0
   -6.0396   -3.9158   -5.7594 N   0  0  0  0  0  0  0  0  0  0  0  0
   -5.8180   -2.9200   -2.3041 C   0  0  0  0  0  0  0  0  0  0  0  0
   -6.2542   -2.1012   -1.2429 C   0  0  0  0  0  0  0  0  0  0  0  0
   -7.3842   -0.8241   -0.9085 S   0  0  0  0  0  0  0  0  0  0  0  0
   -6.6219   -0.5646    0.6521 C   0  0  0  0  0  0  0  0  0  0  0  0
   -6.7631    0.4132    1.6573 C   0  0  0  0  0  0  0  0  0  0  0  0
   -7.8145    1.4282    1.6378 C   0  0  0  0  0  0  0  0  0  0  0  0
   -8.5565    1.7155    2.7822 C   0  0  0  0  0  0  0  0  0  0  0  0
   -9.5789    2.6423    2.7248 C   0  0  0  0  0  0  0  0  0  0  0  0
   -9.8948    3.2633    1.5286 C   0  0  0  0  0  0  0  0  0  0  0  0
   -9.1840    2.9696    0.3726 C   0  0  0  0  0  0  0  0  0  0  0  0
   -9.5801    3.5434   -0.9569 C   0  0  0  0  0  0  0  0  0  0  0  0
  -10.4232    2.5278   -1.7317 C   0  0  0  0  0  0  0  0  0  0  0  0
   -8.1375    2.0637    0.4438 C   0  0  0  0  0  0  0  0  0  0  0  0
   -5.7878    0.2707    2.6415 C   0  0  0  0  0  0  0  0  0  0  0  0
   -4.7690   -1.1424    2.3687 S   0  0  0  0  0  0  0  0  0  0  0  0
   -5.5984   -1.4787    0.8994 C   0  0  0  0  0  0  0  0  0  0  0  0
   -5.3982   -2.3515   -0.1710 C   0  0  0  0  0  0  0  0  0  0  0  0
   -4.4691   -3.3019   -0.4991 N   0  0  0  0  0  0  0  0  0  0  0  0
   -4.6708   -3.6205   -1.8347 C   0  0  0  0  0  0  0  0  0  0  0  0
   -3.8408   -4.2845   -2.7721 C   0  0  0  0  0  0  0  0  0  0  0  0
   -2.5277   -4.7050   -2.6888 N   0  0  0  0  0  0  0  0  0  0  0  0
   -2.1177   -5.0298   -3.9480 C   0  0  0  0  0  0  0  0  0  0  0  0
   -0.8829   -5.1880   -4.5866 C   0  0  0  0  0  0  0  0  0  0  0  0
    0.7395   -4.9935   -4.0619 S   0  0  0  0  0  0  0  0  0  0  0  0
   -1.5719   -4.6362   -1.6102 C   0  0  0  0  0  0  0  0  0  0  0  0
   -1.1610   -3.2012   -1.2860 C   0  0  0  0  0  0  0  0  0  0  0  0
   -3.8840   -4.0873    0.5701 C   0  0  0  0  0  0  0  0  0  0  0  0
   -4.3361   -5.5433    0.5056 C   0  0  0  0  0  0  0  0  0  0  0  0
   -5.3348    1.2116    3.6001 C   0  0  0  0  0  0  0  0  0  0  0  0
   -4.1969    1.0719    4.3991 C   0  0  0  0  0  0  0  0  0  0  0  0
   -3.5127   -0.1194    4.6183 N   0  0  0  0  0  0  0  0  0  0  0  0
   -2.1077   -0.0557    4.5759 C   0  0  0  0  0  0  0  0  0  0  0  0
   -1.4913    0.6405    3.5390 C   0  0  0  0  0  0  0  0  0  0  0  0
   -0.1152    0.7238    3.4800 C   0  0  0  0  0  0  0  0  0  0  0  0
    0.6824    0.1164    4.4430 C   0  0  0  0  0  0  0  0  0  0  0  0
    2.1759    0.1764    4.3449 C   0  0  0  0  0  0  0  0  0  0  0  0
    0.0579   -0.5630    5.4818 C   0  0  0  0  0  0  0  0  0  0  0  0
   -1.3186   -0.6473    5.5572 C   0  0  0  0  0  0  0  0  0  0  0  0
   -4.1732   -1.2166    5.1849 C   0  0  0  0  0  0  0  0  0  0  0  0
   -3.6702   -2.5050    5.0023 C   0  0  0  0  0  0  0  0  0  0  0  0
   -4.3331   -3.5928    5.5308 C   0  0  0  0  0  0  0  0  0  0  0  0
   -5.5175   -3.4391    6.2425 C   0  0  0  0  0  0  0  0  0  0  0  0
   -6.2227   -4.6243    6.8276 C   0  0  0  0  0  0  0  0  0  0  0  0
   -6.0166   -2.1544    6.4135 C   0  0  0  0  0  0  0  0  0  0  0  0
   -5.3581   -1.0554    5.8978 C   0  0  0  0  0  0  0  0  0  0  0  0
   -3.7982    2.3064    4.9418 C   0  0  0  0  0  0  0  0  0  0  0  0
   -2.4398    2.8104    5.8777 S   0  0  0  0  0  0  0  0  0  0  0  0
   -3.0392    4.4756    5.8901 C   0  0  0  0  0  0  0  0  0  0  0  0
   -4.2989    4.5818    5.2613 C   0  0  0  0  0  0  0  0  0  0  0  0
   -5.0491    5.7160    5.1607 N   0  0  0  0  0  0  0  0  0  0  0  0
   -5.8401    5.9200    4.0115 C   0  0  0  0  0  0  0  0  0  0  0  0
   -7.1490    6.3728    4.1360 C   0  0  0  0  0  0  0  0  0  0  0  0
   -7.9147    6.5794    3.0064 C   0  0  0  0  0  0  0  0  0  0  0  0
   -7.3999    6.3393    1.7379 C   0  0  0  0  0  0  0  0  0  0  0  0
   -8.2230    6.6106    0.5181 C   0  0  0  0  0  0  0  0  0  0  0  0
   -6.0923    5.8818    1.6277 C   0  0  0  0  0  0  0  0  0  0  0  0
   -5.3109    5.6761    2.7474 C   0  0  0  0  0  0  0  0  0  0  0  0
   -5.1020    6.6608    6.1989 C   0  0  0  0  0  0  0  0  0  0  0  0
   -5.1339    8.0210    5.9071 C   0  0  0  0  0  0  0  0  0  0  0  0
   -5.1778    8.9456    6.9321 C   0  0  0  0  0  0  0  0  0  0  0  0
   -5.1898    8.5444    8.2629 C   0  0  0  0  0  0  0  0  0  0  0  0
   -5.1855    9.5477    9.3723 C   0  0  0  0  0  0  0  0  0  0  0  0
   -5.1767    7.1821    8.5433 C   0  0  0  0  0  0  0  0  0  0  0  0
   -5.1388    6.2472    7.5293 C   0  0  0  0  0  0  0  0  0  0  0  0
   -4.6582    3.3575    4.6607 C   0  0  0  0  0  0  0  0  0  0  0  0
   -5.9847    2.8420    3.6683 S   0  0  0  0  0  0  0  0  0  0  0  0
   -2.2608    5.4987    6.4337 C   0  0  0  0  0  0  0  0  0  0  0  0
   -0.8925    5.5296    6.5856 C   0  0  0  0  0  0  0  0  0  0  0  0
   -0.2946    6.4342    7.5896 C   0  0  0  0  0  0  0  0  0  0  0  0
   -0.8674    7.2795    8.2433 O   0  0  0  0  0  0  0  0  0  0  0  0
    1.1395    6.0593    7.6467 C   0  0  0  0  0  0  0  0  0  0  0  0
    2.1333    6.5266    8.4769 C   0  0  0  0  0  0  0  0  0  0  0  0
    3.4195    5.9989    8.3337 C   0  0  0  0  0  0  0  0  0  0  0  0
    4.4907    6.5144    9.2226 C   0  0  0  0  0  0  0  0  0  0  0  0
    4.3247    7.3569   10.0691 O   0  0  0  0  0  0  0  0  0  0  0  0
    5.6790    5.9385    8.9835 O   0  0  0  0  0  0  0  0  0  0  0  0
    6.7553    6.3868    9.7929 C   0  0  0  0  0  0  0  0  0  0  0  0
    3.6746    5.0168    7.3787 C   0  0  0  0  0  0  0  0  0  0  0  0
    2.6712    4.5487    6.5433 C   0  0  0  0  0  0  0  0  0  0  0  0
    1.3978    5.0788    6.6706 C   0  0  0  0  0  0  0  0  0  0  0  0
    0.1668    4.8334    5.9150 C   0  0  0  0  0  0  0  0  0  0  0  0
    0.1295    4.2966    4.6455 C   0  0  0  0  0  0  0  0  0  0  0  0
   -0.9988    4.3564    3.8068 C   0  0  0  0  0  0  0  0  0  0  0  0
   -1.8710    4.4473    3.0631 N   0  0  0  0  0  0  0  0  0  0  0  0
    1.2540    3.7732    3.9885 C   0  0  0  0  0  0  0  0  0  0  0  0
    2.1435    3.3388    3.4022 N   0  0  0  0  0  0  0  0  0  0  0  0
    8.2018   -1.8776   -3.6017 H   0  0  0  0  0  0  0  0  0  0  0  0
    4.4873    0.7888    0.6042 H   0  0  0  0  0  0  0  0  0  0  0  0
    9.4111   -0.0896    1.4109 H   0  0  0  0  0  0  0  0  0  0  0  0
    7.7366   -0.0324    4.3731 H   0  0  0  0  0  0  0  0  0  0  0  0
    8.9399    2.3351    4.1405 H   0  0  0  0  0  0  0  0  0  0  0  0
    7.7740    2.1839    6.4911 H   0  0  0  0  0  0  0  0  0  0  0  0
    5.1619    2.5062    6.1435 H   0  0  0  0  0  0  0  0  0  0  0  0
    4.7170    2.8864    3.5784 H   0  0  0  0  0  0  0  0  0  0  0  0
    7.0882    3.0325    2.3215 H   0  0  0  0  0  0  0  0  0  0  0  0
    7.0508    4.1373    3.7144 H   0  0  0  0  0  0  0  0  0  0  0  0
    5.1842    0.2998    3.9896 H   0  0  0  0  0  0  0  0  0  0  0  0
    6.6866   -4.1830   -2.3630 H   0  0  0  0  0  0  0  0  0  0  0  0
    8.3284   -4.4521   -0.5585 H   0  0  0  0  0  0  0  0  0  0  0  0
   10.5867   -5.1140    0.1168 H   0  0  0  0  0  0  0  0  0  0  0  0
   11.8867   -5.2305   -1.0815 H   0  0  0  0  0  0  0  0  0  0  0  0
   11.3873   -3.6578   -0.4697 H   0  0  0  0  0  0  0  0  0  0  0  0
   11.4756   -4.5848   -3.4348 H   0  0  0  0  0  0  0  0  0  0  0  0
    9.8425   -4.2795   -5.2417 H   0  0  0  0  0  0  0  0  0  0  0  0
    7.9739   -6.5294   -5.0639 H   0  0  0  0  0  0  0  0  0  0  0  0
    8.0658   -7.9283   -7.0765 H   0  0  0  0  0  0  0  0  0  0  0  0
    7.5481   -8.2888   -9.3791 H   0  0  0  0  0  0  0  0  0  0  0  0
    8.2883   -6.9462  -10.2536 H   0  0  0  0  0  0  0  0  0  0  0  0
    6.5360   -7.1097  -10.2255 H   0  0  0  0  0  0  0  0  0  0  0  0
    6.7110   -4.6414   -9.4332 H   0  0  0  0  0  0  0  0  0  0  0  0
    6.6464   -3.2278   -7.4296 H   0  0  0  0  0  0  0  0  0  0  0  0
   -1.0216   -1.8921   -4.0746 H   0  0  0  0  0  0  0  0  0  0  0  0
   -3.0126   -1.8017   -5.4951 H   0  0  0  0  0  0  0  0  0  0  0  0
   -3.7115   -0.9391   -8.0172 H   0  0  0  0  0  0  0  0  0  0  0  0
   -2.9076   -1.9275   -9.2421 H   0  0  0  0  0  0  0  0  0  0  0  0
   -3.8188   -2.6930   -7.9295 H   0  0  0  0  0  0  0  0  0  0  0  0
   -0.5438   -2.0028   -8.9685 H   0  0  0  0  0  0  0  0  0  0  0  0
    1.4480   -2.1242   -7.5538 H   0  0  0  0  0  0  0  0  0  0  0  0
    0.6155    0.3785   -4.5152 H   0  0  0  0  0  0  0  0  0  0  0  0
    0.6623    1.6275   -2.3987 H   0  0  0  0  0  0  0  0  0  0  0  0
    2.2848    1.6790   -0.0936 H   0  0  0  0  0  0  0  0  0  0  0  0
    0.6130    1.2368    0.2151 H   0  0  0  0  0  0  0  0  0  0  0  0
    1.9189    0.2144    0.8328 H   0  0  0  0  0  0  0  0  0  0  0  0
    2.4939   -1.7030   -0.4652 H   0  0  0  0  0  0  0  0  0  0  0  0
    2.4225   -2.9649   -2.5681 H   0  0  0  0  0  0  0  0  0  0  0  0
    2.5453   -5.6991   -7.9326 H   0  0  0  0  0  0  0  0  0  0  0  0
    2.9075   -5.7656  -10.3531 H   0  0  0  0  0  0  0  0  0  0  0  0
    1.0498   -5.2975  -11.9044 H   0  0  0  0  0  0  0  0  0  0  0  0
   -2.2034   -3.9690  -10.8493 H   0  0  0  0  0  0  0  0  0  0  0  0
   -1.1746   -4.3600  -12.2372 H   0  0  0  0  0  0  0  0  0  0  0  0
   -1.6665   -6.7874  -11.8995 H   0  0  0  0  0  0  0  0  0  0  0  0
   -3.1530   -5.8637  -12.1445 H   0  0  0  0  0  0  0  0  0  0  0  0
   -2.6908   -6.3850  -10.5204 H   0  0  0  0  0  0  0  0  0  0  0  0
   -1.5458   -4.6462   -8.5940 H   0  0  0  0  0  0  0  0  0  0  0  0
   -8.3434    1.1939    3.7037 H   0  0  0  0  0  0  0  0  0  0  0  0
  -10.1468    2.8686    3.6152 H   0  0  0  0  0  0  0  0  0  0  0  0
  -10.7107    3.9707    1.4902 H   0  0  0  0  0  0  0  0  0  0  0  0
   -8.6882    3.7822   -1.5398 H   0  0  0  0  0  0  0  0  0  0  0  0
  -10.1572    4.4588   -0.8164 H   0  0  0  0  0  0  0  0  0  0  0  0
  -10.7118    2.9322   -2.6990 H   0  0  0  0  0  0  0  0  0  0  0  0
  -11.3245    2.2826   -1.1744 H   0  0  0  0  0  0  0  0  0  0  0  0
   -9.8601    1.6111   -1.8909 H   0  0  0  0  0  0  0  0  0  0  0  0
   -7.5630    1.8475   -0.4447 H   0  0  0  0  0  0  0  0  0  0  0  0
   -0.6900   -5.1918   -1.9390 H   0  0  0  0  0  0  0  0  0  0  0  0
   -1.9666   -5.1530   -0.7356 H   0  0  0  0  0  0  0  0  0  0  0  0
   -0.5783   -2.7859   -2.1039 H   0  0  0  0  0  0  0  0  0  0  0  0
   -2.0296   -2.5675   -1.1255 H   0  0  0  0  0  0  0  0  0  0  0  0
   -0.5401   -3.1817   -0.3943 H   0  0  0  0  0  0  0  0  0  0  0  0
   -2.7971   -4.0040    0.5748 H   0  0  0  0  0  0  0  0  0  0  0  0
   -4.2373   -3.6435    1.5049 H   0  0  0  0  0  0  0  0  0  0  0  0
   -3.8858   -6.1061    1.3190 H   0  0  0  0  0  0  0  0  0  0  0  0
   -5.4181   -5.6022    0.6000 H   0  0  0  0  0  0  0  0  0  0  0  0
   -4.0547   -6.0036   -0.4389 H   0  0  0  0  0  0  0  0  0  0  0  0
   -2.0981    1.1159    2.7819 H   0  0  0  0  0  0  0  0  0  0  0  0
    0.3497    1.2698    2.6736 H   0  0  0  0  0  0  0  0  0  0  0  0
    2.4902    1.1096    3.8827 H   0  0  0  0  0  0  0  0  0  0  0  0
    2.5409   -0.6466    3.7283 H   0  0  0  0  0  0  0  0  0  0  0  0
    2.6329    0.0905    5.3286 H   0  0  0  0  0  0  0  0  0  0  0  0
    0.6575   -1.0270    6.2521 H   0  0  0  0  0  0  0  0  0  0  0  0
   -1.7871   -1.1646    6.3813 H   0  0  0  0  0  0  0  0  0  0  0  0
   -2.7630   -2.6423    4.4333 H   0  0  0  0  0  0  0  0  0  0  0  0
   -3.9288   -4.5835    5.3786 H   0  0  0  0  0  0  0  0  0  0  0  0
   -7.2928   -4.4441    6.8972 H   0  0  0  0  0  0  0  0  0  0  0  0
   -5.8488   -4.8230    7.8328 H   0  0  0  0  0  0  0  0  0  0  0  0
   -6.0522   -5.5136    6.2249 H   0  0  0  0  0  0  0  0  0  0  0  0
   -6.9344   -2.0084    6.9648 H   0  0  0  0  0  0  0  0  0  0  0  0
   -5.7619   -0.0652    6.0515 H   0  0  0  0  0  0  0  0  0  0  0  0
   -7.5584    6.5583    5.1182 H   0  0  0  0  0  0  0  0  0  0  0  0
   -8.9308    6.9307    3.1116 H   0  0  0  0  0  0  0  0  0  0  0  0
   -8.1026    7.6511    0.2139 H   0  0  0  0  0  0  0  0  0  0  0  0
   -7.9102    5.9784   -0.3080 H   0  0  0  0  0  0  0  0  0  0  0  0
   -9.2776    6.4395    0.7184 H   0  0  0  0  0  0  0  0  0  0  0  0
   -5.6741    5.6933    0.6501 H   0  0  0  0  0  0  0  0  0  0  0  0
   -4.2895    5.3382    2.6510 H   0  0  0  0  0  0  0  0  0  0  0  0
   -5.1115    8.3439    4.8770 H   0  0  0  0  0  0  0  0  0  0  0  0
   -5.1900    9.9988    6.6933 H   0  0  0  0  0  0  0  0  0  0  0  0
   -5.7886    9.2038   10.2098 H   0  0  0  0  0  0  0  0  0  0  0  0
   -4.1653    9.6892    9.7301 H   0  0  0  0  0  0  0  0  0  0  0  0
   -5.5629   10.5089    9.0327 H   0  0  0  0  0  0  0  0  0  0  0  0
   -5.1954    6.8500    9.5707 H   0  0  0  0  0  0  0  0  0  0  0  0
   -5.1311    5.1916    7.7593 H   0  0  0  0  0  0  0  0  0  0  0  0
   -2.7759    6.3626    6.8404 H   0  0  0  0  0  0  0  0  0  0  0  0
    1.9381    7.2852    9.2192 H   0  0  0  0  0  0  0  0  0  0  0  0
    6.8983    7.4626    9.6723 H   0  0  0  0  0  0  0  0  0  0  0  0
    6.5519    6.1772   10.8451 H   0  0  0  0  0  0  0  0  0  0  0  0
    7.6346    5.8434    9.4569 H   0  0  0  0  0  0  0  0  0  0  0  0
    4.6754    4.6235    7.2901 H   0  0  0  0  0  0  0  0  0  0  0  0
    2.8886    3.7827    5.8165 H   0  0  0  0  0  0  0  0  0  0  0  0
  1  2  2  0  0  0  0
  2  3  1  0  0  0  0
  3  4  2  0  0  0  0
  3  5  1  0  0  0  0
  5  6  2  0  0  0  0
  6  7  1  0  0  0  0
  7  8  2  0  0  0  0
  8  9  1  0  0  0  0
  9 10  2  0  0  0  0
 10 11  1  0  0  0  0
 11 12  2  0  0  0  0
 12 13  1  0  0  0  0
 13 14  3  0  0  0  0
 12 15  1  0  0  0  0
 15 16  3  0  0  0  0
  8 17  1  0  0  0  0
 17 18  1  0  0  0  0
 18 19  1  0  0  0  0
 19 20  2  0  0  0  0
 20 21  1  0  0  0  0
 21 22  1  0  0  0  0
 21 23  1  0  0  0  0
  1 24  1  0  0  0  0
 24 25  2  0  0  0  0
 25 26  1  0  0  0  0
 26 27  1  0  0  0  0
 27 28  2  0  0  0  0
 28 29  1  0  0  0  0
 29 30  2  0  0  0  0
 30 31  1  0  0  0  0
 30 32  1  0  0  0  0
 32 33  2  0  0  0  0
 26 34  1  0  0  0  0
 34 35  2  0  0  0  0
 35 36  1  0  0  0  0
 36 37  2  0  0  0  0
 37 38  1  0  0  0  0
 37 39  1  0  0  0  0
 39 40  2  0  0  0  0
 25 41  1  0  0  0  0
 41 42  1  0  0  0  0
 42 43  1  0  0  0  0
 43 44  2  0  0  0  0
 44 45  1  0  0  0  0
 45 46  1  0  0  0  0
 46 47  2  0  0  0  0
 47 48  1  0  0  0  0
 48 49  2  0  0  0  0
 49 50  1  0  0  0  0
 49 51  1  0  0  0  0
 51 52  2  0  0  0  0
 45 53  1  0  0  0  0
 53 54  2  0  0  0  0
 54 55  1  0  0  0  0
 55 56  2  0  0  0  0
 56 57  1  0  0  0  0
 56 58  1  0  0  0  0
 58 59  2  0  0  0  0
 44 60  1  0  0  0  0
 60 61  1  0  0  0  0
 43 62  1  0  0  0  0
 62 63  2  0  0  0  0
 63 64  1  0  0  0  0
 64 65  2  0  0  0  0
 65 66  1  0  0  0  0
 66 67  2  0  0  0  0
 67 68  1  0  0  0  0
 68 69  1  0  0  0  0
 69 70  1  0  0  0  0
 68 71  2  0  0  0  0
 63 72  1  0  0  0  0
 72 73  1  0  0  0  0
 73 74  1  0  0  0  0
 74 75  1  0  0  0  0
 75 76  1  0  0  0  0
 76 77  1  0  0  0  0
 77 78  2  0  0  0  0
 78 79  1  0  0  0  0
 79 80  1  0  0  0  0
 77 81  1  0  0  0  0
 81 82  1  0  0  0  0
 82 83  1  0  0  0  0
 83 84  1  0  0  0  0
 84 85  1  0  0  0  0
 85 86  1  0  0  0  0
 86 87  2  0  0  0  0
 87 88  1  0  0  0  0
 88 89  2  0  0  0  0
 89 90  1  0  0  0  0
 90 91  1  0  0  0  0
 91 92  1  0  0  0  0
 90 93  2  0  0  0  0
 85 94  2  0  0  0  0
 94 95  1  0  0  0  0
 95 96  1  0  0  0  0
 96 97  1  0  0  0  0
 97 98  1  0  0  0  0
 98 99  1  0  0  0  0
 99100  1  0  0  0  0
100101  1  0  0  0  0
101102  1  0  0  0  0
102103  1  0  0  0  0
103104  1  0  0  0  0
101105  1  0  0  0  0
105106  1  0  0  0  0
 98107  1  0  0  0  0
107108  1  0  0  0  0
 94109  1  0  0  0  0
109110  2  0  0  0  0
110111  1  0  0  0  0
111112  1  0  0  0  0
112113  2  0  0  0  0
113114  1  0  0  0  0
114115  2  0  0  0  0
115116  1  0  0  0  0
115117  1  0  0  0  0
117118  2  0  0  0  0
111119  1  0  0  0  0
119120  2  0  0  0  0
120121  1  0  0  0  0
121122  2  0  0  0  0
122123  1  0  0  0  0
122124  1  0  0  0  0
124125  2  0  0  0  0
110126  1  0  0  0  0
126127  1  0  0  0  0
127128  1  0  0  0  0
128129  2  0  0  0  0
129130  1  0  0  0  0
130131  1  0  0  0  0
131132  2  0  0  0  0
132133  1  0  0  0  0
133134  2  0  0  0  0
134135  1  0  0  0  0
134136  1  0  0  0  0
136137  2  0  0  0  0
130138  1  0  0  0  0
138139  2  0  0  0  0
139140  1  0  0  0  0
140141  2  0  0  0  0
141142  1  0  0  0  0
141143  1  0  0  0  0
143144  2  0  0  0  0
129145  1  0  0  0  0
145146  1  0  0  0  0
128147  1  0  0  0  0
147148  2  0  0  0  0
148149  1  0  0  0  0
149150  2  0  0  0  0
149151  1  0  0  0  0
151152  2  0  0  0  0
152153  1  0  0  0  0
153154  1  0  0  0  0
154155  2  0  0  0  0
154156  1  0  0  0  0
156157  1  0  0  0  0
153158  2  0  0  0  0
158159  1  0  0  0  0
159160  2  0  0  0  0
160161  1  0  0  0  0
161162  2  0  0  0  0
162163  1  0  0  0  0
163164  3  0  0  0  0
162165  1  0  0  0  0
165166  3  0  0  0  0
 11  2  1  0  0  0  0
 23 17  1  0  0  0  0
 61 24  1  0  0  0  0
104 62  1  0  0  0  0
146109  1  0  0  0  0
161148  1  0  0  0  0
 10  5  1  0  0  0  0
 22 18  1  0  0  0  0
 33 27  1  0  0  0  0
 40 34  1  0  0  0  0
 60 41  2  0  0  0  0
 71 64  1  0  0  0  0
103 72  2  0  0  0  0
118112  1  0  0  0  0
125119  1  0  0  0  0
145126  2  0  0  0  0
160151  1  0  0  0  0
 23  7  1  0  0  0  0
 52 46  1  0  0  0  0
 59 53  1  0  0  0  0
102 74  2  0  0  0  0
137131  1  0  0  0  0
144138  1  0  0  0  0
100 75  2  0  0  0  0
 80 76  2  0  0  0  0
 99 81  2  0  0  0  0
 97 82  2  0  0  0  0
 96 84  2  0  0  0  0
 93 86  1  0  0  0  0
  1167  1  0  0  0  0
  6168  1  0  0  0  0
  9169  1  0  0  0  0
 17170  1  0  0  0  0
 18171  1  0  0  0  0
 19172  1  0  0  0  0
 20173  1  0  0  0  0
 21174  1  0  0  0  0
 22175  1  0  0  0  0
 22176  1  0  0  0  0
 23177  1  0  0  0  0
 28178  1  0  0  0  0
 29179  1  0  0  0  0
 31180  1  0  0  0  0
 31181  1  0  0  0  0
 31182  1  0  0  0  0
 32183  1  0  0  0  0
 33184  1  0  0  0  0
 35185  1  0  0  0  0
 36186  1  0  0  0  0
 38187  1  0  0  0  0
 38188  1  0  0  0  0
 38189  1  0  0  0  0
 39190  1  0  0  0  0
 40191  1  0  0  0  0
 47192  1  0  0  0  0
 48193  1  0  0  0  0
 50194  1  0  0  0  0
 50195  1  0  0  0  0
 50196  1  0  0  0  0
 51197  1  0  0  0  0
 52198  1  0  0  0  0
 54199  1  0  0  0  0
 55200  1  0  0  0  0
 57201  1  0  0  0  0
 57202  1  0  0  0  0
 57203  1  0  0  0  0
 58204  1  0  0  0  0
 59205  1  0  0  0  0
 65206  1  0  0  0  0
 66207  1  0  0  0  0
 67208  1  0  0  0  0
 69209  1  0  0  0  0
 69210  1  0  0  0  0
 70211  1  0  0  0  0
 70212  1  0  0  0  0
 70213  1  0  0  0  0
 71214  1  0  0  0  0
 87215  1  0  0  0  0
 88216  1  0  0  0  0
 89217  1  0  0  0  0
 91218  1  0  0  0  0
 91219  1  0  0  0  0
 92220  1  0  0  0  0
 92221  1  0  0  0  0
 92222  1  0  0  0  0
 93223  1  0  0  0  0
105224  1  0  0  0  0
105225  1  0  0  0  0
106226  1  0  0  0  0
106227  1  0  0  0  0
106228  1  0  0  0  0
107229  1  0  0  0  0
107230  1  0  0  0  0
108231  1  0  0  0  0
108232  1  0  0  0  0
108233  1  0  0  0  0
113234  1  0  0  0  0
114235  1  0  0  0  0
116236  1  0  0  0  0
116237  1  0  0  0  0
116238  1  0  0  0  0
117239  1  0  0  0  0
118240  1  0  0  0  0
120241  1  0  0  0  0
121242  1  0  0  0  0
123243  1  0  0  0  0
123244  1  0  0  0  0
123245  1  0  0  0  0
124246  1  0  0  0  0
125247  1  0  0  0  0
132248  1  0  0  0  0
133249  1  0  0  0  0
135250  1  0  0  0  0
135251  1  0  0  0  0
135252  1  0  0  0  0
136253  1  0  0  0  0
137254  1  0  0  0  0
139255  1  0  0  0  0
140256  1  0  0  0  0
142257  1  0  0  0  0
142258  1  0  0  0  0
142259  1  0  0  0  0
143260  1  0  0  0  0
144261  1  0  0  0  0
147262  1  0  0  0  0
152263  1  0  0  0  0
157264  1  0  0  0  0
157265  1  0  0  0  0
157266  1  0  0  0  0
158267  1  0  0  0  0
159268  1  0  0  0  0
M  END
