
  xtb     02192209503D
 energy: -302.837916787299 gnorm: 0.000399828225 xtb: 6.4.1 (unknown)
182204  0     0  0            999 V2000
   -0.0382   14.4457   -0.7309 C   0  0  0  0  0  0  0  0  0  0  0  0
   -0.5328   15.3094    0.1954 C   0  0  0  0  0  0  0  0  0  0  0  0
   -1.4537   15.0001    1.3217 C   0  0  0  0  0  0  0  0  0  0  0  0
   -1.7074   13.9268    1.8265 O   0  0  0  0  0  0  0  0  0  0  0  0
   -2.0653   16.2907    1.6952 C   0  0  0  0  0  0  0  0  0  0  0  0
   -3.0741   16.4891    2.6357 C   0  0  0  0  0  0  0  0  0  0  0  0
   -3.4596   17.8002    2.7750 C   0  0  0  0  0  0  0  0  0  0  0  0
   -2.8913   18.8407    2.0266 C   0  0  0  0  0  0  0  0  0  0  0  0
   -1.8970   18.6599    1.0959 C   0  0  0  0  0  0  0  0  0  0  0  0
   -1.4836   17.3326    0.9464 C   0  0  0  0  0  0  0  0  0  0  0  0
   -0.4690   16.7593    0.0723 C   0  0  0  0  0  0  0  0  0  0  0  0
    0.4484   17.4609   -0.6627 C   0  0  0  0  0  0  0  0  0  0  0  0
    1.4961   16.8798   -1.4098 C   0  0  0  0  0  0  0  0  0  0  0  0
    2.3879   16.4883   -2.0181 N   0  0  0  0  0  0  0  0  0  0  0  0
    0.5062   18.8687   -0.7287 C   0  0  0  0  0  0  0  0  0  0  0  0
    0.6057   20.0082   -0.8269 N   0  0  0  0  0  0  0  0  0  0  0  0
   -3.7538   19.8898    2.6815 C   0  0  0  0  0  0  0  0  0  0  0  0
   -3.1006   20.7823    3.7654 C   0  0  0  0  0  0  0  0  0  0  0  0
   -1.9710   19.9774    4.3589 C   0  0  0  0  0  0  0  0  0  0  0  0
   -2.5052   18.9939    5.0706 C   0  0  0  0  0  0  0  0  0  0  0  0
   -4.0057   19.1156    4.9708 C   0  0  0  0  0  0  0  0  0  0  0  0
   -4.1481   20.6434    4.8817 C   0  0  0  0  0  0  0  0  0  0  0  0
   -4.3836   18.7320    3.5184 C   0  0  0  0  0  0  0  0  0  0  0  0
   -0.0317   13.0098   -0.7210 C   0  0  0  0  0  0  0  0  0  0  0  0
    0.0617   12.2688    0.4587 C   0  0  0  0  0  0  0  0  0  0  0  0
    0.0406   10.8900    0.3705 C   0  0  0  0  0  0  0  0  0  0  0  0
    0.1005    9.9554    1.3742 N   0  0  0  0  0  0  0  0  0  0  0  0
    0.1521   10.2400    2.7843 C   0  0  0  0  0  0  0  0  0  0  0  0
    1.5906   10.3339    3.2893 C   0  0  0  0  0  0  0  0  0  0  0  0
    0.0577    8.7077    0.8088 C   0  0  0  0  0  0  0  0  0  0  0  0
   -0.0516    8.8305   -0.6011 C   0  0  0  0  0  0  0  0  0  0  0  0
   -0.0557   10.2292   -0.8832 C   0  0  0  0  0  0  0  0  0  0  0  0
   -0.1110   10.9777   -2.0571 C   0  0  0  0  0  0  0  0  0  0  0  0
   -0.0834   12.3472   -1.9684 C   0  0  0  0  0  0  0  0  0  0  0  0
   -0.1327    7.6846   -1.3869 C   0  0  0  0  0  0  0  0  0  0  0  0
   -0.1289    6.4570   -0.7692 C   0  0  0  0  0  0  0  0  0  0  0  0
   -0.0253    6.3310    0.6293 C   0  0  0  0  0  0  0  0  0  0  0  0
    0.1052    7.4686    1.4228 C   0  0  0  0  0  0  0  0  0  0  0  0
   -0.0490    5.0138    1.2293 C   0  0  0  0  0  0  0  0  0  0  0  0
   -0.4311    4.6339    2.4985 C   0  0  0  0  0  0  0  0  0  0  0  0
   -1.0205    5.5052    3.5209 C   0  0  0  0  0  0  0  0  0  0  0  0
   -0.5442    5.4662    4.8271 C   0  0  0  0  0  0  0  0  0  0  0  0
   -1.0987    6.2927    5.7875 C   0  0  0  0  0  0  0  0  0  0  0  0
   -2.1269    7.1563    5.4560 C   0  0  0  0  0  0  0  0  0  0  0  0
   -2.6268    7.1952    4.1588 C   0  0  0  0  0  0  0  0  0  0  0  0
   -3.7760    8.0956    3.8065 C   0  0  0  0  0  0  0  0  0  0  0  0
   -5.1063    7.3812    4.0519 C   0  0  0  0  0  0  0  0  0  0  0  0
   -2.0740    6.3579    3.2034 C   0  0  0  0  0  0  0  0  0  0  0  0
   -0.2562    3.2463    2.6992 C   0  0  0  0  0  0  0  0  0  0  0  0
   -0.5951    2.1969    4.0559 S   0  0  0  0  0  0  0  0  0  0  0  0
   -0.0816    0.8436    3.1045 C   0  0  0  0  0  0  0  0  0  0  0  0
    0.0049   -0.5550    3.2009 C   0  0  0  0  0  0  0  0  0  0  0  0
   -0.4014   -1.4355    4.2261 C   0  0  0  0  0  0  0  0  0  0  0  0
   -0.3459   -2.8488    3.9869 C   0  0  0  0  0  0  0  0  0  0  0  0
   -0.8120   -3.5540    5.0059 N   0  0  0  0  0  0  0  0  0  0  0  0
   -1.2745   -2.5266    6.1698 S   0  0  0  0  0  0  0  0  0  0  0  0
   -0.9015   -1.1424    5.4163 N   0  0  0  0  0  0  0  0  0  0  0  0
    0.2059   -3.3137    2.7744 C   0  0  0  0  0  0  0  0  0  0  0  0
    0.4401   -4.6186    2.3099 C   0  0  0  0  0  0  0  0  0  0  0  0
    0.1486   -6.2569    2.7893 S   0  0  0  0  0  0  0  0  0  0  0  0
    0.9118   -6.7988    1.3126 C   0  0  0  0  0  0  0  0  0  0  0  0
    1.1477   -8.0813    0.7703 C   0  0  0  0  0  0  0  0  0  0  0  0
    0.7937   -9.3227    1.4652 C   0  0  0  0  0  0  0  0  0  0  0  0
   -0.4681   -9.4707    2.0319 C   0  0  0  0  0  0  0  0  0  0  0  0
   -0.8042  -10.6532    2.6658 C   0  0  0  0  0  0  0  0  0  0  0  0
    0.1091  -11.6890    2.7414 C   0  0  0  0  0  0  0  0  0  0  0  0
    1.3811  -11.5511    2.1961 C   0  0  0  0  0  0  0  0  0  0  0  0
    2.3899  -12.6570    2.3198 C   0  0  0  0  0  0  0  0  0  0  0  0
    3.1437  -12.5466    3.6462 C   0  0  0  0  0  0  0  0  0  0  0  0
    1.7153  -10.3613    1.5703 C   0  0  0  0  0  0  0  0  0  0  0  0
    1.7821   -8.0037   -0.4522 C   0  0  0  0  0  0  0  0  0  0  0  0
    2.1262   -6.3461   -0.9200 S   0  0  0  0  0  0  0  0  0  0  0  0
    1.3781   -5.7522    0.5185 C   0  0  0  0  0  0  0  0  0  0  0  0
    1.1019   -4.5016    1.0880 C   0  0  0  0  0  0  0  0  0  0  0  0
    1.2689   -3.1810    0.7653 N   0  0  0  0  0  0  0  0  0  0  0  0
    0.7074   -2.4238    1.7835 C   0  0  0  0  0  0  0  0  0  0  0  0
    0.5106   -1.0273    1.9572 C   0  0  0  0  0  0  0  0  0  0  0  0
    0.7064    0.0666    1.1274 N   0  0  0  0  0  0  0  0  0  0  0  0
    0.3346    1.1879    1.8188 C   0  0  0  0  0  0  0  0  0  0  0  0
    0.2327    2.5672    1.5857 C   0  0  0  0  0  0  0  0  0  0  0  0
    0.5084    3.6515    0.2700 S   0  0  0  0  0  0  0  0  0  0  0  0
    0.8439    0.1349   -0.3093 C   0  0  0  0  0  0  0  0  0  0  0  0
   -0.3384   -0.5219   -1.0179 C   0  0  0  0  0  0  0  0  0  0  0  0
    2.2480   -2.8165   -0.2343 C   0  0  0  0  0  0  0  0  0  0  0  0
    3.4732   -2.1573    0.3943 C   0  0  0  0  0  0  0  0  0  0  0  0
    2.0958   -9.0586   -1.3914 C   0  0  0  0  0  0  0  0  0  0  0  0
    1.3083  -10.2068   -1.4412 C   0  0  0  0  0  0  0  0  0  0  0  0
    1.6362  -11.1896   -2.3570 C   0  0  0  0  0  0  0  0  0  0  0  0
    1.0330  -12.4011   -2.5762 N   0  0  0  0  0  0  0  0  0  0  0  0
   -0.1034  -12.9119   -1.8548 C   0  0  0  0  0  0  0  0  0  0  0  0
   -1.4212  -12.4626   -2.4829 C   0  0  0  0  0  0  0  0  0  0  0  0
    1.6617  -13.0128   -3.6341 C   0  0  0  0  0  0  0  0  0  0  0  0
    2.7315  -12.1893   -4.0859 C   0  0  0  0  0  0  0  0  0  0  0  0
    2.7163  -11.0252   -3.2639 C   0  0  0  0  0  0  0  0  0  0  0  0
    3.4819   -9.8621   -3.2186 C   0  0  0  0  0  0  0  0  0  0  0  0
    3.1702   -8.9004   -2.2884 C   0  0  0  0  0  0  0  0  0  0  0  0
    3.5195  -12.6110   -5.1545 C   0  0  0  0  0  0  0  0  0  0  0  0
    3.2410  -13.8080   -5.7683 C   0  0  0  0  0  0  0  0  0  0  0  0
    2.1719  -14.6261   -5.3401 C   0  0  0  0  0  0  0  0  0  0  0  0
    1.3835  -14.2137   -4.2472 C   0  0  0  0  0  0  0  0  0  0  0  0
    1.7910  -15.8703   -5.9288 C   0  0  0  0  0  0  0  0  0  0  0  0
    2.2061  -16.6130   -6.9997 C   0  0  0  0  0  0  0  0  0  0  0  0
    3.2592  -16.3469   -8.0063 C   0  0  0  0  0  0  0  0  0  0  0  0
    4.0555  -15.4356   -8.0751 O   0  0  0  0  0  0  0  0  0  0  0  0
    3.1704  -17.4572   -8.9812 C   0  0  0  0  0  0  0  0  0  0  0  0
    3.9244  -17.6374  -10.1222 C   0  0  0  0  0  0  0  0  0  0  0  0
    3.6507  -18.7582  -10.8929 C   0  0  0  0  0  0  0  0  0  0  0  0
    4.6492  -19.0630  -12.4804 Br  0  0  0  0  0  0  0  0  0  0  0  0
    2.6604  -19.6631  -10.5329 C   0  0  0  0  0  0  0  0  0  0  0  0
    1.9117  -19.4723   -9.3820 C   0  0  0  0  0  0  0  0  0  0  0  0
    2.1667  -18.3576   -8.5937 C   0  0  0  0  0  0  0  0  0  0  0  0
    1.5651  -17.8774   -7.3529 C   0  0  0  0  0  0  0  0  0  0  0  0
    0.5834  -18.5434   -6.6651 C   0  0  0  0  0  0  0  0  0  0  0  0
   -0.0305  -18.1540   -5.4546 C   0  0  0  0  0  0  0  0  0  0  0  0
   -0.5969  -17.9442   -4.4763 N   0  0  0  0  0  0  0  0  0  0  0  0
    0.0252  -19.7731   -7.0779 C   0  0  0  0  0  0  0  0  0  0  0  0
   -0.4775  -20.7698   -7.3458 N   0  0  0  0  0  0  0  0  0  0  0  0
    0.3513   14.8835   -1.6440 H   0  0  0  0  0  0  0  0  0  0  0  0
   -3.4896   15.6590    3.1854 H   0  0  0  0  0  0  0  0  0  0  0  0
   -1.4751   19.4671    0.5205 H   0  0  0  0  0  0  0  0  0  0  0  0
   -4.4069   20.4530    2.0178 H   0  0  0  0  0  0  0  0  0  0  0  0
   -2.8514   21.7863    3.4332 H   0  0  0  0  0  0  0  0  0  0  0  0
   -0.9325   20.1660    4.1591 H   0  0  0  0  0  0  0  0  0  0  0  0
   -2.0020   18.1959    5.5846 H   0  0  0  0  0  0  0  0  0  0  0  0
   -4.5814   18.6030    5.7372 H   0  0  0  0  0  0  0  0  0  0  0  0
   -3.8535   21.1480    5.8005 H   0  0  0  0  0  0  0  0  0  0  0  0
   -5.1440   20.9701    4.5853 H   0  0  0  0  0  0  0  0  0  0  0  0
   -5.4488   18.5403    3.4037 H   0  0  0  0  0  0  0  0  0  0  0  0
    0.1761   12.7672    1.4050 H   0  0  0  0  0  0  0  0  0  0  0  0
   -0.3732   11.1822    2.9608 H   0  0  0  0  0  0  0  0  0  0  0  0
   -0.3816    9.4465    3.3162 H   0  0  0  0  0  0  0  0  0  0  0  0
    2.1234   11.1265    2.7691 H   0  0  0  0  0  0  0  0  0  0  0  0
    1.5988   10.5472    4.3546 H   0  0  0  0  0  0  0  0  0  0  0  0
    2.1136    9.3960    3.1168 H   0  0  0  0  0  0  0  0  0  0  0  0
   -0.1663   10.4857   -3.0163 H   0  0  0  0  0  0  0  0  0  0  0  0
   -0.1265   12.9445   -2.8672 H   0  0  0  0  0  0  0  0  0  0  0  0
   -0.2083    7.7611   -2.4608 H   0  0  0  0  0  0  0  0  0  0  0  0
   -0.2138    5.5585   -1.3633 H   0  0  0  0  0  0  0  0  0  0  0  0
    0.2439    7.3779    2.4873 H   0  0  0  0  0  0  0  0  0  0  0  0
    0.2680    4.8025    5.0824 H   0  0  0  0  0  0  0  0  0  0  0  0
   -0.7225    6.2647    6.7995 H   0  0  0  0  0  0  0  0  0  0  0  0
   -2.5491    7.8065    6.2088 H   0  0  0  0  0  0  0  0  0  0  0  0
   -3.7364    9.0020    4.4144 H   0  0  0  0  0  0  0  0  0  0  0  0
   -3.7099    8.3859    2.7557 H   0  0  0  0  0  0  0  0  0  0  0  0
   -5.9403    8.0306    3.7963 H   0  0  0  0  0  0  0  0  0  0  0  0
   -5.1950    7.0955    5.0977 H   0  0  0  0  0  0  0  0  0  0  0  0
   -5.1681    6.4802    3.4459 H   0  0  0  0  0  0  0  0  0  0  0  0
   -2.4563    6.3725    2.1925 H   0  0  0  0  0  0  0  0  0  0  0  0
   -1.1871   -8.6689    1.9585 H   0  0  0  0  0  0  0  0  0  0  0  0
   -1.7872  -10.7678    3.0981 H   0  0  0  0  0  0  0  0  0  0  0  0
   -0.1637  -12.6143    3.2284 H   0  0  0  0  0  0  0  0  0  0  0  0
    3.1018  -12.6020    1.4934 H   0  0  0  0  0  0  0  0  0  0  0  0
    1.8852  -13.6245    2.2729 H   0  0  0  0  0  0  0  0  0  0  0  0
    3.6621  -11.5923    3.7075 H   0  0  0  0  0  0  0  0  0  0  0  0
    2.4508  -12.6129    4.4820 H   0  0  0  0  0  0  0  0  0  0  0  0
    3.8749  -13.3464    3.7362 H   0  0  0  0  0  0  0  0  0  0  0  0
    2.7020  -10.2371    1.1470 H   0  0  0  0  0  0  0  0  0  0  0  0
    0.8730    1.1964   -0.5676 H   0  0  0  0  0  0  0  0  0  0  0  0
    1.7935   -0.2966   -0.6264 H   0  0  0  0  0  0  0  0  0  0  0  0
   -1.2590   -0.0053   -0.7564 H   0  0  0  0  0  0  0  0  0  0  0  0
   -0.4412   -1.5648   -0.7274 H   0  0  0  0  0  0  0  0  0  0  0  0
   -0.2041   -0.4667   -2.0949 H   0  0  0  0  0  0  0  0  0  0  0  0
    1.8014   -2.1845   -1.0028 H   0  0  0  0  0  0  0  0  0  0  0  0
    2.5511   -3.7459   -0.7230 H   0  0  0  0  0  0  0  0  0  0  0  0
    3.9549   -2.8492    1.0814 H   0  0  0  0  0  0  0  0  0  0  0  0
    3.1980   -1.2648    0.9513 H   0  0  0  0  0  0  0  0  0  0  0  0
    4.1860   -1.8844   -0.3794 H   0  0  0  0  0  0  0  0  0  0  0  0
    0.4548  -10.3094   -0.7918 H   0  0  0  0  0  0  0  0  0  0  0  0
   -0.0396  -12.5602   -0.8208 H   0  0  0  0  0  0  0  0  0  0  0  0
   -0.0449  -14.0033   -1.8464 H   0  0  0  0  0  0  0  0  0  0  0  0
   -2.2584  -12.8609   -1.9168 H   0  0  0  0  0  0  0  0  0  0  0  0
   -1.4918  -12.8176   -3.5084 H   0  0  0  0  0  0  0  0  0  0  0  0
   -1.4863  -11.3771   -2.4878 H   0  0  0  0  0  0  0  0  0  0  0  0
    4.3037   -9.7217   -3.9037 H   0  0  0  0  0  0  0  0  0  0  0  0
    3.7571   -7.9950   -2.2341 H   0  0  0  0  0  0  0  0  0  0  0  0
    4.3378  -11.9982   -5.5000 H   0  0  0  0  0  0  0  0  0  0  0  0
    3.8452  -14.1301   -6.5975 H   0  0  0  0  0  0  0  0  0  0  0  0
    0.5662  -14.8353   -3.9118 H   0  0  0  0  0  0  0  0  0  0  0  0
    0.9571  -16.3142   -5.3977 H   0  0  0  0  0  0  0  0  0  0  0  0
    4.6909  -16.9282  -10.3939 H   0  0  0  0  0  0  0  0  0  0  0  0
    2.4722  -20.5232  -11.1569 H   0  0  0  0  0  0  0  0  0  0  0  0
    1.1487  -20.1883   -9.1267 H   0  0  0  0  0  0  0  0  0  0  0  0
  1  2  2  0  0  0  0
  2  3  1  0  0  0  0
  3  4  2  0  0  0  0
  3  5  1  0  0  0  0
  5  6  2  0  0  0  0
  6  7  1  0  0  0  0
  7  8  2  0  0  0  0
  8  9  1  0  0  0  0
  9 10  2  0  0  0  0
 10 11  1  0  0  0  0
 11 12  2  0  0  0  0
 12 13  1  0  0  0  0
 13 14  3  0  0  0  0
 12 15  1  0  0  0  0
 15 16  3  0  0  0  0
  8 17  1  0  0  0  0
 17 18  1  0  0  0  0
 18 19  1  0  0  0  0
 19 20  2  0  0  0  0
 20 21  1  0  0  0  0
 21 22  1  0  0  0  0
 21 23  1  0  0  0  0
  1 24  1  0  0  0  0
 24 25  2  0  0  0  0
 25 26  1  0  0  0  0
 26 27  1  0  0  0  0
 27 28  1  0  0  0  0
 28 29  1  0  0  0  0
 27 30  1  0  0  0  0
 30 31  2  0  0  0  0
 31 32  1  0  0  0  0
 32 33  1  0  0  0  0
 33 34  2  0  0  0  0
 31 35  1  0  0  0  0
 35 36  2  0  0  0  0
 36 37  1  0  0  0  0
 37 38  2  0  0  0  0
 37 39  1  0  0  0  0
 39 40  2  0  0  0  0
 40 41  1  0  0  0  0
 41 42  2  0  0  0  0
 42 43  1  0  0  0  0
 43 44  2  0  0  0  0
 44 45  1  0  0  0  0
 45 46  1  0  0  0  0
 46 47  1  0  0  0  0
 45 48  2  0  0  0  0
 40 49  1  0  0  0  0
 49 50  1  0  0  0  0
 50 51  1  0  0  0  0
 51 52  1  0  0  0  0
 52 53  1  0  0  0  0
 53 54  1  0  0  0  0
 54 55  2  0  0  0  0
 55 56  1  0  0  0  0
 56 57  1  0  0  0  0
 54 58  1  0  0  0  0
 58 59  1  0  0  0  0
 59 60  1  0  0  0  0
 60 61  1  0  0  0  0
 61 62  1  0  0  0  0
 62 63  1  0  0  0  0
 63 64  2  0  0  0  0
 64 65  1  0  0  0  0
 65 66  2  0  0  0  0
 66 67  1  0  0  0  0
 67 68  1  0  0  0  0
 68 69  1  0  0  0  0
 67 70  2  0  0  0  0
 62 71  2  0  0  0  0
 71 72  1  0  0  0  0
 72 73  1  0  0  0  0
 73 74  1  0  0  0  0
 74 75  1  0  0  0  0
 75 76  1  0  0  0  0
 76 77  1  0  0  0  0
 77 78  1  0  0  0  0
 78 79  1  0  0  0  0
 79 80  1  0  0  0  0
 80 81  1  0  0  0  0
 78 82  1  0  0  0  0
 82 83  1  0  0  0  0
 75 84  1  0  0  0  0
 84 85  1  0  0  0  0
 71 86  1  0  0  0  0
 86 87  2  0  0  0  0
 87 88  1  0  0  0  0
 88 89  1  0  0  0  0
 89 90  1  0  0  0  0
 90 91  1  0  0  0  0
 89 92  1  0  0  0  0
 92 93  2  0  0  0  0
 93 94  1  0  0  0  0
 94 95  1  0  0  0  0
 95 96  2  0  0  0  0
 93 97  1  0  0  0  0
 97 98  2  0  0  0  0
 98 99  1  0  0  0  0
 99100  2  0  0  0  0
 99101  1  0  0  0  0
101102  2  0  0  0  0
102103  1  0  0  0  0
103104  2  0  0  0  0
103105  1  0  0  0  0
105106  2  0  0  0  0
106107  1  0  0  0  0
107108  1  0  0  0  0
107109  2  0  0  0  0
109110  1  0  0  0  0
110111  2  0  0  0  0
111112  1  0  0  0  0
112113  2  0  0  0  0
113114  1  0  0  0  0
114115  3  0  0  0  0
113116  1  0  0  0  0
116117  3  0  0  0  0
 11  2  1  0  0  0  0
 23 17  1  0  0  0  0
 34 24  1  0  0  0  0
 81 39  1  0  0  0  0
 96 86  1  0  0  0  0
112102  1  0  0  0  0
 10  5  1  0  0  0  0
 22 18  1  0  0  0  0
 32 26  2  0  0  0  0
 48 41  1  0  0  0  0
 80 49  2  0  0  0  0
 94 88  2  0  0  0  0
111105  1  0  0  0  0
 23  7  1  0  0  0  0
 38 30  1  0  0  0  0
 79 51  2  0  0  0  0
100 92  1  0  0  0  0
 77 52  2  0  0  0  0
 57 53  2  0  0  0  0
 76 58  2  0  0  0  0
 74 59  2  0  0  0  0
 73 61  2  0  0  0  0
 70 63  1  0  0  0  0
  1118  1  0  0  0  0
  6119  1  0  0  0  0
  9120  1  0  0  0  0
 17121  1  0  0  0  0
 18122  1  0  0  0  0
 19123  1  0  0  0  0
 20124  1  0  0  0  0
 21125  1  0  0  0  0
 22126  1  0  0  0  0
 22127  1  0  0  0  0
 23128  1  0  0  0  0
 25129  1  0  0  0  0
 28130  1  0  0  0  0
 28131  1  0  0  0  0
 29132  1  0  0  0  0
 29133  1  0  0  0  0
 29134  1  0  0  0  0
 33135  1  0  0  0  0
 34136  1  0  0  0  0
 35137  1  0  0  0  0
 36138  1  0  0  0  0
 38139  1  0  0  0  0
 42140  1  0  0  0  0
 43141  1  0  0  0  0
 44142  1  0  0  0  0
 46143  1  0  0  0  0
 46144  1  0  0  0  0
 47145  1  0  0  0  0
 47146  1  0  0  0  0
 47147  1  0  0  0  0
 48148  1  0  0  0  0
 64149  1  0  0  0  0
 65150  1  0  0  0  0
 66151  1  0  0  0  0
 68152  1  0  0  0  0
 68153  1  0  0  0  0
 69154  1  0  0  0  0
 69155  1  0  0  0  0
 69156  1  0  0  0  0
 70157  1  0  0  0  0
 82158  1  0  0  0  0
 82159  1  0  0  0  0
 83160  1  0  0  0  0
 83161  1  0  0  0  0
 83162  1  0  0  0  0
 84163  1  0  0  0  0
 84164  1  0  0  0  0
 85165  1  0  0  0  0
 85166  1  0  0  0  0
 85167  1  0  0  0  0
 87168  1  0  0  0  0
 90169  1  0  0  0  0
 90170  1  0  0  0  0
 91171  1  0  0  0  0
 91172  1  0  0  0  0
 91173  1  0  0  0  0
 95174  1  0  0  0  0
 96175  1  0  0  0  0
 97176  1  0  0  0  0
 98177  1  0  0  0  0
100178  1  0  0  0  0
101179  1  0  0  0  0
106180  1  0  0  0  0
109181  1  0  0  0  0
110182  1  0  0  0  0
M  END
