183

C         -7.46000        5.83410       -2.60330
C         -8.15290        6.99620       -2.43540
C         -9.01360        7.31960       -1.26880
O         -9.41230        6.57130       -0.40250
C         -9.20560        8.78160       -1.31700
C         -9.88250        9.56150       -0.38210
C         -9.88260       10.90520       -0.66900
C         -9.25530       11.43760       -1.80400
C         -8.58790       10.68010       -2.73640
C         -8.57350        9.30960       -2.46120
C         -7.95780        8.21290       -3.19970
C         -7.36630        8.30080       -4.43280
C         -6.86400        7.20120       -5.16050
N         -6.45210        6.35490       -5.81870
C         -7.21060        9.49810       -5.16100
N         -7.04260       10.43610       -5.80170
C         -9.63070       12.85330       -1.44580
C         -8.53040       13.75720       -0.83640
C         -7.54770       12.83760       -0.15470
C         -8.14220       12.33390        0.91860
C         -9.53770       12.90400        0.98220
C         -9.28740       14.29870        0.38670
C        -10.33090       12.26050       -0.18250
C         -7.67260        4.61720       -1.91400
C         -8.81970        4.04640       -1.40530
C         -8.61090        2.79670       -0.81070
C         -9.73580        1.95500       -0.34900
O        -10.80240        2.37600        0.01790
O         -9.44620        0.65390       -0.46600
C        -10.47170       -0.26210       -0.08090
C         -9.90910       -1.66700       -0.18140
C         -7.27230        2.41590       -0.79570
S         -6.29890        3.56460       -1.65170
C         -6.64660        1.34650       -0.09300
C         -6.95970        0.83290        1.15690
C         -8.01940        1.34160        2.02810
C         -8.80320        0.45820        2.76600
C         -9.83250        0.94230        3.55160
C        -10.09370        2.29990        3.60590
C         -9.30510        3.19950        2.89930
C         -9.55370        4.67760        2.96860
C         -8.60430        5.34200        3.96710
C         -8.25820        2.70900        2.13540
C         -6.06590       -0.19480        1.51550
S         -5.89580       -1.17850        2.95220
C         -4.46300       -1.88270        2.28090
C         -3.45830       -2.80450        2.62770
C         -3.29260       -3.66670        3.73450
C         -2.14250       -4.52920        3.78310
N         -2.14470       -5.31120        4.85060
S         -3.47100       -4.99140        5.72180
N         -4.09670       -3.83950        4.77150
C         -1.14310       -4.39930        2.79210
C          0.16260       -4.90910        2.70360
S          1.21940       -5.97110        3.57080
C          2.51260       -5.54550        2.47130
C          3.87450       -5.89760        2.42210
C          4.51860       -6.68360        3.47230
C          5.73730       -6.27470        4.01120
C          6.30530       -6.98880        5.04710
C          5.66500       -8.10370        5.56100
C          4.44710       -8.52090        5.04090
C          3.71230       -9.69100        5.62730
C          2.65800       -9.20520        6.62420
C          3.88320       -7.80250        3.99780
C          4.51410       -5.26790        1.36200
S          3.46250       -4.16320        0.49950
C          2.12260       -4.63880        1.48200
C          0.77560       -4.27980        1.61510
N         -0.10820       -3.42670        1.00910
C         -1.29770       -3.49180        1.70750
C         -2.52410       -2.80160        1.55680
N         -2.98510       -1.96230        0.55650
C         -4.14790       -1.39300        1.01060
C         -5.06400       -0.43330        0.57040
S         -5.22830        0.59530       -0.80380
C         -2.76100       -2.08340       -0.86840
C         -3.90460       -2.83600       -1.54850
C          0.36930       -2.41590        0.09160
C          0.68330       -2.98940       -1.29000
C          5.84730       -5.43700        0.86280
C          6.57900       -6.61690        0.96500
F          6.03780       -7.71700        1.51420
C          7.86390       -6.73400        0.43680
F          8.49100       -7.91420        0.55530
C          8.48290       -5.71460       -0.27160
C          7.76810       -4.49130       -0.39140
N          8.35210       -3.42850       -0.98210
C          7.65210       -2.33730       -1.14090
O          8.19500       -1.26120       -1.70440
C          9.55670       -1.36790       -2.10920
C          9.99770       -0.01910       -2.64720
C          6.28930       -2.24520       -0.70230
N          5.76360       -3.24130       -0.05500
C          6.46570       -4.37450        0.13890
C          5.48440       -1.01890       -0.94670
C          9.80350       -5.85250       -0.82600
C         10.14340       -5.33340       -2.03090
C          9.15060       -4.93750       -3.06960
O          7.95550       -5.13840       -3.07300
C          9.94150       -4.36920       -4.17660
C          9.44370       -3.80240       -5.34940
C         10.41440       -3.34120       -6.20420
C         11.78380       -3.45270       -5.92390
C         12.28860       -4.02730       -4.78250
C         11.31620       -4.49220       -3.88900
C         11.47100       -5.12490       -2.58190
C         12.66070       -5.39870       -1.96190
C         12.79430       -5.96390       -0.67530
N         12.99170       -6.40230        0.36710
C         13.93210       -5.14340       -2.51790
N         14.99730       -4.96130       -2.90650
C         12.18290       -2.77160       -7.20970
C         12.63000       -1.29850       -7.09640
C         12.48930       -0.76760       -8.50480
C         11.19320       -0.66110       -8.76850
C         10.43620       -1.11880       -7.54270
C         11.40090       -0.65020       -6.44580
C         10.65670       -2.64670       -7.52070
H         -6.61300        5.83520       -3.27960
H        -10.35180        9.11050        0.47840
H         -8.10480       11.10330       -3.60140
H        -10.24690       13.38140       -2.17060
H         -8.10900       14.48270       -1.52690
H         -6.57180       12.61070       -0.54230
H         -7.76220       11.60150        1.60670
H        -10.03320       12.85350        1.94820
H         -8.66430       14.92340        1.02500
H        -10.20190       14.83160        0.13010
H        -11.40510       12.40190       -0.08140
H         -9.79510        4.48750       -1.48820
H        -11.33270       -0.12750       -0.74530
H        -10.78710       -0.02500        0.94120
H         -9.59920       -1.87390       -1.20230
H        -10.66690       -2.38660        0.11390
H         -9.04550       -1.77070        0.47000
H         -8.61940       -0.60400        2.70620
H        -10.44400        0.25190        4.11430
H        -10.91770        2.66560        4.20090
H         -9.41120        5.11900        1.98000
H        -10.58520        4.85900        3.27440
H         -8.78740        6.41310        4.00790
H         -7.56910        5.17920        3.67520
H         -8.74760        4.92620        4.96260
H         -7.61950        3.40680        1.61390
H          6.22600       -5.39130        3.62440
H          7.25120       -6.67140        5.46120
H          6.11640       -8.65490        6.37340
H          4.41390      -10.35520        6.13520
H          3.22150      -10.25460        4.83150
H          2.11690      -10.04840        7.04700
H          3.13020       -8.65410        7.43460
H          1.94670       -8.54580        6.13200
H          2.94580       -8.12940        3.57260
H         -2.67260       -1.07900       -1.29520
H         -1.84220       -2.63410       -1.03640
H         -4.84190       -2.29550       -1.45220
H         -4.02280       -3.82180       -1.10310
H         -3.68290       -2.95390       -2.60560
H          1.29350       -2.00020        0.50940
H         -0.36330       -1.61000        0.03920
H          0.92620       -2.18180       -1.97470
H         -0.15560       -3.55130       -1.69450
H          1.53650       -3.65890       -1.23030
H         10.16320       -1.67430       -1.24900
H          9.63900       -2.14690       -2.87620
H          9.88930        0.74340       -1.88080
H         11.03930       -0.06970       -2.95090
H          9.38950        0.26010       -3.50340
H          5.97410       -0.15770       -0.49540
H          5.41320       -0.83290       -2.01680
H          4.49200       -1.14740       -0.52590
H         10.53120       -6.37120       -0.21600
H          8.38100       -3.74560       -5.52720
H         13.34440       -4.11730       -4.58980
H         12.80650       -3.35560       -7.88320
H         13.59100       -1.15070       -6.61140
H         13.31850       -0.58330       -9.16210
H         10.72360       -0.37040       -9.68970
H          9.39790       -0.80740       -7.46460
H         11.16780       -1.03790       -5.45580
H         11.48120        0.43490       -6.40360
H         10.26150       -3.14680       -8.40270
