
  xtb     02122211033D
 energy: -378.884730856679 gnorm: 0.000453273693 xtb: 6.4.1 (unknown)
226254  0     0  0            999 V2000
    1.8975    3.6093   12.0385 C   0  0  0  0  0  0  0  0  0  0  0  0
    2.4857    4.8453   11.9801 C   0  0  0  0  0  0  0  0  0  0  0  0
    3.5086    5.2642   11.0145 C   0  0  0  0  0  0  0  0  0  0  0  0
    4.0677    4.5757   10.1780 O   0  0  0  0  0  0  0  0  0  0  0  0
    3.7286    6.7021   11.2418 C   0  0  0  0  0  0  0  0  0  0  0  0
    4.5743    7.5434   10.5234 C   0  0  0  0  0  0  0  0  0  0  0  0
    4.5493    8.8516   10.9433 C   0  0  0  0  0  0  0  0  0  0  0  0
    3.7394    9.2907   11.9989 C   0  0  0  0  0  0  0  0  0  0  0  0
    2.9018    8.4699   12.7166 C   0  0  0  0  0  0  0  0  0  0  0  0
    2.9150    7.1331   12.3090 C   0  0  0  0  0  0  0  0  0  0  0  0
    2.1607    5.9863   12.8137 C   0  0  0  0  0  0  0  0  0  0  0  0
    1.3204    6.0075   13.8976 C   0  0  0  0  0  0  0  0  0  0  0  0
    1.0584    7.1487   14.6840 C   0  0  0  0  0  0  0  0  0  0  0  0
    0.7951    8.0304   15.3710 N   0  0  0  0  0  0  0  0  0  0  0  0
    0.6045    4.9050   14.4085 C   0  0  0  0  0  0  0  0  0  0  0  0
   -0.0125    4.0658   14.8940 N   0  0  0  0  0  0  0  0  0  0  0  0
    4.2149   10.7166   11.8762 C   0  0  0  0  0  0  0  0  0  0  0  0
    5.2461   11.2250   12.9136 C   0  0  0  0  0  0  0  0  0  0  0  0
    6.0063   10.0128   13.3916 C   0  0  0  0  0  0  0  0  0  0  0  0
    6.7743    9.5970   12.3935 C   0  0  0  0  0  0  0  0  0  0  0  0
    6.5472   10.5205   11.2222 C   0  0  0  0  0  0  0  0  0  0  0  0
    6.2868   11.8408   11.9647 C   0  0  0  0  0  0  0  0  0  0  0  0
    5.1186   10.2271   10.7009 C   0  0  0  0  0  0  0  0  0  0  0  0
    2.1152    2.4659   11.2534 C   0  0  0  0  0  0  0  0  0  0  0  0
    1.3862    1.2920   11.4297 C   0  0  0  0  0  0  0  0  0  0  0  0
    1.7398    0.2593   10.5684 C   0  0  0  0  0  0  0  0  0  0  0  0
    1.1479   -1.0810   10.6074 C   0  0  0  0  0  0  0  0  0  0  0  0
   -0.2319   -1.2357   10.7041 C   0  0  0  0  0  0  0  0  0  0  0  0
   -0.7929   -2.4988   10.7377 C   0  0  0  0  0  0  0  0  0  0  0  0
    0.0151   -3.6218   10.6810 C   0  0  0  0  0  0  0  0  0  0  0  0
    1.3903   -3.4770   10.6001 C   0  0  0  0  0  0  0  0  0  0  0  0
    1.9546   -2.2164   10.5656 C   0  0  0  0  0  0  0  0  0  0  0  0
    2.7694    0.6407    9.7063 C   0  0  0  0  0  0  0  0  0  0  0  0
    3.2765    2.2776    9.9617 S   0  0  0  0  0  0  0  0  0  0  0  0
    3.3206   -0.1247    8.6350 C   0  0  0  0  0  0  0  0  0  0  0  0
    4.6212   -0.1184    8.1623 C   0  0  0  0  0  0  0  0  0  0  0  0
    5.7222    0.5923    8.8120 C   0  0  0  0  0  0  0  0  0  0  0  0
    6.6443    1.2992    8.0464 C   0  0  0  0  0  0  0  0  0  0  0  0
    7.6530    2.0098    8.6682 C   0  0  0  0  0  0  0  0  0  0  0  0
    7.7458    2.0308   10.0483 C   0  0  0  0  0  0  0  0  0  0  0  0
    6.8455    1.3150   10.8275 C   0  0  0  0  0  0  0  0  0  0  0  0
    6.8942    1.3821   12.3268 C   0  0  0  0  0  0  0  0  0  0  0  0
    5.8752    2.4047   12.8352 C   0  0  0  0  0  0  0  0  0  0  0  0
    5.8494    0.5872   10.1977 C   0  0  0  0  0  0  0  0  0  0  0  0
    4.7457   -0.9039    6.9991 C   0  0  0  0  0  0  0  0  0  0  0  0
    6.0982   -1.2995    5.9643 S   0  0  0  0  0  0  0  0  0  0  0  0
    5.0350   -2.2260    4.9597 C   0  0  0  0  0  0  0  0  0  0  0  0
    5.0693   -2.9707    3.7666 C   0  0  0  0  0  0  0  0  0  0  0  0
    6.1276   -3.3693    2.9200 C   0  0  0  0  0  0  0  0  0  0  0  0
    5.8302   -4.1510    1.7496 C   0  0  0  0  0  0  0  0  0  0  0  0
    6.9190   -4.4867    1.0771 N   0  0  0  0  0  0  0  0  0  0  0  0
    8.2073   -3.8732    1.8442 S   0  0  0  0  0  0  0  0  0  0  0  0
    7.4247   -3.1519    3.0645 N   0  0  0  0  0  0  0  0  0  0  0  0
    4.4790   -4.3773    1.4027 C   0  0  0  0  0  0  0  0  0  0  0  0
    3.8858   -4.8184    0.2087 C   0  0  0  0  0  0  0  0  0  0  0  0
    4.3552   -5.3797   -1.3637 S   0  0  0  0  0  0  0  0  0  0  0  0
    2.6972   -5.2015   -1.8995 C   0  0  0  0  0  0  0  0  0  0  0  0
    2.0823   -5.3102   -3.1635 C   0  0  0  0  0  0  0  0  0  0  0  0
    2.7641   -5.7904   -4.3669 C   0  0  0  0  0  0  0  0  0  0  0  0
    3.9951   -5.2648   -4.7447 C   0  0  0  0  0  0  0  0  0  0  0  0
    4.6184   -5.7297   -5.8872 C   0  0  0  0  0  0  0  0  0  0  0  0
    4.0274   -6.7183   -6.6540 C   0  0  0  0  0  0  0  0  0  0  0  0
    2.8085   -7.2695   -6.2796 C   0  0  0  0  0  0  0  0  0  0  0  0
    2.1901   -8.3808   -7.0780 C   0  0  0  0  0  0  0  0  0  0  0  0
    2.6951   -9.7385   -6.5865 C   0  0  0  0  0  0  0  0  0  0  0  0
    2.1912   -6.8046   -5.1288 C   0  0  0  0  0  0  0  0  0  0  0  0
    0.7617   -4.8965   -3.1157 C   0  0  0  0  0  0  0  0  0  0  0  0
    0.2485   -4.4858   -1.4783 S   0  0  0  0  0  0  0  0  0  0  0  0
    1.8408   -4.7775   -0.8824 C   0  0  0  0  0  0  0  0  0  0  0  0
    2.5127   -4.5847    0.3287 C   0  0  0  0  0  0  0  0  0  0  0  0
    2.2276   -4.0812    1.5667 N   0  0  0  0  0  0  0  0  0  0  0  0
    3.4194   -3.9397    2.2456 C   0  0  0  0  0  0  0  0  0  0  0  0
    3.7311   -3.3674    3.5028 C   0  0  0  0  0  0  0  0  0  0  0  0
    2.9219   -2.9503    4.5466 N   0  0  0  0  0  0  0  0  0  0  0  0
    3.7133   -2.2393    5.4130 C   0  0  0  0  0  0  0  0  0  0  0  0
    3.5497   -1.4947    6.5857 C   0  0  0  0  0  0  0  0  0  0  0  0
    2.2425   -1.1006    7.6422 S   0  0  0  0  0  0  0  0  0  0  0  0
    1.7147   -3.5826    5.0338 C   0  0  0  0  0  0  0  0  0  0  0  0
    2.0026   -4.4898    6.2305 C   0  0  0  0  0  0  0  0  0  0  0  0
    0.9139   -3.5511    1.8459 C   0  0  0  0  0  0  0  0  0  0  0  0
   -0.1055   -4.6582    2.1120 C   0  0  0  0  0  0  0  0  0  0  0  0
   -0.1320   -4.5346   -4.1624 C   0  0  0  0  0  0  0  0  0  0  0  0
   -1.2831   -3.8197   -3.9778 C   0  0  0  0  0  0  0  0  0  0  0  0
   -1.9097   -3.4029   -5.1706 C   0  0  0  0  0  0  0  0  0  0  0  0
   -3.0131   -2.5352   -5.3031 C   0  0  0  0  0  0  0  0  0  0  0  0
   -3.5727   -1.8358   -4.1704 C   0  0  0  0  0  0  0  0  0  0  0  0
   -4.8699   -1.4438   -3.9400 C   0  0  0  0  0  0  0  0  0  0  0  0
   -5.0304   -0.7325   -2.7505 C   0  0  0  0  0  0  0  0  0  0  0  0
   -3.8609   -0.5452   -2.0364 C   0  0  0  0  0  0  0  0  0  0  0  0
   -3.8026    0.1207   -0.7792 C   0  0  0  0  0  0  0  0  0  0  0  0
   -2.8298    0.3412    0.1381 C   0  0  0  0  0  0  0  0  0  0  0  0
   -1.4426    0.0330    0.2440 C   0  0  0  0  0  0  0  0  0  0  0  0
   -0.6953    0.3291    1.3674 C   0  0  0  0  0  0  0  0  0  0  0  0
    0.6558   -0.0157    1.2765 C   0  0  0  0  0  0  0  0  0  0  0  0
    0.9716   -0.5789    0.0677 C   0  0  0  0  0  0  0  0  0  0  0  0
    2.5480   -1.1706   -0.3912 S   0  0  0  0  0  0  0  0  0  0  0  0
    2.3224   -1.3863   -2.1968 C   0  0  0  0  0  0  0  0  0  0  0  0
    3.6409   -1.7785   -2.8303 C   0  0  0  0  0  0  0  0  0  0  0  0
   -0.4216   -0.7100   -0.9609 S   0  0  0  0  0  0  0  0  0  0  0  0
   -2.5365   -1.2719   -2.8885 S   0  0  0  0  0  0  0  0  0  0  0  0
   -3.4794   -2.3262   -6.6006 C   0  0  0  0  0  0  0  0  0  0  0  0
   -2.8562   -2.8895   -7.7467 C   0  0  0  0  0  0  0  0  0  0  0  0
   -1.6675   -3.6581   -7.6171 C   0  0  0  0  0  0  0  0  0  0  0  0
   -0.8776   -4.0693   -8.7524 C   0  0  0  0  0  0  0  0  0  0  0  0
   -0.0248   -5.1412   -8.8724 C   0  0  0  0  0  0  0  0  0  0  0  0
    0.6873   -5.1567  -10.0772 C   0  0  0  0  0  0  0  0  0  0  0  0
    0.3877   -4.1077  -10.9125 C   0  0  0  0  0  0  0  0  0  0  0  0
    0.9968   -3.7980  -12.1763 C   0  0  0  0  0  0  0  0  0  0  0  0
    0.5045   -2.9668  -13.1050 C   0  0  0  0  0  0  0  0  0  0  0  0
   -0.8307   -2.3935  -13.0252 C   0  0  0  0  0  0  0  0  0  0  0  0
   -2.0140   -3.0656  -13.1124 C   0  0  0  0  0  0  0  0  0  0  0  0
   -3.1458   -2.2514  -12.9167 C   0  0  0  0  0  0  0  0  0  0  0  0
   -2.8194   -0.9524  -12.6697 C   0  0  0  0  0  0  0  0  0  0  0  0
   -3.9431    0.3571  -12.3749 S   0  0  0  0  0  0  0  0  0  0  0  0
   -3.0531    1.2297  -11.0232 C   0  0  0  0  0  0  0  0  0  0  0  0
   -3.8940    2.3757  -10.5003 C   0  0  0  0  0  0  0  0  0  0  0  0
   -1.0963   -0.6966  -12.7413 S   0  0  0  0  0  0  0  0  0  0  0  0
   -0.8028   -3.0785  -10.1804 S   0  0  0  0  0  0  0  0  0  0  0  0
   -1.2458   -3.9086   -6.3167 C   0  0  0  0  0  0  0  0  0  0  0  0
    0.1956   -4.7900   -5.8634 S   0  0  0  0  0  0  0  0  0  0  0  0
   -3.5558   -2.5490   -8.9163 C   0  0  0  0  0  0  0  0  0  0  0  0
   -4.6248   -1.6963   -8.7141 C   0  0  0  0  0  0  0  0  0  0  0  0
   -4.8152   -1.2981   -7.0213 S   0  0  0  0  0  0  0  0  0  0  0  0
   -5.4528   -1.2568   -9.7707 C   0  0  0  0  0  0  0  0  0  0  0  0
   -6.4360   -0.3100   -9.7787 C   0  0  0  0  0  0  0  0  0  0  0  0
   -6.8022    0.5816   -8.6622 C   0  0  0  0  0  0  0  0  0  0  0  0
   -6.4719    0.4914   -7.4951 O   0  0  0  0  0  0  0  0  0  0  0  0
   -7.6520    1.6349   -9.2433 C   0  0  0  0  0  0  0  0  0  0  0  0
   -8.1706    2.7479   -8.5853 C   0  0  0  0  0  0  0  0  0  0  0  0
   -8.9225    3.5705   -9.3882 C   0  0  0  0  0  0  0  0  0  0  0  0
   -9.1346    3.3115  -10.7495 C   0  0  0  0  0  0  0  0  0  0  0  0
   -8.6275    2.2184  -11.4108 C   0  0  0  0  0  0  0  0  0  0  0  0
   -7.8700    1.3603  -10.6087 C   0  0  0  0  0  0  0  0  0  0  0  0
   -7.1968    0.1092  -10.9442 C   0  0  0  0  0  0  0  0  0  0  0  0
   -7.3339   -0.5763  -12.1209 C   0  0  0  0  0  0  0  0  0  0  0  0
   -6.7760   -1.8416  -12.3894 C   0  0  0  0  0  0  0  0  0  0  0  0
   -6.3830   -2.8832  -12.6736 N   0  0  0  0  0  0  0  0  0  0  0  0
   -8.1104   -0.1384  -13.2141 C   0  0  0  0  0  0  0  0  0  0  0  0
   -8.7274    0.1532  -14.1372 N   0  0  0  0  0  0  0  0  0  0  0  0
   -9.9828    4.5449  -10.9329 C   0  0  0  0  0  0  0  0  0  0  0  0
  -11.5178    4.3552  -11.0136 C   0  0  0  0  0  0  0  0  0  0  0  0
  -11.8343    3.0917  -10.2524 C   0  0  0  0  0  0  0  0  0  0  0  0
  -11.6360    3.3350   -8.9638 C   0  0  0  0  0  0  0  0  0  0  0  0
  -11.1813    4.7675   -8.8304 C   0  0  0  0  0  0  0  0  0  0  0  0
  -11.9642    5.4087   -9.9872 C   0  0  0  0  0  0  0  0  0  0  0  0
   -9.7487    4.8317   -9.4161 C   0  0  0  0  0  0  0  0  0  0  0  0
    1.1216    3.4693   12.7815 H   0  0  0  0  0  0  0  0  0  0  0  0
    5.1751    7.1626    9.7122 H   0  0  0  0  0  0  0  0  0  0  0  0
    2.2812    8.8274   13.5210 H   0  0  0  0  0  0  0  0  0  0  0  0
    3.4485   11.4571   11.6559 H   0  0  0  0  0  0  0  0  0  0  0  0
    4.8303   11.8662   13.6861 H   0  0  0  0  0  0  0  0  0  0  0  0
    5.8680    9.5621   14.3569 H   0  0  0  0  0  0  0  0  0  0  0  0
    7.4062    8.7289   12.3578 H   0  0  0  0  0  0  0  0  0  0  0  0
    7.3167   10.5210   10.4545 H   0  0  0  0  0  0  0  0  0  0  0  0
    5.8817   12.6250   11.3265 H   0  0  0  0  0  0  0  0  0  0  0  0
    7.1673   12.2105   12.4880 H   0  0  0  0  0  0  0  0  0  0  0  0
    4.9427   10.6487    9.7130 H   0  0  0  0  0  0  0  0  0  0  0  0
    0.6340    1.1959   12.1936 H   0  0  0  0  0  0  0  0  0  0  0  0
   -0.8632   -0.3598   10.7361 H   0  0  0  0  0  0  0  0  0  0  0  0
   -1.8653   -2.6075   10.8075 H   0  0  0  0  0  0  0  0  0  0  0  0
   -0.4246   -4.6079   10.7053 H   0  0  0  0  0  0  0  0  0  0  0  0
    2.0256   -4.3501   10.5664 H   0  0  0  0  0  0  0  0  0  0  0  0
    3.0287   -2.1064   10.5157 H   0  0  0  0  0  0  0  0  0  0  0  0
    6.5549    1.3077    6.9709 H   0  0  0  0  0  0  0  0  0  0  0  0
    8.3645    2.5614    8.0716 H   0  0  0  0  0  0  0  0  0  0  0  0
    8.5254    2.6055   10.5273 H   0  0  0  0  0  0  0  0  0  0  0  0
    7.8937    1.6733   12.6547 H   0  0  0  0  0  0  0  0  0  0  0  0
    6.6652    0.4032   12.7539 H   0  0  0  0  0  0  0  0  0  0  0  0
    4.8656    2.0985   12.5704 H   0  0  0  0  0  0  0  0  0  0  0  0
    6.0606    3.3776   12.3847 H   0  0  0  0  0  0  0  0  0  0  0  0
    5.9356    2.5015   13.9170 H   0  0  0  0  0  0  0  0  0  0  0  0
    5.1567    0.0090   10.7940 H   0  0  0  0  0  0  0  0  0  0  0  0
    4.4530   -4.4869   -4.1534 H   0  0  0  0  0  0  0  0  0  0  0  0
    5.5707   -5.3149   -6.1830 H   0  0  0  0  0  0  0  0  0  0  0  0
    4.5182   -7.0697   -7.5502 H   0  0  0  0  0  0  0  0  0  0  0  0
    2.4442   -8.2626   -8.1333 H   0  0  0  0  0  0  0  0  0  0  0  0
    1.1030   -8.3451   -6.9812 H   0  0  0  0  0  0  0  0  0  0  0  0
    2.2469  -10.5436   -7.1641 H   0  0  0  0  0  0  0  0  0  0  0  0
    3.7765   -9.7988   -6.6862 H   0  0  0  0  0  0  0  0  0  0  0  0
    2.4409   -9.8790   -5.5383 H   0  0  0  0  0  0  0  0  0  0  0  0
    1.2551   -7.2416   -4.8102 H   0  0  0  0  0  0  0  0  0  0  0  0
    1.2899   -4.1884    4.2404 H   0  0  0  0  0  0  0  0  0  0  0  0
    1.0017   -2.8042    5.3254 H   0  0  0  0  0  0  0  0  0  0  0  0
    2.7497   -5.2352    5.9657 H   0  0  0  0  0  0  0  0  0  0  0  0
    2.3647   -3.9175    7.0798 H   0  0  0  0  0  0  0  0  0  0  0  0
    1.0891   -4.9982    6.5269 H   0  0  0  0  0  0  0  0  0  0  0  0
    0.9777   -2.8436    2.6717 H   0  0  0  0  0  0  0  0  0  0  0  0
    0.5876   -2.9947    0.9617 H   0  0  0  0  0  0  0  0  0  0  0  0
   -0.2490   -5.2532    1.2140 H   0  0  0  0  0  0  0  0  0  0  0  0
   -1.0592   -4.2172    2.3877 H   0  0  0  0  0  0  0  0  0  0  0  0
    0.2170   -5.3253    2.9087 H   0  0  0  0  0  0  0  0  0  0  0  0
   -1.6571   -3.5939   -2.9964 H   0  0  0  0  0  0  0  0  0  0  0  0
   -5.6869   -1.6923   -4.5921 H   0  0  0  0  0  0  0  0  0  0  0  0
   -5.9811   -0.3654   -2.4062 H   0  0  0  0  0  0  0  0  0  0  0  0
   -4.7768    0.5117   -0.5041 H   0  0  0  0  0  0  0  0  0  0  0  0
   -3.1632    0.8736    1.0234 H   0  0  0  0  0  0  0  0  0  0  0  0
   -1.1242    0.7972    2.2359 H   0  0  0  0  0  0  0  0  0  0  0  0
    1.3823    0.1499    2.0509 H   0  0  0  0  0  0  0  0  0  0  0  0
    1.5637   -2.1553   -2.3428 H   0  0  0  0  0  0  0  0  0  0  0  0
    1.9539   -0.4393   -2.5914 H   0  0  0  0  0  0  0  0  0  0  0  0
    4.0347   -2.6781   -2.3628 H   0  0  0  0  0  0  0  0  0  0  0  0
    3.4936   -1.9678   -3.8915 H   0  0  0  0  0  0  0  0  0  0  0  0
    4.3736   -0.9836   -2.7122 H   0  0  0  0  0  0  0  0  0  0  0  0
    0.0682   -5.9131   -8.1307 H   0  0  0  0  0  0  0  0  0  0  0  0
    1.3979   -5.9220  -10.3352 H   0  0  0  0  0  0  0  0  0  0  0  0
    1.9535   -4.2751  -12.3461 H   0  0  0  0  0  0  0  0  0  0  0  0
    1.0942   -2.7227  -13.9787 H   0  0  0  0  0  0  0  0  0  0  0  0
   -2.0691   -4.1241  -13.2942 H   0  0  0  0  0  0  0  0  0  0  0  0
   -4.1573   -2.6150  -12.9484 H   0  0  0  0  0  0  0  0  0  0  0  0
   -2.1125    1.5893  -11.4410 H   0  0  0  0  0  0  0  0  0  0  0  0
   -2.8517    0.4927  -10.2449 H   0  0  0  0  0  0  0  0  0  0  0  0
   -3.3414    2.9155   -9.7345 H   0  0  0  0  0  0  0  0  0  0  0  0
   -4.1427    3.0642  -11.3048 H   0  0  0  0  0  0  0  0  0  0  0  0
   -4.8195    2.0075  -10.0629 H   0  0  0  0  0  0  0  0  0  0  0  0
   -3.3130   -2.9175   -9.8971 H   0  0  0  0  0  0  0  0  0  0  0  0
   -5.2176   -1.7281  -10.7173 H   0  0  0  0  0  0  0  0  0  0  0  0
   -7.9757    2.9122   -7.5369 H   0  0  0  0  0  0  0  0  0  0  0  0
   -8.7918    2.0376  -12.4597 H   0  0  0  0  0  0  0  0  0  0  0  0
   -9.6162    5.2740  -11.6527 H   0  0  0  0  0  0  0  0  0  0  0  0
  -11.9289    4.4265  -12.0168 H   0  0  0  0  0  0  0  0  0  0  0  0
  -12.1054    2.1634  -10.7202 H   0  0  0  0  0  0  0  0  0  0  0  0
  -11.7085    2.6504   -8.1390 H   0  0  0  0  0  0  0  0  0  0  0  0
  -11.2868    5.2152   -7.8456 H   0  0  0  0  0  0  0  0  0  0  0  0
  -11.6330    6.4178  -10.2287 H   0  0  0  0  0  0  0  0  0  0  0  0
  -13.0403    5.4047   -9.8205 H   0  0  0  0  0  0  0  0  0  0  0  0
   -9.2301    5.7492   -9.1444 H   0  0  0  0  0  0  0  0  0  0  0  0
  1  2  2  0  0  0  0
  2  3  1  0  0  0  0
  3  4  2  0  0  0  0
  3  5  1  0  0  0  0
  5  6  2  0  0  0  0
  6  7  1  0  0  0  0
  7  8  2  0  0  0  0
  8  9  1  0  0  0  0
  9 10  2  0  0  0  0
 10 11  1  0  0  0  0
 11 12  2  0  0  0  0
 12 13  1  0  0  0  0
 13 14  3  0  0  0  0
 12 15  1  0  0  0  0
 15 16  3  0  0  0  0
  8 17  1  0  0  0  0
 17 18  1  0  0  0  0
 18 19  1  0  0  0  0
 19 20  2  0  0  0  0
 20 21  1  0  0  0  0
 21 22  1  0  0  0  0
 21 23  1  0  0  0  0
  1 24  1  0  0  0  0
 24 25  2  0  0  0  0
 25 26  1  0  0  0  0
 26 27  1  0  0  0  0
 27 28  2  0  0  0  0
 28 29  1  0  0  0  0
 29 30  2  0  0  0  0
 30 31  1  0  0  0  0
 31 32  2  0  0  0  0
 26 33  2  0  0  0  0
 33 34  1  0  0  0  0
 33 35  1  0  0  0  0
 35 36  2  0  0  0  0
 36 37  1  0  0  0  0
 37 38  2  0  0  0  0
 38 39  1  0  0  0  0
 39 40  2  0  0  0  0
 40 41  1  0  0  0  0
 41 42  1  0  0  0  0
 42 43  1  0  0  0  0
 41 44  2  0  0  0  0
 36 45  1  0  0  0  0
 45 46  1  0  0  0  0
 46 47  1  0  0  0  0
 47 48  1  0  0  0  0
 48 49  1  0  0  0  0
 49 50  1  0  0  0  0
 50 51  2  0  0  0  0
 51 52  1  0  0  0  0
 52 53  1  0  0  0  0
 50 54  1  0  0  0  0
 54 55  1  0  0  0  0
 55 56  1  0  0  0  0
 56 57  1  0  0  0  0
 57 58  1  0  0  0  0
 58 59  1  0  0  0  0
 59 60  2  0  0  0  0
 60 61  1  0  0  0  0
 61 62  2  0  0  0  0
 62 63  1  0  0  0  0
 63 64  1  0  0  0  0
 64 65  1  0  0  0  0
 63 66  2  0  0  0  0
 58 67  2  0  0  0  0
 67 68  1  0  0  0  0
 68 69  1  0  0  0  0
 69 70  1  0  0  0  0
 70 71  1  0  0  0  0
 71 72  1  0  0  0  0
 72 73  1  0  0  0  0
 73 74  1  0  0  0  0
 74 75  1  0  0  0  0
 75 76  1  0  0  0  0
 76 77  1  0  0  0  0
 74 78  1  0  0  0  0
 78 79  1  0  0  0  0
 71 80  1  0  0  0  0
 80 81  1  0  0  0  0
 67 82  1  0  0  0  0
 82 83  2  0  0  0  0
 83 84  1  0  0  0  0
 84 85  2  0  0  0  0
 85 86  1  0  0  0  0
 86 87  2  0  0  0  0
 87 88  1  0  0  0  0
 88 89  2  0  0  0  0
 89 90  1  0  0  0  0
 90 91  2  0  0  0  0
 91 92  1  0  0  0  0
 92 93  2  0  0  0  0
 93 94  1  0  0  0  0
 94 95  2  0  0  0  0
 95 96  1  0  0  0  0
 96 97  1  0  0  0  0
 97 98  1  0  0  0  0
 95 99  1  0  0  0  0
 89100  1  0  0  0  0
 85101  1  0  0  0  0
101102  2  0  0  0  0
102103  1  0  0  0  0
103104  1  0  0  0  0
104105  2  0  0  0  0
105106  1  0  0  0  0
106107  2  0  0  0  0
107108  1  0  0  0  0
108109  2  0  0  0  0
109110  1  0  0  0  0
110111  2  0  0  0  0
111112  1  0  0  0  0
112113  2  0  0  0  0
113114  1  0  0  0  0
114115  1  0  0  0  0
115116  1  0  0  0  0
113117  1  0  0  0  0
107118  1  0  0  0  0
103119  2  0  0  0  0
119120  1  0  0  0  0
102121  1  0  0  0  0
121122  2  0  0  0  0
122123  1  0  0  0  0
122124  1  0  0  0  0
124125  2  0  0  0  0
125126  1  0  0  0  0
126127  2  0  0  0  0
126128  1  0  0  0  0
128129  2  0  0  0  0
129130  1  0  0  0  0
130131  2  0  0  0  0
131132  1  0  0  0  0
132133  2  0  0  0  0
133134  1  0  0  0  0
134135  2  0  0  0  0
135136  1  0  0  0  0
136137  3  0  0  0  0
135138  1  0  0  0  0
138139  3  0  0  0  0
131140  1  0  0  0  0
140141  1  0  0  0  0
141142  1  0  0  0  0
142143  2  0  0  0  0
143144  1  0  0  0  0
144145  1  0  0  0  0
144146  1  0  0  0  0
 11  2  1  0  0  0  0
 23 17  1  0  0  0  0
 34 24  1  0  0  0  0
 77 35  1  0  0  0  0
120 82  1  0  0  0  0
134125  1  0  0  0  0
146140  1  0  0  0  0
 10  5  1  0  0  0  0
 22 18  1  0  0  0  0
 32 27  1  0  0  0  0
 44 37  1  0  0  0  0
 76 45  2  0  0  0  0
119 84  1  0  0  0  0
133128  1  0  0  0  0
145141  1  0  0  0  0
 23  7  1  0  0  0  0
 75 47  2  0  0  0  0
100 86  1  0  0  0  0
123101  1  0  0  0  0
146130  1  0  0  0  0
 73 48  2  0  0  0  0
 99 92  1  0  0  0  0
118104  1  0  0  0  0
 53 49  2  0  0  0  0
 72 54  2  0  0  0  0
117110  1  0  0  0  0
 70 55  2  0  0  0  0
 69 57  2  0  0  0  0
 66 59  1  0  0  0  0
  1147  1  0  0  0  0
  6148  1  0  0  0  0
  9149  1  0  0  0  0
 17150  1  0  0  0  0
 18151  1  0  0  0  0
 19152  1  0  0  0  0
 20153  1  0  0  0  0
 21154  1  0  0  0  0
 22155  1  0  0  0  0
 22156  1  0  0  0  0
 23157  1  0  0  0  0
 25158  1  0  0  0  0
 28159  1  0  0  0  0
 29160  1  0  0  0  0
 30161  1  0  0  0  0
 31162  1  0  0  0  0
 32163  1  0  0  0  0
 38164  1  0  0  0  0
 39165  1  0  0  0  0
 40166  1  0  0  0  0
 42167  1  0  0  0  0
 42168  1  0  0  0  0
 43169  1  0  0  0  0
 43170  1  0  0  0  0
 43171  1  0  0  0  0
 44172  1  0  0  0  0
 60173  1  0  0  0  0
 61174  1  0  0  0  0
 62175  1  0  0  0  0
 64176  1  0  0  0  0
 64177  1  0  0  0  0
 65178  1  0  0  0  0
 65179  1  0  0  0  0
 65180  1  0  0  0  0
 66181  1  0  0  0  0
 78182  1  0  0  0  0
 78183  1  0  0  0  0
 79184  1  0  0  0  0
 79185  1  0  0  0  0
 79186  1  0  0  0  0
 80187  1  0  0  0  0
 80188  1  0  0  0  0
 81189  1  0  0  0  0
 81190  1  0  0  0  0
 81191  1  0  0  0  0
 83192  1  0  0  0  0
 87193  1  0  0  0  0
 88194  1  0  0  0  0
 90195  1  0  0  0  0
 91196  1  0  0  0  0
 93197  1  0  0  0  0
 94198  1  0  0  0  0
 97199  1  0  0  0  0
 97200  1  0  0  0  0
 98201  1  0  0  0  0
 98202  1  0  0  0  0
 98203  1  0  0  0  0
105204  1  0  0  0  0
106205  1  0  0  0  0
108206  1  0  0  0  0
109207  1  0  0  0  0
111208  1  0  0  0  0
112209  1  0  0  0  0
115210  1  0  0  0  0
115211  1  0  0  0  0
116212  1  0  0  0  0
116213  1  0  0  0  0
116214  1  0  0  0  0
121215  1  0  0  0  0
124216  1  0  0  0  0
129217  1  0  0  0  0
132218  1  0  0  0  0
140219  1  0  0  0  0
141220  1  0  0  0  0
142221  1  0  0  0  0
143222  1  0  0  0  0
144223  1  0  0  0  0
145224  1  0  0  0  0
145225  1  0  0  0  0
146226  1  0  0  0  0
M  END
