182

C         -0.03820       14.44570       -0.73090
C         -0.53280       15.30940        0.19540
C         -1.45370       15.00010        1.32170
O         -1.70740       13.92680        1.82650
C         -2.06530       16.29070        1.69520
C         -3.07410       16.48910        2.63570
C         -3.45960       17.80020        2.77500
C         -2.89130       18.84070        2.02660
C         -1.89700       18.65990        1.09590
C         -1.48360       17.33260        0.94640
C         -0.46900       16.75930        0.07230
C          0.44840       17.46090       -0.66270
C          1.49610       16.87980       -1.40980
N          2.38790       16.48830       -2.01810
C          0.50620       18.86870       -0.72870
N          0.60570       20.00820       -0.82690
C         -3.75380       19.88980        2.68150
C         -3.10060       20.78230        3.76540
C         -1.97100       19.97740        4.35890
C         -2.50520       18.99390        5.07060
C         -4.00570       19.11560        4.97080
C         -4.14810       20.64340        4.88170
C         -4.38360       18.73200        3.51840
C         -0.03170       13.00980       -0.72100
C          0.06170       12.26880        0.45870
C          0.04060       10.89000        0.37050
N          0.10050        9.95540        1.37420
C          0.15210       10.24000        2.78430
C          1.59060       10.33390        3.28930
C          0.05770        8.70770        0.80880
C         -0.05160        8.83050       -0.60110
C         -0.05570       10.22920       -0.88320
C         -0.11100       10.97770       -2.05710
C         -0.08340       12.34720       -1.96840
C         -0.13270        7.68460       -1.38690
C         -0.12890        6.45700       -0.76920
C         -0.02530        6.33100        0.62930
C          0.10520        7.46860        1.42280
C         -0.04900        5.01380        1.22930
C         -0.43110        4.63390        2.49850
C         -1.02050        5.50520        3.52090
C         -0.54420        5.46620        4.82710
C         -1.09870        6.29270        5.78750
C         -2.12690        7.15630        5.45600
C         -2.62680        7.19520        4.15880
C         -3.77600        8.09560        3.80650
C         -5.10630        7.38120        4.05190
C         -2.07400        6.35790        3.20340
C         -0.25620        3.24630        2.69920
S         -0.59510        2.19690        4.05590
C         -0.08160        0.84360        3.10450
C          0.00490       -0.55500        3.20090
C         -0.40140       -1.43550        4.22610
C         -0.34590       -2.84880        3.98690
N         -0.81200       -3.55400        5.00590
S         -1.27450       -2.52660        6.16980
N         -0.90150       -1.14240        5.41630
C          0.20590       -3.31370        2.77440
C          0.44010       -4.61860        2.30990
S          0.14860       -6.25690        2.78930
C          0.91180       -6.79880        1.31260
C          1.14770       -8.08130        0.77030
C          0.79370       -9.32270        1.46520
C         -0.46810       -9.47070        2.03190
C         -0.80420      -10.65320        2.66580
C          0.10910      -11.68900        2.74140
C          1.38110      -11.55110        2.19610
C          2.38990      -12.65700        2.31980
C          3.14370      -12.54660        3.64620
C          1.71530      -10.36130        1.57030
C          1.78210       -8.00370       -0.45220
S          2.12620       -6.34610       -0.92000
C          1.37810       -5.75220        0.51850
C          1.10190       -4.50160        1.08800
N          1.26890       -3.18100        0.76530
C          0.70740       -2.42380        1.78350
C          0.51060       -1.02730        1.95720
N          0.70640        0.06660        1.12740
C          0.33460        1.18790        1.81880
C          0.23270        2.56720        1.58570
S          0.50840        3.65150        0.27000
C          0.84390        0.13490       -0.30930
C         -0.33840       -0.52190       -1.01790
C          2.24800       -2.81650       -0.23430
C          3.47320       -2.15730        0.39430
C          2.09580       -9.05860       -1.39140
C          1.30830      -10.20680       -1.44120
C          1.63620      -11.18960       -2.35700
N          1.03300      -12.40110       -2.57620
C         -0.10340      -12.91190       -1.85480
C         -1.42120      -12.46260       -2.48290
C          1.66170      -13.01280       -3.63410
C          2.73150      -12.18930       -4.08590
C          2.71630      -11.02520       -3.26390
C          3.48190       -9.86210       -3.21860
C          3.17020       -8.90040       -2.28840
C          3.51950      -12.61100       -5.15450
C          3.24100      -13.80800       -5.76830
C          2.17190      -14.62610       -5.34010
C          1.38350      -14.21370       -4.24720
C          1.79100      -15.87030       -5.92880
C          2.20610      -16.61300       -6.99970
C          3.25920      -16.34690       -8.00630
O          4.05550      -15.43560       -8.07510
C          3.17040      -17.45720       -8.98120
C          3.92440      -17.63740      -10.12220
C          3.65070      -18.75820      -10.89290
Br         4.64920      -19.06300      -12.48040
C          2.66040      -19.66310      -10.53290
C          1.91170      -19.47230       -9.38200
C          2.16670      -18.35760       -8.59370
C          1.56510      -17.87740       -7.35290
C          0.58340      -18.54340       -6.66510
C         -0.03050      -18.15400       -5.45460
N         -0.59690      -17.94420       -4.47630
C          0.02520      -19.77310       -7.07790
N         -0.47750      -20.76980       -7.34580
H          0.35130       14.88350       -1.64400
H         -3.48960       15.65900        3.18540
H         -1.47510       19.46710        0.52050
H         -4.40690       20.45300        2.01780
H         -2.85140       21.78630        3.43320
H         -0.93250       20.16600        4.15910
H         -2.00200       18.19590        5.58460
H         -4.58140       18.60300        5.73720
H         -3.85350       21.14800        5.80050
H         -5.14400       20.97010        4.58530
H         -5.44880       18.54030        3.40370
H          0.17610       12.76720        1.40500
H         -0.37320       11.18220        2.96080
H         -0.38160        9.44650        3.31620
H          2.12340       11.12650        2.76910
H          1.59880       10.54720        4.35460
H          2.11360        9.39600        3.11680
H         -0.16630       10.48570       -3.01630
H         -0.12650       12.94450       -2.86720
H         -0.20830        7.76110       -2.46080
H         -0.21380        5.55850       -1.36330
H          0.24390        7.37790        2.48730
H          0.26800        4.80250        5.08240
H         -0.72250        6.26470        6.79950
H         -2.54910        7.80650        6.20880
H         -3.73640        9.00200        4.41440
H         -3.70990        8.38590        2.75570
H         -5.94030        8.03060        3.79630
H         -5.19500        7.09550        5.09770
H         -5.16810        6.48020        3.44590
H         -2.45630        6.37250        2.19250
H         -1.18710       -8.66890        1.95850
H         -1.78720      -10.76780        3.09810
H         -0.16370      -12.61430        3.22840
H          3.10180      -12.60200        1.49340
H          1.88520      -13.62450        2.27290
H          3.66210      -11.59230        3.70750
H          2.45080      -12.61290        4.48200
H          3.87490      -13.34640        3.73620
H          2.70200      -10.23710        1.14700
H          0.87300        1.19640       -0.56760
H          1.79350       -0.29660       -0.62640
H         -1.25900       -0.00530       -0.75640
H         -0.44120       -1.56480       -0.72740
H         -0.20410       -0.46670       -2.09490
H          1.80140       -2.18450       -1.00280
H          2.55110       -3.74590       -0.72300
H          3.95490       -2.84920        1.08140
H          3.19800       -1.26480        0.95130
H          4.18600       -1.88440       -0.37940
H          0.45480      -10.30940       -0.79180
H         -0.03960      -12.56020       -0.82080
H         -0.04490      -14.00330       -1.84640
H         -2.25840      -12.86090       -1.91680
H         -1.49180      -12.81760       -3.50840
H         -1.48630      -11.37710       -2.48780
H          4.30370       -9.72170       -3.90370
H          3.75710       -7.99500       -2.23410
H          4.33780      -11.99820       -5.50000
H          3.84520      -14.13010       -6.59750
H          0.56620      -14.83530       -3.91180
H          0.95710      -16.31420       -5.39770
H          4.69090      -16.92820      -10.39390
H          2.47220      -20.52320      -11.15690
H          1.14870      -20.18830       -9.12670
