
  xtb     02222207483D
 energy: -289.607188478181 gnorm: 0.000421505856 xtb: 6.4.1 (unknown)
171191  0     0  0            999 V2000
   -8.3088    1.8288    1.5266 C   0  0  0  0  0  0  0  0  0  0  0  0
   -7.5962    2.2807    2.5961 C   0  0  0  0  0  0  0  0  0  0  0  0
   -6.2025    1.9311    2.9776 C   0  0  0  0  0  0  0  0  0  0  0  0
   -5.4884    1.0522    2.5400 O   0  0  0  0  0  0  0  0  0  0  0  0
   -5.7963    2.9365    3.9776 C   0  0  0  0  0  0  0  0  0  0  0  0
   -4.5574    3.0215    4.6118 C   0  0  0  0  0  0  0  0  0  0  0  0
   -4.4411    4.0828    5.4756 C   0  0  0  0  0  0  0  0  0  0  0  0
   -5.4777    5.0027    5.6878 C   0  0  0  0  0  0  0  0  0  0  0  0
   -6.7114    4.9170    5.0886 C   0  0  0  0  0  0  0  0  0  0  0  0
   -6.8553    3.8334    4.2145 C   0  0  0  0  0  0  0  0  0  0  0  0
   -8.0076    3.4010    3.4318 C   0  0  0  0  0  0  0  0  0  0  0  0
   -9.2757    3.9069    3.5405 C   0  0  0  0  0  0  0  0  0  0  0  0
  -10.4157    3.4081    2.8736 C   0  0  0  0  0  0  0  0  0  0  0  0
  -11.3987    3.0553    2.3957 N   0  0  0  0  0  0  0  0  0  0  0  0
   -9.6361    4.9824    4.3794 C   0  0  0  0  0  0  0  0  0  0  0  0
   -9.9989    5.8532    5.0341 N   0  0  0  0  0  0  0  0  0  0  0  0
   -4.6609    5.8202    6.6578 C   0  0  0  0  0  0  0  0  0  0  0  0
   -4.0459    7.1294    6.1175 C   0  0  0  0  0  0  0  0  0  0  0  0
   -2.9495    7.4507    7.1075 C   0  0  0  0  0  0  0  0  0  0  0  0
   -1.9720    6.5723    6.9263 C   0  0  0  0  0  0  0  0  0  0  0  0
   -2.3914    5.6421    5.8110 C   0  0  0  0  0  0  0  0  0  0  0  0
   -3.1978    6.6188    4.9449 C   0  0  0  0  0  0  0  0  0  0  0  0
   -3.5118    4.7851    6.4355 C   0  0  0  0  0  0  0  0  0  0  0  0
   -8.0067    0.7581    0.6214 C   0  0  0  0  0  0  0  0  0  0  0  0
   -7.2736   -0.3692    0.9996 C   0  0  0  0  0  0  0  0  0  0  0  0
   -6.9067   -1.2702    0.0200 C   0  0  0  0  0  0  0  0  0  0  0  0
   -6.1081   -2.3829    0.1272 N   0  0  0  0  0  0  0  0  0  0  0  0
   -5.4149   -2.7895    1.3223 C   0  0  0  0  0  0  0  0  0  0  0  0
   -4.1326   -1.9858    1.5312 C   0  0  0  0  0  0  0  0  0  0  0  0
   -5.8612   -2.8539   -1.1366 C   0  0  0  0  0  0  0  0  0  0  0  0
   -6.6130   -2.1054   -2.0798 C   0  0  0  0  0  0  0  0  0  0  0  0
   -7.2833   -1.0876   -1.3379 C   0  0  0  0  0  0  0  0  0  0  0  0
   -8.1023   -0.0142   -1.6855 C   0  0  0  0  0  0  0  0  0  0  0  0
   -8.4616    0.8845   -0.7120 C   0  0  0  0  0  0  0  0  0  0  0  0
   -6.4820   -2.3901   -3.4373 C   0  0  0  0  0  0  0  0  0  0  0  0
   -5.5592   -3.3245   -3.8440 C   0  0  0  0  0  0  0  0  0  0  0  0
   -4.7576   -4.0180   -2.9143 C   0  0  0  0  0  0  0  0  0  0  0  0
   -4.9612   -3.8184   -1.5486 C   0  0  0  0  0  0  0  0  0  0  0  0
   -3.5748   -4.7395   -3.3358 C   0  0  0  0  0  0  0  0  0  0  0  0
   -3.1269   -5.1020   -4.5923 C   0  0  0  0  0  0  0  0  0  0  0  0
   -3.9653   -5.2846   -5.7781 C   0  0  0  0  0  0  0  0  0  0  0  0
   -5.1780   -5.9657   -5.6790 C   0  0  0  0  0  0  0  0  0  0  0  0
   -5.9360   -6.1902   -6.8110 C   0  0  0  0  0  0  0  0  0  0  0  0
   -5.4952   -5.7477   -8.0475 C   0  0  0  0  0  0  0  0  0  0  0  0
   -4.2911   -5.0666   -8.1643 C   0  0  0  0  0  0  0  0  0  0  0  0
   -3.7729   -4.6233   -9.5019 C   0  0  0  0  0  0  0  0  0  0  0  0
   -2.7266   -5.6126  -10.0189 C   0  0  0  0  0  0  0  0  0  0  0  0
   -3.5348   -4.8416   -7.0232 C   0  0  0  0  0  0  0  0  0  0  0  0
   -1.7290   -5.3372   -4.5987 C   0  0  0  0  0  0  0  0  0  0  0  0
   -0.5480   -5.5410   -5.8814 S   0  0  0  0  0  0  0  0  0  0  0  0
    0.7315   -5.3600   -4.7201 C   0  0  0  0  0  0  0  0  0  0  0  0
    2.1038   -5.0457   -4.6788 C   0  0  0  0  0  0  0  0  0  0  0  0
    3.0106   -4.7003   -5.7075 C   0  0  0  0  0  0  0  0  0  0  0  0
    4.1802   -3.9292   -5.3723 C   0  0  0  0  0  0  0  0  0  0  0  0
    4.8641   -3.5614   -6.4432 N   0  0  0  0  0  0  0  0  0  0  0  0
    4.1182   -4.1444   -7.7581 S   0  0  0  0  0  0  0  0  0  0  0  0
    2.8812   -4.8771   -7.0115 N   0  0  0  0  0  0  0  0  0  0  0  0
    4.4619   -3.6578   -4.0147 C   0  0  0  0  0  0  0  0  0  0  0  0
    5.3914   -2.8082   -3.3803 C   0  0  0  0  0  0  0  0  0  0  0  0
    6.4461   -1.4829   -3.7631 S   0  0  0  0  0  0  0  0  0  0  0  0
    6.5439   -1.0744   -2.0602 C   0  0  0  0  0  0  0  0  0  0  0  0
    6.9988    0.0628   -1.3485 C   0  0  0  0  0  0  0  0  0  0  0  0
    7.6919    1.2105   -1.9279 C   0  0  0  0  0  0  0  0  0  0  0  0
    8.6745    1.8809   -1.1998 C   0  0  0  0  0  0  0  0  0  0  0  0
    9.3325    2.9588   -1.7577 C   0  0  0  0  0  0  0  0  0  0  0  0
    9.0250    3.3782   -3.0411 C   0  0  0  0  0  0  0  0  0  0  0  0
    8.0489    2.7240   -3.7810 C   0  0  0  0  0  0  0  0  0  0  0  0
    7.7348    3.1345   -5.1906 C   0  0  0  0  0  0  0  0  0  0  0  0
    8.4437    2.2119   -6.1842 C   0  0  0  0  0  0  0  0  0  0  0  0
    7.3902    1.6431   -3.2147 C   0  0  0  0  0  0  0  0  0  0  0  0
    6.6832   -0.0327   -0.0084 C   0  0  0  0  0  0  0  0  0  0  0  0
    5.8945   -1.5487    0.4062 S   0  0  0  0  0  0  0  0  0  0  0  0
    5.8875   -2.0047   -1.2563 C   0  0  0  0  0  0  0  0  0  0  0  0
    5.2130   -2.9726   -2.0074 C   0  0  0  0  0  0  0  0  0  0  0  0
    4.2210   -3.8818   -1.7546 N   0  0  0  0  0  0  0  0  0  0  0  0
    3.6866   -4.2497   -2.9800 C   0  0  0  0  0  0  0  0  0  0  0  0
    2.4311   -4.8172   -3.3137 C   0  0  0  0  0  0  0  0  0  0  0  0
    1.2935   -5.0066   -2.5519 N   0  0  0  0  0  0  0  0  0  0  0  0
    0.2627   -5.2665   -3.4091 C   0  0  0  0  0  0  0  0  0  0  0  0
   -1.1353   -5.2298   -3.3457 C   0  0  0  0  0  0  0  0  0  0  0  0
   -2.2915   -4.8379   -2.1315 S   0  0  0  0  0  0  0  0  0  0  0  0
    1.0139   -4.6713   -1.1766 C   0  0  0  0  0  0  0  0  0  0  0  0
    1.0164   -3.1620   -0.9446 C   0  0  0  0  0  0  0  0  0  0  0  0
    4.1964   -4.5799   -0.4852 C   0  0  0  0  0  0  0  0  0  0  0  0
    4.2900   -6.0907   -0.6700 C   0  0  0  0  0  0  0  0  0  0  0  0
    6.5763    0.9929    0.9902 C   0  0  0  0  0  0  0  0  0  0  0  0
    6.6535    0.8503    2.3440 C   0  0  0  0  0  0  0  0  0  0  0  0
    6.1232    1.9593    3.0464 C   0  0  0  0  0  0  0  0  0  0  0  0
    5.9258    2.1669    4.4760 C   0  0  0  0  0  0  0  0  0  0  0  0
    5.3054    3.1423    4.8628 O   0  0  0  0  0  0  0  0  0  0  0  0
    6.5146    1.1333    5.4039 C   0  0  0  0  0  0  0  0  0  0  0  0
    6.2945    1.4803    6.8691 C   0  0  0  0  0  0  0  0  0  0  0  0
    5.6292    2.9361    2.2032 C   0  0  0  0  0  0  0  0  0  0  0  0
    5.8826    2.5464    0.5510 S   0  0  0  0  0  0  0  0  0  0  0  0
    4.8652    4.0747    2.6778 C   0  0  0  0  0  0  0  0  0  0  0  0
    3.5122    4.0756    2.5884 C   0  0  0  0  0  0  0  0  0  0  0  0
    2.7445    2.8961    2.1130 C   0  0  0  0  0  0  0  0  0  0  0  0
    3.1811    1.8317    1.7344 O   0  0  0  0  0  0  0  0  0  0  0  0
    1.3224    3.2783    2.2296 C   0  0  0  0  0  0  0  0  0  0  0  0
    0.2104    2.5367    1.8864 C   0  0  0  0  0  0  0  0  0  0  0  0
   -1.0344    3.1203    2.0806 C   0  0  0  0  0  0  0  0  0  0  0  0
   -2.6083    2.1460    1.6403 Br  0  0  0  0  0  0  0  0  0  0  0  0
   -1.1548    4.4059    2.5956 C   0  0  0  0  0  0  0  0  0  0  0  0
   -0.0324    5.1419    2.9422 C   0  0  0  0  0  0  0  0  0  0  0  0
    1.2237    4.5750    2.7655 C   0  0  0  0  0  0  0  0  0  0  0  0
    2.5653    5.0905    3.0259 C   0  0  0  0  0  0  0  0  0  0  0  0
    2.8613    6.2950    3.5994 C   0  0  0  0  0  0  0  0  0  0  0  0
    1.8866    7.1998    4.0733 C   0  0  0  0  0  0  0  0  0  0  0  0
    1.1316    7.9587    4.4870 N   0  0  0  0  0  0  0  0  0  0  0  0
    4.1679    6.7929    3.7965 C   0  0  0  0  0  0  0  0  0  0  0  0
    5.1968    7.2728    3.9624 N   0  0  0  0  0  0  0  0  0  0  0  0
   -9.1895    2.4006    1.2557 H   0  0  0  0  0  0  0  0  0  0  0  0
   -3.7886    2.2899    4.4210 H   0  0  0  0  0  0  0  0  0  0  0  0
   -7.5030    5.6240    5.2715 H   0  0  0  0  0  0  0  0  0  0  0  0
   -5.0802    5.9296    7.6560 H   0  0  0  0  0  0  0  0  0  0  0  0
   -4.7643    7.9175    5.9099 H   0  0  0  0  0  0  0  0  0  0  0  0
   -3.0184    8.2252    7.8481 H   0  0  0  0  0  0  0  0  0  0  0  0
   -1.0588    6.4675    7.4814 H   0  0  0  0  0  0  0  0  0  0  0  0
   -1.5990    5.0729    5.3314 H   0  0  0  0  0  0  0  0  0  0  0  0
   -2.5739    7.4028    4.5190 H   0  0  0  0  0  0  0  0  0  0  0  0
   -3.7821    6.1435    4.1579 H   0  0  0  0  0  0  0  0  0  0  0  0
   -3.1742    4.1943    7.2850 H   0  0  0  0  0  0  0  0  0  0  0  0
   -6.9969   -0.5183    2.0280 H   0  0  0  0  0  0  0  0  0  0  0  0
   -6.0861   -2.6507    2.1738 H   0  0  0  0  0  0  0  0  0  0  0  0
   -5.1887   -3.8559    1.2385 H   0  0  0  0  0  0  0  0  0  0  0  0
   -4.3646   -0.9316    1.6603 H   0  0  0  0  0  0  0  0  0  0  0  0
   -3.4757   -2.0970    0.6712 H   0  0  0  0  0  0  0  0  0  0  0  0
   -3.6131   -2.3402    2.4174 H   0  0  0  0  0  0  0  0  0  0  0  0
   -8.4279    0.1160   -2.7064 H   0  0  0  0  0  0  0  0  0  0  0  0
   -9.0681    1.7402   -0.9699 H   0  0  0  0  0  0  0  0  0  0  0  0
   -7.0604   -1.8441   -4.1670 H   0  0  0  0  0  0  0  0  0  0  0  0
   -5.4024   -3.4900   -4.8973 H   0  0  0  0  0  0  0  0  0  0  0  0
   -4.3623   -4.3599   -0.8310 H   0  0  0  0  0  0  0  0  0  0  0  0
   -5.5143   -6.3179   -4.7149 H   0  0  0  0  0  0  0  0  0  0  0  0
   -6.8744   -6.7193   -6.7314 H   0  0  0  0  0  0  0  0  0  0  0  0
   -6.0922   -5.9331   -8.9289 H   0  0  0  0  0  0  0  0  0  0  0  0
   -3.3168   -3.6350   -9.4116 H   0  0  0  0  0  0  0  0  0  0  0  0
   -4.5954   -4.5569  -10.2167 H   0  0  0  0  0  0  0  0  0  0  0  0
   -2.3460   -5.2929  -10.9860 H   0  0  0  0  0  0  0  0  0  0  0  0
   -1.8941   -5.6817   -9.3224 H   0  0  0  0  0  0  0  0  0  0  0  0
   -3.1646   -6.6025  -10.1276 H   0  0  0  0  0  0  0  0  0  0  0  0
   -2.6040   -4.2997   -7.1036 H   0  0  0  0  0  0  0  0  0  0  0  0
    8.9314    1.5411   -0.2070 H   0  0  0  0  0  0  0  0  0  0  0  0
   10.0955    3.4727   -1.1916 H   0  0  0  0  0  0  0  0  0  0  0  0
    9.5483    4.2197   -3.4715 H   0  0  0  0  0  0  0  0  0  0  0  0
    6.6571    3.0797   -5.3582 H   0  0  0  0  0  0  0  0  0  0  0  0
    8.0556    4.1643   -5.3585 H   0  0  0  0  0  0  0  0  0  0  0  0
    8.2158    2.5072   -7.2056 H   0  0  0  0  0  0  0  0  0  0  0  0
    8.1235    1.1827   -6.0399 H   0  0  0  0  0  0  0  0  0  0  0  0
    9.5210    2.2590   -6.0410 H   0  0  0  0  0  0  0  0  0  0  0  0
    6.6195    1.1404   -3.7792 H   0  0  0  0  0  0  0  0  0  0  0  0
    1.7139   -5.1817   -0.5166 H   0  0  0  0  0  0  0  0  0  0  0  0
    0.0178   -5.0641   -0.9573 H   0  0  0  0  0  0  0  0  0  0  0  0
    0.8091   -2.9476    0.1003 H   0  0  0  0  0  0  0  0  0  0  0  0
    0.2448   -2.6953   -1.5524 H   0  0  0  0  0  0  0  0  0  0  0  0
    1.9743   -2.7230   -1.2113 H   0  0  0  0  0  0  0  0  0  0  0  0
    3.3171   -4.3018    0.1008 H   0  0  0  0  0  0  0  0  0  0  0  0
    5.0693   -4.2306    0.0734 H   0  0  0  0  0  0  0  0  0  0  0  0
    5.2130   -6.3471   -1.1853 H   0  0  0  0  0  0  0  0  0  0  0  0
    4.2858   -6.5813    0.2998 H   0  0  0  0  0  0  0  0  0  0  0  0
    3.4585   -6.4708   -1.2587 H   0  0  0  0  0  0  0  0  0  0  0  0
    7.0394   -0.0358    2.8148 H   0  0  0  0  0  0  0  0  0  0  0  0
    6.0512    0.1728    5.1627 H   0  0  0  0  0  0  0  0  0  0  0  0
    7.5817    1.0476    5.1831 H   0  0  0  0  0  0  0  0  0  0  0  0
    6.7561    2.4363    7.1027 H   0  0  0  0  0  0  0  0  0  0  0  0
    6.7251    0.7150    7.5096 H   0  0  0  0  0  0  0  0  0  0  0  0
    5.2311    1.5600    7.0803 H   0  0  0  0  0  0  0  0  0  0  0  0
    5.4072    4.9192    3.0821 H   0  0  0  0  0  0  0  0  0  0  0  0
    0.3154    1.5427    1.4803 H   0  0  0  0  0  0  0  0  0  0  0  0
   -2.1365    4.8340    2.7273 H   0  0  0  0  0  0  0  0  0  0  0  0
   -0.1544    6.1366    3.3384 H   0  0  0  0  0  0  0  0  0  0  0  0
  1  2  2  0  0  0  0
  2  3  1  0  0  0  0
  3  4  2  0  0  0  0
  3  5  1  0  0  0  0
  5  6  2  0  0  0  0
  6  7  1  0  0  0  0
  7  8  2  0  0  0  0
  8  9  1  0  0  0  0
  9 10  2  0  0  0  0
 10 11  1  0  0  0  0
 11 12  2  0  0  0  0
 12 13  1  0  0  0  0
 13 14  3  0  0  0  0
 12 15  1  0  0  0  0
 15 16  3  0  0  0  0
  8 17  1  0  0  0  0
 17 18  1  0  0  0  0
 18 19  1  0  0  0  0
 19 20  2  0  0  0  0
 20 21  1  0  0  0  0
 21 22  1  0  0  0  0
 21 23  1  0  0  0  0
  1 24  1  0  0  0  0
 24 25  2  0  0  0  0
 25 26  1  0  0  0  0
 26 27  1  0  0  0  0
 27 28  1  0  0  0  0
 28 29  1  0  0  0  0
 27 30  1  0  0  0  0
 30 31  2  0  0  0  0
 31 32  1  0  0  0  0
 32 33  1  0  0  0  0
 33 34  2  0  0  0  0
 31 35  1  0  0  0  0
 35 36  2  0  0  0  0
 36 37  1  0  0  0  0
 37 38  2  0  0  0  0
 37 39  1  0  0  0  0
 39 40  2  0  0  0  0
 40 41  1  0  0  0  0
 41 42  2  0  0  0  0
 42 43  1  0  0  0  0
 43 44  2  0  0  0  0
 44 45  1  0  0  0  0
 45 46  1  0  0  0  0
 46 47  1  0  0  0  0
 45 48  2  0  0  0  0
 40 49  1  0  0  0  0
 49 50  1  0  0  0  0
 50 51  1  0  0  0  0
 51 52  1  0  0  0  0
 52 53  1  0  0  0  0
 53 54  1  0  0  0  0
 54 55  2  0  0  0  0
 55 56  1  0  0  0  0
 56 57  1  0  0  0  0
 54 58  1  0  0  0  0
 58 59  1  0  0  0  0
 59 60  1  0  0  0  0
 60 61  1  0  0  0  0
 61 62  1  0  0  0  0
 62 63  1  0  0  0  0
 63 64  2  0  0  0  0
 64 65  1  0  0  0  0
 65 66  2  0  0  0  0
 66 67  1  0  0  0  0
 67 68  1  0  0  0  0
 68 69  1  0  0  0  0
 67 70  2  0  0  0  0
 62 71  2  0  0  0  0
 71 72  1  0  0  0  0
 72 73  1  0  0  0  0
 73 74  1  0  0  0  0
 74 75  1  0  0  0  0
 75 76  1  0  0  0  0
 76 77  1  0  0  0  0
 77 78  1  0  0  0  0
 78 79  1  0  0  0  0
 79 80  1  0  0  0  0
 80 81  1  0  0  0  0
 78 82  1  0  0  0  0
 82 83  1  0  0  0  0
 75 84  1  0  0  0  0
 84 85  1  0  0  0  0
 71 86  1  0  0  0  0
 86 87  2  0  0  0  0
 87 88  1  0  0  0  0
 88 89  1  0  0  0  0
 89 90  2  0  0  0  0
 89 91  1  0  0  0  0
 91 92  1  0  0  0  0
 88 93  2  0  0  0  0
 93 94  1  0  0  0  0
 93 95  1  0  0  0  0
 95 96  2  0  0  0  0
 96 97  1  0  0  0  0
 97 98  2  0  0  0  0
 97 99  1  0  0  0  0
 99100  2  0  0  0  0
100101  1  0  0  0  0
101102  1  0  0  0  0
101103  2  0  0  0  0
103104  1  0  0  0  0
104105  2  0  0  0  0
105106  1  0  0  0  0
106107  2  0  0  0  0
107108  1  0  0  0  0
108109  3  0  0  0  0
107110  1  0  0  0  0
110111  3  0  0  0  0
 11  2  1  0  0  0  0
 23 17  1  0  0  0  0
 34 24  1  0  0  0  0
 81 39  1  0  0  0  0
 94 86  1  0  0  0  0
106 96  1  0  0  0  0
 10  5  1  0  0  0  0
 22 18  1  0  0  0  0
 32 26  2  0  0  0  0
 48 41  1  0  0  0  0
 80 49  2  0  0  0  0
105 99  1  0  0  0  0
 23  7  1  0  0  0  0
 38 30  1  0  0  0  0
 79 51  2  0  0  0  0
 77 52  2  0  0  0  0
 57 53  2  0  0  0  0
 76 58  2  0  0  0  0
 74 59  2  0  0  0  0
 73 61  2  0  0  0  0
 70 63  1  0  0  0  0
  1112  1  0  0  0  0
  6113  1  0  0  0  0
  9114  1  0  0  0  0
 17115  1  0  0  0  0
 18116  1  0  0  0  0
 19117  1  0  0  0  0
 20118  1  0  0  0  0
 21119  1  0  0  0  0
 22120  1  0  0  0  0
 22121  1  0  0  0  0
 23122  1  0  0  0  0
 25123  1  0  0  0  0
 28124  1  0  0  0  0
 28125  1  0  0  0  0
 29126  1  0  0  0  0
 29127  1  0  0  0  0
 29128  1  0  0  0  0
 33129  1  0  0  0  0
 34130  1  0  0  0  0
 35131  1  0  0  0  0
 36132  1  0  0  0  0
 38133  1  0  0  0  0
 42134  1  0  0  0  0
 43135  1  0  0  0  0
 44136  1  0  0  0  0
 46137  1  0  0  0  0
 46138  1  0  0  0  0
 47139  1  0  0  0  0
 47140  1  0  0  0  0
 47141  1  0  0  0  0
 48142  1  0  0  0  0
 64143  1  0  0  0  0
 65144  1  0  0  0  0
 66145  1  0  0  0  0
 68146  1  0  0  0  0
 68147  1  0  0  0  0
 69148  1  0  0  0  0
 69149  1  0  0  0  0
 69150  1  0  0  0  0
 70151  1  0  0  0  0
 82152  1  0  0  0  0
 82153  1  0  0  0  0
 83154  1  0  0  0  0
 83155  1  0  0  0  0
 83156  1  0  0  0  0
 84157  1  0  0  0  0
 84158  1  0  0  0  0
 85159  1  0  0  0  0
 85160  1  0  0  0  0
 85161  1  0  0  0  0
 87162  1  0  0  0  0
 91163  1  0  0  0  0
 91164  1  0  0  0  0
 92165  1  0  0  0  0
 92166  1  0  0  0  0
 92167  1  0  0  0  0
 95168  1  0  0  0  0
100169  1  0  0  0  0
103170  1  0  0  0  0
104171  1  0  0  0  0
M  END
