216

C          3.88220       14.60860       -4.03150
C          2.92200       15.00550       -4.91340
C          2.18890       14.16010       -5.89120
O          2.19660       12.95170       -6.01020
C          1.47600       15.09790       -6.77820
C          0.66860       14.75830       -7.86190
C          0.11390       15.83700       -8.50590
C          0.34900       17.15950       -8.10480
C          1.14530       17.50790       -7.04060
C          1.71820       16.42320       -6.36870
C          2.59140       16.39380       -5.20040
C          2.95930       17.48570       -4.45820
C          2.60130       18.81610       -4.76170
N          2.36510       19.92350       -4.95290
C          3.71740       17.45730       -3.26800
N          4.30030       17.53540       -2.28110
C         -0.51690       17.72950       -9.20000
C          0.18930       18.34210      -10.43450
C          1.52580       17.65200      -10.55010
C          1.30400       16.40060      -10.92930
C         -0.18690       16.22180      -11.07730
C         -0.58210       17.62800      -11.55590
C         -0.77900       16.25660       -9.64660
C          4.20920       13.28860       -3.57880
C          3.26350       12.26070       -3.53870
C          3.66230       11.01740       -3.09200
N          2.92430        9.86540       -2.97890
C          1.57080        9.71000       -3.44490
C          1.51350        9.56080       -4.96410
C          3.74190        8.87350       -2.50390
C          5.03770        9.40230       -2.26260
C          4.98980       10.77560       -2.64850
C          5.91590       11.81760       -2.65410
C          5.52080       13.05260       -3.10560
C          6.03710        8.57470       -1.75770
C          5.74060        7.25930       -1.48390
C          4.45350        6.73810       -1.70700
C          3.45470        7.54540       -2.23990
C          4.13780        5.34910       -1.41210
C          4.39210        4.62330       -0.27240
C          4.97140        5.19640        0.98630
C          3.89100        5.30590        2.06460
C          3.85130        3.31990       -0.38620
C          3.19690        3.08470       -1.59210
S          3.23400        4.45220       -2.62700
C          2.65930        1.78290       -1.55480
C          1.97310        0.98230       -2.48750
N          1.62620        1.17040       -3.76290
N          1.05620        0.04180       -4.10800
C          0.50140       -0.15180       -5.41590
C         -0.98160        0.20810       -5.42850
N          0.97800       -0.88450       -3.18370
C          1.55650       -0.32870       -2.11700
C          1.71390       -0.75920       -0.78490
C          1.17620       -1.83110       -0.05540
S          0.15770       -3.17670       -0.34220
C          0.15970       -3.52420        1.38060
C          0.88240       -2.62670        2.12960
C          0.94370       -2.71900        3.62550
C          2.17190       -3.49280        4.10720
C          1.47720       -1.64570        1.29480
N          2.23000       -0.49100        1.42650
C          2.31610        0.28850        2.64460
C          3.38960       -0.19310        3.62830
C          2.37830        0.05930        0.15830
C          2.96590        1.27260       -0.27180
N          3.74110        2.20160        0.42520
C          4.85400        1.79310        1.25950
C          6.14780        1.67780        0.45250
C         -0.66660       -4.60660        1.86680
C         -0.29980       -5.83830        2.37110
N          0.99930       -6.31280        2.45150
C          1.91440       -6.05310        1.41970
C          3.26350       -5.86530        1.70800
C          4.15680       -5.57060        0.69650
C          3.73790       -5.45870       -0.62250
C          4.69290       -5.10230       -1.72060
C          2.39640       -5.68380       -0.90710
C          1.49510       -5.98230        0.09380
C          1.32160       -7.21280        3.48030
C          0.83970       -7.00020        4.77030
C          1.11310       -7.90840        5.77250
C          1.87790       -9.04100        5.52410
C          2.12460      -10.04430        6.60860
C          2.37760       -9.23070        4.24220
C          2.10560       -8.33420        3.22850
C         -1.43530       -6.59140        2.77190
S         -1.63980       -8.17440        3.43230
C         -3.39400       -7.96340        3.41360
C         -3.77370       -6.72780        2.82950
N         -5.05770       -6.32430        2.57800
C         -5.34940       -4.94680        2.61320
C         -4.88590       -4.16550        3.66780
C         -5.16280       -2.81360        3.70100
C         -5.90920       -2.21030        2.69610
C         -6.18310       -0.73830        2.72130
C         -6.37760       -3.00220        1.65380
C         -6.10390       -4.35400        1.60570
C         -6.05950       -7.21390        2.14800
C         -7.38200       -7.00940        2.53400
C         -8.36600       -7.88060        2.11170
C         -8.06310       -8.97450        1.30950
C         -9.13870       -9.93100        0.89610
C         -6.74300       -9.15860        0.91500
C         -5.75010       -8.28790        1.31690
C         -2.64230       -5.95390        2.51920
S         -2.41190       -4.39670        1.79400
C         -4.30790       -8.83350        4.00290
C         -4.12530      -10.06550        4.58980
C         -2.87840      -10.83050        4.63970
O         -1.76730      -10.47700        4.28130
C         -3.22660      -12.14900        5.20350
C         -2.36750      -13.22160        5.42410
C         -2.98260      -14.33100        5.95400
C         -4.35330      -14.37170        6.23630
C         -5.21190      -13.31850        6.02430
C         -4.60510      -12.17830        5.49270
C         -5.17640      -10.87300        5.15890
C         -6.47850      -10.49610        5.39080
C         -7.48250      -11.35100        5.88540
N         -8.35990      -11.98820        6.26610
C         -7.00120       -9.20110        5.21440
N         -7.50590       -8.17000        5.14040
C         -4.28790      -15.78900        6.74860
C         -4.32320      -16.00460        8.28160
C         -3.76990      -14.74650        8.90300
C         -2.47040      -14.70390        8.64130
C         -2.12160      -15.93250        7.83820
C         -3.11390      -16.94000        8.44060
C         -2.75840      -15.74170        6.43910
H          4.51740       15.38540       -3.62110
H          0.51390       13.72570       -8.13410
H          1.31770       18.53000       -6.74820
H         -1.36880       18.32250       -8.87300
H          0.20690       19.42850      -10.45110
H          2.46190       18.11390      -10.29620
H          2.01780       15.60770      -11.05530
H         -0.51180       15.37790      -11.68040
H         -0.19520       17.85980      -12.54710
H         -1.65570       17.81010      -11.52810
H         -1.80270       15.88830       -9.61230
H          2.24440       12.44670       -3.82690
H          1.14230        8.82960       -2.96090
H          0.99250       10.58520       -3.13320
H          2.11160        8.70880       -5.27940
H          1.89620       10.45640       -5.44720
H          0.48640        9.40360       -5.28270
H          6.92420       11.65340       -2.30550
H          6.22800       13.86880       -3.12340
H          7.03130        8.96100       -1.59070
H          6.51450        6.59870       -1.12280
H          2.47720        7.12720       -2.42550
H          5.36860        6.19130        0.78790
H          5.79020        4.56950        1.34800
H          3.43250        4.33910        2.25940
H          3.11110        5.99050        1.73900
H          4.31770        5.68360        2.99120
H          0.63920       -1.20180       -5.68250
H          1.05790        0.48830       -6.10310
H         -1.52090       -0.41610       -4.72020
H         -1.11540        1.25110       -5.15210
H         -1.39340        0.05170       -6.42150
H          0.04320       -3.22660        3.97970
H          0.94300       -1.71590        4.05310
H          2.28360       -3.39510        5.18540
H          2.06490       -4.54500        3.87060
H          3.07430       -3.12850        3.62290
H          1.33660        0.27520        3.13510
H          2.51000        1.32140        2.35050
H          3.76840        0.64680        4.20520
H          4.22110       -0.65590        3.10180
H          2.99200       -0.92520        4.32180
H          4.62470        0.81730        1.67740
H          4.98080        2.51100        2.07470
H          6.95790        1.34920        1.09890
H          6.41880        2.63230        0.00840
H          6.02270        0.95170       -0.34830
H          3.61070       -5.95270        2.72720
H          5.19840       -5.41720        0.94160
H          4.42750       -4.13520       -2.14740
H          4.64960       -5.84040       -2.52020
H          5.71350       -5.04920       -1.34950
H          2.05070       -5.61900       -1.92840
H          0.45840       -6.16250       -0.14900
H          0.24260       -6.12420        4.97990
H          0.72210       -7.73680        6.76510
H          2.32690       -9.55050        7.55730
H          2.96310      -10.69040        6.36040
H          1.23900      -10.66730        6.73710
H          2.97580      -10.10430        4.02680
H          2.48490       -8.50550        2.23180
H         -4.31610       -4.62710        4.46100
H         -4.79820       -2.21790        4.52520
H         -5.40420       -0.20810        2.17220
H         -6.19240       -0.36150        3.74130
H         -7.13760       -0.51270        2.25160
H         -6.95980       -2.55150        0.86330
H         -6.46650       -4.95690        0.78650
H         -7.62940       -6.17730        3.17390
H         -9.38530       -7.71860        2.42820
H         -9.99380       -9.39420        0.48920
H         -9.48460      -10.49900        1.75990
H         -8.77400      -10.63040        0.14800
H         -6.48680       -9.99180        0.27630
H         -4.73040       -8.44040        0.99480
H         -5.32740       -8.47000        3.98930
H         -1.31770      -13.14850        5.18580
H         -6.26460      -13.36710        6.24680
H         -4.89320      -16.51780        6.21310
H         -5.27860      -16.35030        8.66720
H         -4.37240      -14.01040        9.40220
H         -1.77000      -13.92430        8.87840
H         -1.07160      -16.21310        7.82200
H         -2.89680      -17.17490        9.48170
H         -3.19950      -17.86120        7.86570
H         -2.36480      -16.44360        5.70600
