
  xtb     02272200513D
 energy: -339.859439970316 gnorm: 0.000920092420 xtb: 6.4.1 (unknown)
216240  0     0  0            999 V2000
    3.8822   14.6086   -4.0315 C   0  0  0  0  0  0  0  0  0  0  0  0
    2.9220   15.0055   -4.9134 C   0  0  0  0  0  0  0  0  0  0  0  0
    2.1889   14.1601   -5.8912 C   0  0  0  0  0  0  0  0  0  0  0  0
    2.1966   12.9517   -6.0102 O   0  0  0  0  0  0  0  0  0  0  0  0
    1.4760   15.0979   -6.7782 C   0  0  0  0  0  0  0  0  0  0  0  0
    0.6686   14.7583   -7.8619 C   0  0  0  0  0  0  0  0  0  0  0  0
    0.1139   15.8370   -8.5059 C   0  0  0  0  0  0  0  0  0  0  0  0
    0.3490   17.1595   -8.1048 C   0  0  0  0  0  0  0  0  0  0  0  0
    1.1453   17.5079   -7.0406 C   0  0  0  0  0  0  0  0  0  0  0  0
    1.7182   16.4232   -6.3687 C   0  0  0  0  0  0  0  0  0  0  0  0
    2.5914   16.3938   -5.2004 C   0  0  0  0  0  0  0  0  0  0  0  0
    2.9593   17.4857   -4.4582 C   0  0  0  0  0  0  0  0  0  0  0  0
    2.6013   18.8161   -4.7617 C   0  0  0  0  0  0  0  0  0  0  0  0
    2.3651   19.9235   -4.9529 N   0  0  0  0  0  0  0  0  0  0  0  0
    3.7174   17.4573   -3.2680 C   0  0  0  0  0  0  0  0  0  0  0  0
    4.3003   17.5354   -2.2811 N   0  0  0  0  0  0  0  0  0  0  0  0
   -0.5169   17.7295   -9.2000 C   0  0  0  0  0  0  0  0  0  0  0  0
    0.1893   18.3421  -10.4345 C   0  0  0  0  0  0  0  0  0  0  0  0
    1.5258   17.6520  -10.5501 C   0  0  0  0  0  0  0  0  0  0  0  0
    1.3040   16.4006  -10.9293 C   0  0  0  0  0  0  0  0  0  0  0  0
   -0.1869   16.2218  -11.0773 C   0  0  0  0  0  0  0  0  0  0  0  0
   -0.5821   17.6280  -11.5559 C   0  0  0  0  0  0  0  0  0  0  0  0
   -0.7790   16.2566   -9.6466 C   0  0  0  0  0  0  0  0  0  0  0  0
    4.2092   13.2886   -3.5788 C   0  0  0  0  0  0  0  0  0  0  0  0
    3.2635   12.2607   -3.5387 C   0  0  0  0  0  0  0  0  0  0  0  0
    3.6623   11.0174   -3.0920 C   0  0  0  0  0  0  0  0  0  0  0  0
    2.9243    9.8654   -2.9789 N   0  0  0  0  0  0  0  0  0  0  0  0
    1.5708    9.7100   -3.4449 C   0  0  0  0  0  0  0  0  0  0  0  0
    1.5135    9.5608   -4.9641 C   0  0  0  0  0  0  0  0  0  0  0  0
    3.7419    8.8735   -2.5039 C   0  0  0  0  0  0  0  0  0  0  0  0
    5.0377    9.4023   -2.2626 C   0  0  0  0  0  0  0  0  0  0  0  0
    4.9898   10.7756   -2.6485 C   0  0  0  0  0  0  0  0  0  0  0  0
    5.9159   11.8176   -2.6541 C   0  0  0  0  0  0  0  0  0  0  0  0
    5.5208   13.0526   -3.1056 C   0  0  0  0  0  0  0  0  0  0  0  0
    6.0371    8.5747   -1.7577 C   0  0  0  0  0  0  0  0  0  0  0  0
    5.7406    7.2593   -1.4839 C   0  0  0  0  0  0  0  0  0  0  0  0
    4.4535    6.7381   -1.7070 C   0  0  0  0  0  0  0  0  0  0  0  0
    3.4547    7.5454   -2.2399 C   0  0  0  0  0  0  0  0  0  0  0  0
    4.1378    5.3491   -1.4121 C   0  0  0  0  0  0  0  0  0  0  0  0
    4.3921    4.6233   -0.2724 C   0  0  0  0  0  0  0  0  0  0  0  0
    4.9714    5.1964    0.9863 C   0  0  0  0  0  0  0  0  0  0  0  0
    3.8910    5.3059    2.0646 C   0  0  0  0  0  0  0  0  0  0  0  0
    3.8513    3.3199   -0.3862 C   0  0  0  0  0  0  0  0  0  0  0  0
    3.1969    3.0847   -1.5921 C   0  0  0  0  0  0  0  0  0  0  0  0
    3.2340    4.4522   -2.6270 S   0  0  0  0  0  0  0  0  0  0  0  0
    2.6593    1.7829   -1.5548 C   0  0  0  0  0  0  0  0  0  0  0  0
    1.9731    0.9823   -2.4875 C   0  0  0  0  0  0  0  0  0  0  0  0
    1.6262    1.1704   -3.7629 N   0  0  0  0  0  0  0  0  0  0  0  0
    1.0562    0.0418   -4.1080 N   0  0  0  0  0  0  0  0  0  0  0  0
    0.5014   -0.1518   -5.4159 C   0  0  0  0  0  0  0  0  0  0  0  0
   -0.9816    0.2081   -5.4285 C   0  0  0  0  0  0  0  0  0  0  0  0
    0.9780   -0.8845   -3.1837 N   0  0  0  0  0  0  0  0  0  0  0  0
    1.5565   -0.3287   -2.1170 C   0  0  0  0  0  0  0  0  0  0  0  0
    1.7139   -0.7592   -0.7849 C   0  0  0  0  0  0  0  0  0  0  0  0
    1.1762   -1.8311   -0.0554 C   0  0  0  0  0  0  0  0  0  0  0  0
    0.1577   -3.1767   -0.3422 S   0  0  0  0  0  0  0  0  0  0  0  0
    0.1597   -3.5242    1.3806 C   0  0  0  0  0  0  0  0  0  0  0  0
    0.8824   -2.6267    2.1296 C   0  0  0  0  0  0  0  0  0  0  0  0
    0.9437   -2.7190    3.6255 C   0  0  0  0  0  0  0  0  0  0  0  0
    2.1719   -3.4928    4.1072 C   0  0  0  0  0  0  0  0  0  0  0  0
    1.4772   -1.6457    1.2948 C   0  0  0  0  0  0  0  0  0  0  0  0
    2.2300   -0.4910    1.4265 N   0  0  0  0  0  0  0  0  0  0  0  0
    2.3161    0.2885    2.6446 C   0  0  0  0  0  0  0  0  0  0  0  0
    3.3896   -0.1931    3.6283 C   0  0  0  0  0  0  0  0  0  0  0  0
    2.3783    0.0593    0.1583 C   0  0  0  0  0  0  0  0  0  0  0  0
    2.9659    1.2726   -0.2718 C   0  0  0  0  0  0  0  0  0  0  0  0
    3.7411    2.2016    0.4252 N   0  0  0  0  0  0  0  0  0  0  0  0
    4.8540    1.7931    1.2595 C   0  0  0  0  0  0  0  0  0  0  0  0
    6.1478    1.6778    0.4525 C   0  0  0  0  0  0  0  0  0  0  0  0
   -0.6666   -4.6066    1.8668 C   0  0  0  0  0  0  0  0  0  0  0  0
   -0.2998   -5.8383    2.3711 C   0  0  0  0  0  0  0  0  0  0  0  0
    0.9993   -6.3128    2.4515 N   0  0  0  0  0  0  0  0  0  0  0  0
    1.9144   -6.0531    1.4197 C   0  0  0  0  0  0  0  0  0  0  0  0
    3.2635   -5.8653    1.7080 C   0  0  0  0  0  0  0  0  0  0  0  0
    4.1568   -5.5706    0.6965 C   0  0  0  0  0  0  0  0  0  0  0  0
    3.7379   -5.4587   -0.6225 C   0  0  0  0  0  0  0  0  0  0  0  0
    4.6929   -5.1023   -1.7206 C   0  0  0  0  0  0  0  0  0  0  0  0
    2.3964   -5.6838   -0.9071 C   0  0  0  0  0  0  0  0  0  0  0  0
    1.4951   -5.9823    0.0938 C   0  0  0  0  0  0  0  0  0  0  0  0
    1.3216   -7.2128    3.4803 C   0  0  0  0  0  0  0  0  0  0  0  0
    0.8397   -7.0002    4.7703 C   0  0  0  0  0  0  0  0  0  0  0  0
    1.1131   -7.9084    5.7725 C   0  0  0  0  0  0  0  0  0  0  0  0
    1.8779   -9.0410    5.5241 C   0  0  0  0  0  0  0  0  0  0  0  0
    2.1246  -10.0443    6.6086 C   0  0  0  0  0  0  0  0  0  0  0  0
    2.3776   -9.2307    4.2422 C   0  0  0  0  0  0  0  0  0  0  0  0
    2.1056   -8.3342    3.2285 C   0  0  0  0  0  0  0  0  0  0  0  0
   -1.4353   -6.5914    2.7719 C   0  0  0  0  0  0  0  0  0  0  0  0
   -1.6398   -8.1744    3.4323 S   0  0  0  0  0  0  0  0  0  0  0  0
   -3.3940   -7.9634    3.4136 C   0  0  0  0  0  0  0  0  0  0  0  0
   -3.7737   -6.7278    2.8295 C   0  0  0  0  0  0  0  0  0  0  0  0
   -5.0577   -6.3243    2.5780 N   0  0  0  0  0  0  0  0  0  0  0  0
   -5.3494   -4.9468    2.6132 C   0  0  0  0  0  0  0  0  0  0  0  0
   -4.8859   -4.1655    3.6678 C   0  0  0  0  0  0  0  0  0  0  0  0
   -5.1628   -2.8136    3.7010 C   0  0  0  0  0  0  0  0  0  0  0  0
   -5.9092   -2.2103    2.6961 C   0  0  0  0  0  0  0  0  0  0  0  0
   -6.1831   -0.7383    2.7213 C   0  0  0  0  0  0  0  0  0  0  0  0
   -6.3776   -3.0022    1.6538 C   0  0  0  0  0  0  0  0  0  0  0  0
   -6.1039   -4.3540    1.6057 C   0  0  0  0  0  0  0  0  0  0  0  0
   -6.0595   -7.2139    2.1480 C   0  0  0  0  0  0  0  0  0  0  0  0
   -7.3820   -7.0094    2.5340 C   0  0  0  0  0  0  0  0  0  0  0  0
   -8.3660   -7.8806    2.1117 C   0  0  0  0  0  0  0  0  0  0  0  0
   -8.0631   -8.9745    1.3095 C   0  0  0  0  0  0  0  0  0  0  0  0
   -9.1387   -9.9310    0.8961 C   0  0  0  0  0  0  0  0  0  0  0  0
   -6.7430   -9.1586    0.9150 C   0  0  0  0  0  0  0  0  0  0  0  0
   -5.7501   -8.2879    1.3169 C   0  0  0  0  0  0  0  0  0  0  0  0
   -2.6423   -5.9539    2.5192 C   0  0  0  0  0  0  0  0  0  0  0  0
   -2.4119   -4.3967    1.7940 S   0  0  0  0  0  0  0  0  0  0  0  0
   -4.3079   -8.8335    4.0029 C   0  0  0  0  0  0  0  0  0  0  0  0
   -4.1253  -10.0655    4.5898 C   0  0  0  0  0  0  0  0  0  0  0  0
   -2.8784  -10.8305    4.6397 C   0  0  0  0  0  0  0  0  0  0  0  0
   -1.7673  -10.4770    4.2813 O   0  0  0  0  0  0  0  0  0  0  0  0
   -3.2266  -12.1490    5.2035 C   0  0  0  0  0  0  0  0  0  0  0  0
   -2.3675  -13.2216    5.4241 C   0  0  0  0  0  0  0  0  0  0  0  0
   -2.9826  -14.3310    5.9540 C   0  0  0  0  0  0  0  0  0  0  0  0
   -4.3533  -14.3717    6.2363 C   0  0  0  0  0  0  0  0  0  0  0  0
   -5.2119  -13.3185    6.0243 C   0  0  0  0  0  0  0  0  0  0  0  0
   -4.6051  -12.1783    5.4927 C   0  0  0  0  0  0  0  0  0  0  0  0
   -5.1764  -10.8730    5.1589 C   0  0  0  0  0  0  0  0  0  0  0  0
   -6.4785  -10.4961    5.3908 C   0  0  0  0  0  0  0  0  0  0  0  0
   -7.4825  -11.3510    5.8854 C   0  0  0  0  0  0  0  0  0  0  0  0
   -8.3599  -11.9882    6.2661 N   0  0  0  0  0  0  0  0  0  0  0  0
   -7.0012   -9.2011    5.2144 C   0  0  0  0  0  0  0  0  0  0  0  0
   -7.5059   -8.1700    5.1404 N   0  0  0  0  0  0  0  0  0  0  0  0
   -4.2879  -15.7890    6.7486 C   0  0  0  0  0  0  0  0  0  0  0  0
   -4.3232  -16.0046    8.2816 C   0  0  0  0  0  0  0  0  0  0  0  0
   -3.7699  -14.7465    8.9030 C   0  0  0  0  0  0  0  0  0  0  0  0
   -2.4704  -14.7039    8.6413 C   0  0  0  0  0  0  0  0  0  0  0  0
   -2.1216  -15.9325    7.8382 C   0  0  0  0  0  0  0  0  0  0  0  0
   -3.1139  -16.9400    8.4406 C   0  0  0  0  0  0  0  0  0  0  0  0
   -2.7584  -15.7417    6.4391 C   0  0  0  0  0  0  0  0  0  0  0  0
    4.5174   15.3854   -3.6211 H   0  0  0  0  0  0  0  0  0  0  0  0
    0.5139   13.7257   -8.1341 H   0  0  0  0  0  0  0  0  0  0  0  0
    1.3177   18.5300   -6.7482 H   0  0  0  0  0  0  0  0  0  0  0  0
   -1.3688   18.3225   -8.8730 H   0  0  0  0  0  0  0  0  0  0  0  0
    0.2069   19.4285  -10.4511 H   0  0  0  0  0  0  0  0  0  0  0  0
    2.4619   18.1139  -10.2962 H   0  0  0  0  0  0  0  0  0  0  0  0
    2.0178   15.6077  -11.0553 H   0  0  0  0  0  0  0  0  0  0  0  0
   -0.5118   15.3779  -11.6804 H   0  0  0  0  0  0  0  0  0  0  0  0
   -0.1952   17.8598  -12.5471 H   0  0  0  0  0  0  0  0  0  0  0  0
   -1.6557   17.8101  -11.5281 H   0  0  0  0  0  0  0  0  0  0  0  0
   -1.8027   15.8883   -9.6123 H   0  0  0  0  0  0  0  0  0  0  0  0
    2.2444   12.4467   -3.8269 H   0  0  0  0  0  0  0  0  0  0  0  0
    1.1423    8.8296   -2.9609 H   0  0  0  0  0  0  0  0  0  0  0  0
    0.9925   10.5852   -3.1332 H   0  0  0  0  0  0  0  0  0  0  0  0
    2.1116    8.7088   -5.2794 H   0  0  0  0  0  0  0  0  0  0  0  0
    1.8962   10.4564   -5.4472 H   0  0  0  0  0  0  0  0  0  0  0  0
    0.4864    9.4036   -5.2827 H   0  0  0  0  0  0  0  0  0  0  0  0
    6.9242   11.6534   -2.3055 H   0  0  0  0  0  0  0  0  0  0  0  0
    6.2280   13.8688   -3.1234 H   0  0  0  0  0  0  0  0  0  0  0  0
    7.0313    8.9610   -1.5907 H   0  0  0  0  0  0  0  0  0  0  0  0
    6.5145    6.5987   -1.1228 H   0  0  0  0  0  0  0  0  0  0  0  0
    2.4772    7.1272   -2.4255 H   0  0  0  0  0  0  0  0  0  0  0  0
    5.3686    6.1913    0.7879 H   0  0  0  0  0  0  0  0  0  0  0  0
    5.7902    4.5695    1.3480 H   0  0  0  0  0  0  0  0  0  0  0  0
    3.4325    4.3391    2.2594 H   0  0  0  0  0  0  0  0  0  0  0  0
    3.1111    5.9905    1.7390 H   0  0  0  0  0  0  0  0  0  0  0  0
    4.3177    5.6836    2.9912 H   0  0  0  0  0  0  0  0  0  0  0  0
    0.6392   -1.2018   -5.6825 H   0  0  0  0  0  0  0  0  0  0  0  0
    1.0579    0.4883   -6.1031 H   0  0  0  0  0  0  0  0  0  0  0  0
   -1.5209   -0.4161   -4.7202 H   0  0  0  0  0  0  0  0  0  0  0  0
   -1.1154    1.2511   -5.1521 H   0  0  0  0  0  0  0  0  0  0  0  0
   -1.3934    0.0517   -6.4215 H   0  0  0  0  0  0  0  0  0  0  0  0
    0.0432   -3.2266    3.9797 H   0  0  0  0  0  0  0  0  0  0  0  0
    0.9430   -1.7159    4.0531 H   0  0  0  0  0  0  0  0  0  0  0  0
    2.2836   -3.3951    5.1854 H   0  0  0  0  0  0  0  0  0  0  0  0
    2.0649   -4.5450    3.8706 H   0  0  0  0  0  0  0  0  0  0  0  0
    3.0743   -3.1285    3.6229 H   0  0  0  0  0  0  0  0  0  0  0  0
    1.3366    0.2752    3.1351 H   0  0  0  0  0  0  0  0  0  0  0  0
    2.5100    1.3214    2.3505 H   0  0  0  0  0  0  0  0  0  0  0  0
    3.7684    0.6468    4.2052 H   0  0  0  0  0  0  0  0  0  0  0  0
    4.2211   -0.6559    3.1018 H   0  0  0  0  0  0  0  0  0  0  0  0
    2.9920   -0.9252    4.3218 H   0  0  0  0  0  0  0  0  0  0  0  0
    4.6247    0.8173    1.6774 H   0  0  0  0  0  0  0  0  0  0  0  0
    4.9808    2.5110    2.0747 H   0  0  0  0  0  0  0  0  0  0  0  0
    6.9579    1.3492    1.0989 H   0  0  0  0  0  0  0  0  0  0  0  0
    6.4188    2.6323    0.0084 H   0  0  0  0  0  0  0  0  0  0  0  0
    6.0227    0.9517   -0.3483 H   0  0  0  0  0  0  0  0  0  0  0  0
    3.6107   -5.9527    2.7272 H   0  0  0  0  0  0  0  0  0  0  0  0
    5.1984   -5.4172    0.9416 H   0  0  0  0  0  0  0  0  0  0  0  0
    4.4275   -4.1352   -2.1474 H   0  0  0  0  0  0  0  0  0  0  0  0
    4.6496   -5.8404   -2.5202 H   0  0  0  0  0  0  0  0  0  0  0  0
    5.7135   -5.0492   -1.3495 H   0  0  0  0  0  0  0  0  0  0  0  0
    2.0507   -5.6190   -1.9284 H   0  0  0  0  0  0  0  0  0  0  0  0
    0.4584   -6.1625   -0.1490 H   0  0  0  0  0  0  0  0  0  0  0  0
    0.2426   -6.1242    4.9799 H   0  0  0  0  0  0  0  0  0  0  0  0
    0.7221   -7.7368    6.7651 H   0  0  0  0  0  0  0  0  0  0  0  0
    2.3269   -9.5505    7.5573 H   0  0  0  0  0  0  0  0  0  0  0  0
    2.9631  -10.6904    6.3604 H   0  0  0  0  0  0  0  0  0  0  0  0
    1.2390  -10.6673    6.7371 H   0  0  0  0  0  0  0  0  0  0  0  0
    2.9758  -10.1043    4.0268 H   0  0  0  0  0  0  0  0  0  0  0  0
    2.4849   -8.5055    2.2318 H   0  0  0  0  0  0  0  0  0  0  0  0
   -4.3161   -4.6271    4.4610 H   0  0  0  0  0  0  0  0  0  0  0  0
   -4.7982   -2.2179    4.5252 H   0  0  0  0  0  0  0  0  0  0  0  0
   -5.4042   -0.2081    2.1722 H   0  0  0  0  0  0  0  0  0  0  0  0
   -6.1924   -0.3615    3.7413 H   0  0  0  0  0  0  0  0  0  0  0  0
   -7.1376   -0.5127    2.2516 H   0  0  0  0  0  0  0  0  0  0  0  0
   -6.9598   -2.5515    0.8633 H   0  0  0  0  0  0  0  0  0  0  0  0
   -6.4665   -4.9569    0.7865 H   0  0  0  0  0  0  0  0  0  0  0  0
   -7.6294   -6.1773    3.1739 H   0  0  0  0  0  0  0  0  0  0  0  0
   -9.3853   -7.7186    2.4282 H   0  0  0  0  0  0  0  0  0  0  0  0
   -9.9938   -9.3942    0.4892 H   0  0  0  0  0  0  0  0  0  0  0  0
   -9.4846  -10.4990    1.7599 H   0  0  0  0  0  0  0  0  0  0  0  0
   -8.7740  -10.6304    0.1480 H   0  0  0  0  0  0  0  0  0  0  0  0
   -6.4868   -9.9918    0.2763 H   0  0  0  0  0  0  0  0  0  0  0  0
   -4.7304   -8.4404    0.9948 H   0  0  0  0  0  0  0  0  0  0  0  0
   -5.3274   -8.4700    3.9893 H   0  0  0  0  0  0  0  0  0  0  0  0
   -1.3177  -13.1485    5.1858 H   0  0  0  0  0  0  0  0  0  0  0  0
   -6.2646  -13.3671    6.2468 H   0  0  0  0  0  0  0  0  0  0  0  0
   -4.8932  -16.5178    6.2131 H   0  0  0  0  0  0  0  0  0  0  0  0
   -5.2786  -16.3503    8.6672 H   0  0  0  0  0  0  0  0  0  0  0  0
   -4.3724  -14.0104    9.4022 H   0  0  0  0  0  0  0  0  0  0  0  0
   -1.7700  -13.9243    8.8784 H   0  0  0  0  0  0  0  0  0  0  0  0
   -1.0716  -16.2131    7.8220 H   0  0  0  0  0  0  0  0  0  0  0  0
   -2.8968  -17.1749    9.4817 H   0  0  0  0  0  0  0  0  0  0  0  0
   -3.1995  -17.8612    7.8657 H   0  0  0  0  0  0  0  0  0  0  0  0
   -2.3648  -16.4436    5.7060 H   0  0  0  0  0  0  0  0  0  0  0  0
  1  2  2  0  0  0  0
  2  3  1  0  0  0  0
  3  4  2  0  0  0  0
  3  5  1  0  0  0  0
  5  6  2  0  0  0  0
  6  7  1  0  0  0  0
  7  8  2  0  0  0  0
  8  9  1  0  0  0  0
  9 10  2  0  0  0  0
 10 11  1  0  0  0  0
 11 12  2  0  0  0  0
 12 13  1  0  0  0  0
 13 14  3  0  0  0  0
 12 15  1  0  0  0  0
 15 16  3  0  0  0  0
  8 17  1  0  0  0  0
 17 18  1  0  0  0  0
 18 19  1  0  0  0  0
 19 20  2  0  0  0  0
 20 21  1  0  0  0  0
 21 22  1  0  0  0  0
 21 23  1  0  0  0  0
  1 24  1  0  0  0  0
 24 25  2  0  0  0  0
 25 26  1  0  0  0  0
 26 27  1  0  0  0  0
 27 28  1  0  0  0  0
 28 29  1  0  0  0  0
 27 30  1  0  0  0  0
 30 31  2  0  0  0  0
 31 32  1  0  0  0  0
 32 33  1  0  0  0  0
 33 34  2  0  0  0  0
 31 35  1  0  0  0  0
 35 36  2  0  0  0  0
 36 37  1  0  0  0  0
 37 38  2  0  0  0  0
 37 39  1  0  0  0  0
 39 40  2  0  0  0  0
 40 41  1  0  0  0  0
 41 42  1  0  0  0  0
 40 43  1  0  0  0  0
 43 44  2  0  0  0  0
 44 45  1  0  0  0  0
 44 46  1  0  0  0  0
 46 47  1  0  0  0  0
 47 48  2  0  0  0  0
 48 49  1  0  0  0  0
 49 50  1  0  0  0  0
 50 51  1  0  0  0  0
 49 52  1  0  0  0  0
 52 53  2  0  0  0  0
 53 54  1  0  0  0  0
 54 55  1  0  0  0  0
 55 56  1  0  0  0  0
 56 57  1  0  0  0  0
 57 58  2  0  0  0  0
 58 59  1  0  0  0  0
 59 60  1  0  0  0  0
 58 61  1  0  0  0  0
 61 62  1  0  0  0  0
 62 63  1  0  0  0  0
 63 64  1  0  0  0  0
 62 65  1  0  0  0  0
 65 66  1  0  0  0  0
 66 67  1  0  0  0  0
 67 68  1  0  0  0  0
 68 69  1  0  0  0  0
 57 70  1  0  0  0  0
 70 71  2  0  0  0  0
 71 72  1  0  0  0  0
 72 73  1  0  0  0  0
 73 74  2  0  0  0  0
 74 75  1  0  0  0  0
 75 76  2  0  0  0  0
 76 77  1  0  0  0  0
 76 78  1  0  0  0  0
 78 79  2  0  0  0  0
 72 80  1  0  0  0  0
 80 81  2  0  0  0  0
 81 82  1  0  0  0  0
 82 83  2  0  0  0  0
 83 84  1  0  0  0  0
 83 85  1  0  0  0  0
 85 86  2  0  0  0  0
 71 87  1  0  0  0  0
 87 88  1  0  0  0  0
 88 89  1  0  0  0  0
 89 90  2  0  0  0  0
 90 91  1  0  0  0  0
 91 92  1  0  0  0  0
 92 93  2  0  0  0  0
 93 94  1  0  0  0  0
 94 95  2  0  0  0  0
 95 96  1  0  0  0  0
 95 97  1  0  0  0  0
 97 98  2  0  0  0  0
 91 99  1  0  0  0  0
 99100  2  0  0  0  0
100101  1  0  0  0  0
101102  2  0  0  0  0
102103  1  0  0  0  0
102104  1  0  0  0  0
104105  2  0  0  0  0
 90106  1  0  0  0  0
106107  1  0  0  0  0
 89108  1  0  0  0  0
108109  2  0  0  0  0
109110  1  0  0  0  0
110111  2  0  0  0  0
110112  1  0  0  0  0
112113  2  0  0  0  0
113114  1  0  0  0  0
114115  2  0  0  0  0
115116  1  0  0  0  0
116117  2  0  0  0  0
117118  1  0  0  0  0
118119  2  0  0  0  0
119120  1  0  0  0  0
120121  3  0  0  0  0
119122  1  0  0  0  0
122123  3  0  0  0  0
115124  1  0  0  0  0
124125  1  0  0  0  0
125126  1  0  0  0  0
126127  2  0  0  0  0
127128  1  0  0  0  0
128129  1  0  0  0  0
128130  1  0  0  0  0
 11  2  1  0  0  0  0
 23 17  1  0  0  0  0
 34 24  1  0  0  0  0
 45 39  1  0  0  0  0
 66 46  2  0  0  0  0
107 70  1  0  0  0  0
118109  1  0  0  0  0
130124  1  0  0  0  0
 10  5  1  0  0  0  0
 22 18  1  0  0  0  0
 32 26  2  0  0  0  0
 67 43  1  0  0  0  0
 79 73  1  0  0  0  0
 86 80  1  0  0  0  0
106 87  2  0  0  0  0
117112  1  0  0  0  0
129125  1  0  0  0  0
 23  7  1  0  0  0  0
 38 30  1  0  0  0  0
 53 47  1  0  0  0  0
 65 54  2  0  0  0  0
 98 92  1  0  0  0  0
105 99  1  0  0  0  0
130114  1  0  0  0  0
 61 55  2  0  0  0  0
  1131  1  0  0  0  0
  6132  1  0  0  0  0
  9133  1  0  0  0  0
 17134  1  0  0  0  0
 18135  1  0  0  0  0
 19136  1  0  0  0  0
 20137  1  0  0  0  0
 21138  1  0  0  0  0
 22139  1  0  0  0  0
 22140  1  0  0  0  0
 23141  1  0  0  0  0
 25142  1  0  0  0  0
 28143  1  0  0  0  0
 28144  1  0  0  0  0
 29145  1  0  0  0  0
 29146  1  0  0  0  0
 29147  1  0  0  0  0
 33148  1  0  0  0  0
 34149  1  0  0  0  0
 35150  1  0  0  0  0
 36151  1  0  0  0  0
 38152  1  0  0  0  0
 41153  1  0  0  0  0
 41154  1  0  0  0  0
 42155  1  0  0  0  0
 42156  1  0  0  0  0
 42157  1  0  0  0  0
 50158  1  0  0  0  0
 50159  1  0  0  0  0
 51160  1  0  0  0  0
 51161  1  0  0  0  0
 51162  1  0  0  0  0
 59163  1  0  0  0  0
 59164  1  0  0  0  0
 60165  1  0  0  0  0
 60166  1  0  0  0  0
 60167  1  0  0  0  0
 63168  1  0  0  0  0
 63169  1  0  0  0  0
 64170  1  0  0  0  0
 64171  1  0  0  0  0
 64172  1  0  0  0  0
 68173  1  0  0  0  0
 68174  1  0  0  0  0
 69175  1  0  0  0  0
 69176  1  0  0  0  0
 69177  1  0  0  0  0
 74178  1  0  0  0  0
 75179  1  0  0  0  0
 77180  1  0  0  0  0
 77181  1  0  0  0  0
 77182  1  0  0  0  0
 78183  1  0  0  0  0
 79184  1  0  0  0  0
 81185  1  0  0  0  0
 82186  1  0  0  0  0
 84187  1  0  0  0  0
 84188  1  0  0  0  0
 84189  1  0  0  0  0
 85190  1  0  0  0  0
 86191  1  0  0  0  0
 93192  1  0  0  0  0
 94193  1  0  0  0  0
 96194  1  0  0  0  0
 96195  1  0  0  0  0
 96196  1  0  0  0  0
 97197  1  0  0  0  0
 98198  1  0  0  0  0
100199  1  0  0  0  0
101200  1  0  0  0  0
103201  1  0  0  0  0
103202  1  0  0  0  0
103203  1  0  0  0  0
104204  1  0  0  0  0
105205  1  0  0  0  0
108206  1  0  0  0  0
113207  1  0  0  0  0
116208  1  0  0  0  0
124209  1  0  0  0  0
125210  1  0  0  0  0
126211  1  0  0  0  0
127212  1  0  0  0  0
128213  1  0  0  0  0
129214  1  0  0  0  0
129215  1  0  0  0  0
130216  1  0  0  0  0
M  END
