
  xtb     02242213423D
 energy: -309.545295187813 gnorm: 0.000419284875 xtb: 6.4.1 (unknown)
185207  0     0  0            999 V2000
   -7.6661    9.2143    0.5401 C   0  0  0  0  0  0  0  0  0  0  0  0
   -8.5375    8.4870    1.2854 C   0  0  0  0  0  0  0  0  0  0  0  0
   -8.1971    7.2849    2.0944 C   0  0  0  0  0  0  0  0  0  0  0  0
   -7.0981    6.8990    2.4289 O   0  0  0  0  0  0  0  0  0  0  0  0
   -9.4878    6.7281    2.5407 C   0  0  0  0  0  0  0  0  0  0  0  0
   -9.6903    5.5358    3.2317 C   0  0  0  0  0  0  0  0  0  0  0  0
  -11.0077    5.2651    3.5105 C   0  0  0  0  0  0  0  0  0  0  0  0
  -12.0512    6.1225    3.1350 C   0  0  0  0  0  0  0  0  0  0  0  0
  -11.8653    7.3075    2.4652 C   0  0  0  0  0  0  0  0  0  0  0  0
  -10.5296    7.6023    2.1717 C   0  0  0  0  0  0  0  0  0  0  0  0
   -9.9557    8.7505    1.4748 C   0  0  0  0  0  0  0  0  0  0  0  0
  -10.6470    9.8627    1.0738 C   0  0  0  0  0  0  0  0  0  0  0  0
  -10.0927   10.9794    0.4129 C   0  0  0  0  0  0  0  0  0  0  0  0
   -9.7267   11.9255   -0.1258 N   0  0  0  0  0  0  0  0  0  0  0  0
  -12.0248   10.0708    1.2966 C   0  0  0  0  0  0  0  0  0  0  0  0
  -13.1372   10.3126    1.4464 N   0  0  0  0  0  0  0  0  0  0  0  0
  -13.1073    5.2310    3.7392 C   0  0  0  0  0  0  0  0  0  0  0  0
  -13.7147    5.6531    5.0995 C   0  0  0  0  0  0  0  0  0  0  0  0
  -12.6675    6.4866    5.7956 C   0  0  0  0  0  0  0  0  0  0  0  0
  -11.6787    5.6782    6.1532 C   0  0  0  0  0  0  0  0  0  0  0  0
  -12.0396    4.2832    5.7055 C   0  0  0  0  0  0  0  0  0  0  0  0
  -13.5668    4.3322    5.8714 C   0  0  0  0  0  0  0  0  0  0  0  0
  -11.9446    4.2775    4.1595 C   0  0  0  0  0  0  0  0  0  0  0  0
   -6.3507    8.7910    0.1583 C   0  0  0  0  0  0  0  0  0  0  0  0
   -6.0292    7.4386   -0.0957 C   0  0  0  0  0  0  0  0  0  0  0  0
   -6.7854    6.3339   -0.1162 N   0  0  0  0  0  0  0  0  0  0  0  0
   -5.9550    5.3799   -0.4248 N   0  0  0  0  0  0  0  0  0  0  0  0
   -6.3739    4.0089   -0.4345 C   0  0  0  0  0  0  0  0  0  0  0  0
   -6.2894    3.4412    0.9796 C   0  0  0  0  0  0  0  0  0  0  0  0
   -4.7164    5.7209   -0.6356 N   0  0  0  0  0  0  0  0  0  0  0  0
   -4.7061    7.0483   -0.4461 C   0  0  0  0  0  0  0  0  0  0  0  0
   -3.6506    7.9754   -0.6018 C   0  0  0  0  0  0  0  0  0  0  0  0
   -4.0252    9.2962   -0.3748 C   0  0  0  0  0  0  0  0  0  0  0  0
   -5.3145    9.6966   -0.0347 C   0  0  0  0  0  0  0  0  0  0  0  0
   -3.0888   10.2661   -0.4323 F   0  0  0  0  0  0  0  0  0  0  0  0
   -2.3316    7.5100   -0.9248 C   0  0  0  0  0  0  0  0  0  0  0  0
   -1.3384    8.0842   -1.6973 C   0  0  0  0  0  0  0  0  0  0  0  0
   -1.4803    9.2928   -2.5076 C   0  0  0  0  0  0  0  0  0  0  0  0
   -2.6388    9.5245   -3.2455 C   0  0  0  0  0  0  0  0  0  0  0  0
   -2.7390   10.6555   -4.0312 C   0  0  0  0  0  0  0  0  0  0  0  0
   -1.6899   11.5565   -4.0964 C   0  0  0  0  0  0  0  0  0  0  0  0
   -0.5245   11.3364   -3.3743 C   0  0  0  0  0  0  0  0  0  0  0  0
    0.6426   12.2748   -3.4800 C   0  0  0  0  0  0  0  0  0  0  0  0
    1.6525   11.7494   -4.5022 C   0  0  0  0  0  0  0  0  0  0  0  0
   -0.4301   10.2000   -2.5860 C   0  0  0  0  0  0  0  0  0  0  0  0
   -0.1809    7.2778   -1.7129 C   0  0  0  0  0  0  0  0  0  0  0  0
    1.3499    7.4091   -2.5510 S   0  0  0  0  0  0  0  0  0  0  0  0
    1.8153    5.8704   -1.9037 C   0  0  0  0  0  0  0  0  0  0  0  0
    2.8657    4.9412   -1.9956 C   0  0  0  0  0  0  0  0  0  0  0  0
    4.0116    4.9061   -2.8206 C   0  0  0  0  0  0  0  0  0  0  0  0
    4.7998    3.7056   -2.8658 C   0  0  0  0  0  0  0  0  0  0  0  0
    5.7920    3.7856   -3.7383 N   0  0  0  0  0  0  0  0  0  0  0  0
    5.7464    5.2467   -4.4358 S   0  0  0  0  0  0  0  0  0  0  0  0
    4.4535    5.8328   -3.6557 N   0  0  0  0  0  0  0  0  0  0  0  0
    4.4824    2.6431   -1.9915 C   0  0  0  0  0  0  0  0  0  0  0  0
    5.0974    1.3986   -1.7686 C   0  0  0  0  0  0  0  0  0  0  0  0
    6.3549    0.4060   -2.4303 S   0  0  0  0  0  0  0  0  0  0  0  0
    5.9672   -0.8336   -1.2577 C   0  0  0  0  0  0  0  0  0  0  0  0
    6.4676   -2.1340   -1.0227 C   0  0  0  0  0  0  0  0  0  0  0  0
    7.5913   -2.7212   -1.7545 C   0  0  0  0  0  0  0  0  0  0  0  0
    8.6013   -3.3948   -1.0710 C   0  0  0  0  0  0  0  0  0  0  0  0
    9.6751   -3.9163   -1.7667 C   0  0  0  0  0  0  0  0  0  0  0  0
    9.7512   -3.7763   -3.1422 C   0  0  0  0  0  0  0  0  0  0  0  0
    8.7534   -3.1069   -3.8394 C   0  0  0  0  0  0  0  0  0  0  0  0
    8.8075   -2.9980   -5.3360 C   0  0  0  0  0  0  0  0  0  0  0  0
    8.2014   -4.2453   -5.9826 C   0  0  0  0  0  0  0  0  0  0  0  0
    7.6803   -2.5814   -3.1355 C   0  0  0  0  0  0  0  0  0  0  0  0
    5.8109   -2.7410    0.0276 C   0  0  0  0  0  0  0  0  0  0  0  0
    4.6172   -1.7018    0.7727 S   0  0  0  0  0  0  0  0  0  0  0  0
    4.9428   -0.4640   -0.3878 C   0  0  0  0  0  0  0  0  0  0  0  0
    4.4351    0.8062   -0.6930 C   0  0  0  0  0  0  0  0  0  0  0  0
    3.4191    1.6132   -0.2587 N   0  0  0  0  0  0  0  0  0  0  0  0
    3.4073    2.7408   -1.0646 C   0  0  0  0  0  0  0  0  0  0  0  0
    2.5179    3.8421   -1.1609 C   0  0  0  0  0  0  0  0  0  0  0  0
    1.2755    4.0920   -0.6044 N   0  0  0  0  0  0  0  0  0  0  0  0
    0.8484    5.3056   -1.0698 C   0  0  0  0  0  0  0  0  0  0  0  0
   -0.2996    6.1010   -0.9713 C   0  0  0  0  0  0  0  0  0  0  0  0
   -1.8588    5.9635   -0.2457 S   0  0  0  0  0  0  0  0  0  0  0  0
    0.3281    3.1852    0.0018 C   0  0  0  0  0  0  0  0  0  0  0  0
   -0.0065    2.0180   -0.9234 C   0  0  0  0  0  0  0  0  0  0  0  0
    2.8611    1.4100    1.0601 C   0  0  0  0  0  0  0  0  0  0  0  0
    3.2097    2.5588    2.0025 C   0  0  0  0  0  0  0  0  0  0  0  0
    5.8621   -4.1254    0.4458 C   0  0  0  0  0  0  0  0  0  0  0  0
    5.9830   -5.1320   -0.5076 C   0  0  0  0  0  0  0  0  0  0  0  0
    5.8879   -6.4724   -0.1664 C   0  0  0  0  0  0  0  0  0  0  0  0
    6.0473   -7.5060   -1.0187 O   0  0  0  0  0  0  0  0  0  0  0  0
    6.2230   -7.2701   -2.4020 C   0  0  0  0  0  0  0  0  0  0  0  0
    7.6625   -6.9163   -2.7616 C   0  0  0  0  0  0  0  0  0  0  0  0
    5.6519   -6.8075    1.1852 C   0  0  0  0  0  0  0  0  0  0  0  0
    5.6424   -5.7998    2.1549 C   0  0  0  0  0  0  0  0  0  0  0  0
    5.7131   -4.4664    1.8076 C   0  0  0  0  0  0  0  0  0  0  0  0
    5.6288   -3.4130    2.6674 O   0  0  0  0  0  0  0  0  0  0  0  0
    5.5916   -3.6365    4.0617 C   0  0  0  0  0  0  0  0  0  0  0  0
    6.9576   -4.0055    4.6320 C   0  0  0  0  0  0  0  0  0  0  0  0
    5.4003   -8.1626    1.6030 C   0  0  0  0  0  0  0  0  0  0  0  0
    4.5547   -9.0243    0.9837 C   0  0  0  0  0  0  0  0  0  0  0  0
    3.5397   -8.6263   -0.0282 C   0  0  0  0  0  0  0  0  0  0  0  0
    3.4016   -7.5527   -0.5727 O   0  0  0  0  0  0  0  0  0  0  0  0
    2.6365   -9.7866   -0.1574 C   0  0  0  0  0  0  0  0  0  0  0  0
    1.4803   -9.8551   -0.9327 C   0  0  0  0  0  0  0  0  0  0  0  0
    0.8064  -11.0477   -0.8302 C   0  0  0  0  0  0  0  0  0  0  0  0
    1.2449  -12.0969   -0.0107 C   0  0  0  0  0  0  0  0  0  0  0  0
    2.3795  -12.0416    0.7627 C   0  0  0  0  0  0  0  0  0  0  0  0
    3.0839  -10.8360    0.6695 C   0  0  0  0  0  0  0  0  0  0  0  0
    4.3010  -10.4060    1.3498 C   0  0  0  0  0  0  0  0  0  0  0  0
    5.0998  -11.1888    2.1411 C   0  0  0  0  0  0  0  0  0  0  0  0
    6.3045  -10.7616    2.7386 C   0  0  0  0  0  0  0  0  0  0  0  0
    7.2968  -10.4950    3.2516 N   0  0  0  0  0  0  0  0  0  0  0  0
    4.8411  -12.5404    2.4487 C   0  0  0  0  0  0  0  0  0  0  0  0
    4.6872  -13.6402    2.7412 N   0  0  0  0  0  0  0  0  0  0  0  0
    0.0800  -12.9806   -0.3831 C   0  0  0  0  0  0  0  0  0  0  0  0
    0.3623  -14.1101   -1.3961 C   0  0  0  0  0  0  0  0  0  0  0  0
   -1.0081  -14.4773   -1.9180 C   0  0  0  0  0  0  0  0  0  0  0  0
   -1.4241  -13.4843   -2.6936 C   0  0  0  0  0  0  0  0  0  0  0  0
   -0.3417  -12.4291   -2.7091 C   0  0  0  0  0  0  0  0  0  0  0  0
    0.9002  -13.3229   -2.5981 C   0  0  0  0  0  0  0  0  0  0  0  0
   -0.4085  -11.8109   -1.2967 C   0  0  0  0  0  0  0  0  0  0  0  0
   -7.9674   10.1847    0.1671 H   0  0  0  0  0  0  0  0  0  0  0  0
   -8.8589    4.9042    3.5042 H   0  0  0  0  0  0  0  0  0  0  0  0
  -12.6790    7.9553    2.1852 H   0  0  0  0  0  0  0  0  0  0  0  0
  -13.8575    4.8470    3.0507 H   0  0  0  0  0  0  0  0  0  0  0  0
  -14.7086    6.0874    5.0346 H   0  0  0  0  0  0  0  0  0  0  0  0
  -12.7254    7.5540    5.9015 H   0  0  0  0  0  0  0  0  0  0  0  0
  -10.7447    5.9353    6.6176 H   0  0  0  0  0  0  0  0  0  0  0  0
  -11.5087    3.4698    6.1934 H   0  0  0  0  0  0  0  0  0  0  0  0
  -14.0816    3.4949    5.4019 H   0  0  0  0  0  0  0  0  0  0  0  0
  -13.8747    4.4162    6.9125 H   0  0  0  0  0  0  0  0  0  0  0  0
  -11.9376    3.2696    3.7483 H   0  0  0  0  0  0  0  0  0  0  0  0
   -5.7156    3.4651   -1.1142 H   0  0  0  0  0  0  0  0  0  0  0  0
   -7.4034    3.9803   -0.7968 H   0  0  0  0  0  0  0  0  0  0  0  0
   -6.6830    2.4290    1.0007 H   0  0  0  0  0  0  0  0  0  0  0  0
   -6.8671    4.0648    1.6576 H   0  0  0  0  0  0  0  0  0  0  0  0
   -5.2558    3.4279    1.3164 H   0  0  0  0  0  0  0  0  0  0  0  0
   -5.4804   10.7491    0.1390 H   0  0  0  0  0  0  0  0  0  0  0  0
   -3.4504    8.8115   -3.2105 H   0  0  0  0  0  0  0  0  0  0  0  0
   -3.6398   10.8345   -4.6001 H   0  0  0  0  0  0  0  0  0  0  0  0
   -1.7777   12.4390   -4.7138 H   0  0  0  0  0  0  0  0  0  0  0  0
    1.1306   12.3670   -2.5077 H   0  0  0  0  0  0  0  0  0  0  0  0
    0.2980   13.2646   -3.7854 H   0  0  0  0  0  0  0  0  0  0  0  0
    1.1885   11.6653   -5.4825 H   0  0  0  0  0  0  0  0  0  0  0  0
    2.0111   10.7654   -4.2088 H   0  0  0  0  0  0  0  0  0  0  0  0
    2.5034   12.4226   -4.5773 H   0  0  0  0  0  0  0  0  0  0  0  0
    0.4653   10.0263   -2.0073 H   0  0  0  0  0  0  0  0  0  0  0  0
    8.5441   -3.4949    0.0026 H   0  0  0  0  0  0  0  0  0  0  0  0
   10.4600   -4.4324   -1.2334 H   0  0  0  0  0  0  0  0  0  0  0  0
   10.5945   -4.1863   -3.6789 H   0  0  0  0  0  0  0  0  0  0  0  0
    9.8439   -2.8922   -5.6622 H   0  0  0  0  0  0  0  0  0  0  0  0
    8.2538   -2.1160   -5.6624 H   0  0  0  0  0  0  0  0  0  0  0  0
    8.7586   -5.1324   -5.6885 H   0  0  0  0  0  0  0  0  0  0  0  0
    8.2275   -4.1634   -7.0666 H   0  0  0  0  0  0  0  0  0  0  0  0
    7.1670   -4.3696   -5.6688 H   0  0  0  0  0  0  0  0  0  0  0  0
    6.8966   -2.0622   -3.6678 H   0  0  0  0  0  0  0  0  0  0  0  0
    0.6935    2.8387    0.9691 H   0  0  0  0  0  0  0  0  0  0  0  0
   -0.5785    3.7656    0.1898 H   0  0  0  0  0  0  0  0  0  0  0  0
   -0.7149    1.3519   -0.4382 H   0  0  0  0  0  0  0  0  0  0  0  0
   -0.4542    2.3915   -1.8414 H   0  0  0  0  0  0  0  0  0  0  0  0
    0.8850    1.4537   -1.1855 H   0  0  0  0  0  0  0  0  0  0  0  0
    1.7829    1.2499    1.0056 H   0  0  0  0  0  0  0  0  0  0  0  0
    3.3018    0.4852    1.4406 H   0  0  0  0  0  0  0  0  0  0  0  0
    4.2893    2.6364    2.1089 H   0  0  0  0  0  0  0  0  0  0  0  0
    2.8382    3.5080    1.6242 H   0  0  0  0  0  0  0  0  0  0  0  0
    2.7769    2.3774    2.9828 H   0  0  0  0  0  0  0  0  0  0  0  0
    6.1051   -4.8332   -1.5354 H   0  0  0  0  0  0  0  0  0  0  0  0
    5.5260   -6.5001   -2.7501 H   0  0  0  0  0  0  0  0  0  0  0  0
    5.9475   -8.2190   -2.8724 H   0  0  0  0  0  0  0  0  0  0  0  0
    7.9677   -5.9805   -2.3006 H   0  0  0  0  0  0  0  0  0  0  0  0
    8.3302   -7.7029   -2.4191 H   0  0  0  0  0  0  0  0  0  0  0  0
    7.7536   -6.8207   -3.8399 H   0  0  0  0  0  0  0  0  0  0  0  0
    5.4978   -6.0991    3.1814 H   0  0  0  0  0  0  0  0  0  0  0  0
    5.2618   -2.6794    4.4757 H   0  0  0  0  0  0  0  0  0  0  0  0
    4.8416   -4.3964    4.3127 H   0  0  0  0  0  0  0  0  0  0  0  0
    7.6767   -3.2245    4.3979 H   0  0  0  0  0  0  0  0  0  0  0  0
    7.3172   -4.9410    4.2107 H   0  0  0  0  0  0  0  0  0  0  0  0
    6.8879   -4.1086    5.7112 H   0  0  0  0  0  0  0  0  0  0  0  0
    5.8671   -8.4657    2.5328 H   0  0  0  0  0  0  0  0  0  0  0  0
    1.1732   -9.0191   -1.5415 H   0  0  0  0  0  0  0  0  0  0  0  0
    2.6951  -12.8497    1.4014 H   0  0  0  0  0  0  0  0  0  0  0  0
   -0.5559  -13.2980    0.4412 H   0  0  0  0  0  0  0  0  0  0  0  0
    0.9746  -14.9220   -1.0136 H   0  0  0  0  0  0  0  0  0  0  0  0
   -1.5401  -15.3662   -1.6337 H   0  0  0  0  0  0  0  0  0  0  0  0
   -2.3728  -13.3779   -3.1863 H   0  0  0  0  0  0  0  0  0  0  0  0
   -0.3712  -11.7100   -3.5234 H   0  0  0  0  0  0  0  0  0  0  0  0
    1.8211  -12.7793   -2.3959 H   0  0  0  0  0  0  0  0  0  0  0  0
    1.0339  -13.9528   -3.4760 H   0  0  0  0  0  0  0  0  0  0  0  0
   -1.3696  -11.3480   -1.0800 H   0  0  0  0  0  0  0  0  0  0  0  0
  1  2  2  0  0  0  0
  2  3  1  0  0  0  0
  3  4  2  0  0  0  0
  3  5  1  0  0  0  0
  5  6  2  0  0  0  0
  6  7  1  0  0  0  0
  7  8  2  0  0  0  0
  8  9  1  0  0  0  0
  9 10  2  0  0  0  0
 10 11  1  0  0  0  0
 11 12  2  0  0  0  0
 12 13  1  0  0  0  0
 13 14  3  0  0  0  0
 12 15  1  0  0  0  0
 15 16  3  0  0  0  0
  8 17  1  0  0  0  0
 17 18  1  0  0  0  0
 18 19  1  0  0  0  0
 19 20  2  0  0  0  0
 20 21  1  0  0  0  0
 21 22  1  0  0  0  0
 21 23  1  0  0  0  0
  1 24  1  0  0  0  0
 24 25  1  0  0  0  0
 25 26  2  0  0  0  0
 26 27  1  0  0  0  0
 27 28  1  0  0  0  0
 28 29  1  0  0  0  0
 27 30  1  0  0  0  0
 30 31  2  0  0  0  0
 31 32  1  0  0  0  0
 32 33  2  0  0  0  0
 33 34  1  0  0  0  0
 33 35  1  0  0  0  0
 32 36  1  0  0  0  0
 36 37  2  0  0  0  0
 37 38  1  0  0  0  0
 38 39  2  0  0  0  0
 39 40  1  0  0  0  0
 40 41  2  0  0  0  0
 41 42  1  0  0  0  0
 42 43  1  0  0  0  0
 43 44  1  0  0  0  0
 42 45  2  0  0  0  0
 37 46  1  0  0  0  0
 46 47  1  0  0  0  0
 47 48  1  0  0  0  0
 48 49  1  0  0  0  0
 49 50  1  0  0  0  0
 50 51  1  0  0  0  0
 51 52  2  0  0  0  0
 52 53  1  0  0  0  0
 53 54  1  0  0  0  0
 51 55  1  0  0  0  0
 55 56  1  0  0  0  0
 56 57  1  0  0  0  0
 57 58  1  0  0  0  0
 58 59  1  0  0  0  0
 59 60  1  0  0  0  0
 60 61  2  0  0  0  0
 61 62  1  0  0  0  0
 62 63  2  0  0  0  0
 63 64  1  0  0  0  0
 64 65  1  0  0  0  0
 65 66  1  0  0  0  0
 64 67  2  0  0  0  0
 59 68  2  0  0  0  0
 68 69  1  0  0  0  0
 69 70  1  0  0  0  0
 70 71  1  0  0  0  0
 71 72  1  0  0  0  0
 72 73  1  0  0  0  0
 73 74  1  0  0  0  0
 74 75  1  0  0  0  0
 75 76  1  0  0  0  0
 76 77  1  0  0  0  0
 77 78  1  0  0  0  0
 75 79  1  0  0  0  0
 79 80  1  0  0  0  0
 72 81  1  0  0  0  0
 81 82  1  0  0  0  0
 68 83  1  0  0  0  0
 83 84  2  0  0  0  0
 84 85  1  0  0  0  0
 85 86  1  0  0  0  0
 86 87  1  0  0  0  0
 87 88  1  0  0  0  0
 85 89  2  0  0  0  0
 89 90  1  0  0  0  0
 90 91  2  0  0  0  0
 91 92  1  0  0  0  0
 92 93  1  0  0  0  0
 93 94  1  0  0  0  0
 89 95  1  0  0  0  0
 95 96  2  0  0  0  0
 96 97  1  0  0  0  0
 97 98  2  0  0  0  0
 97 99  1  0  0  0  0
 99100  2  0  0  0  0
100101  1  0  0  0  0
101102  2  0  0  0  0
102103  1  0  0  0  0
103104  2  0  0  0  0
104105  1  0  0  0  0
105106  2  0  0  0  0
106107  1  0  0  0  0
107108  3  0  0  0  0
106109  1  0  0  0  0
109110  3  0  0  0  0
102111  1  0  0  0  0
111112  1  0  0  0  0
112113  1  0  0  0  0
113114  2  0  0  0  0
114115  1  0  0  0  0
115116  1  0  0  0  0
115117  1  0  0  0  0
 11  2  1  0  0  0  0
 23 17  1  0  0  0  0
 34 24  2  0  0  0  0
 78 36  1  0  0  0  0
 91 83  1  0  0  0  0
105 96  1  0  0  0  0
117111  1  0  0  0  0
 10  5  1  0  0  0  0
 22 18  1  0  0  0  0
 31 25  1  0  0  0  0
 45 38  1  0  0  0  0
 77 46  2  0  0  0  0
104 99  1  0  0  0  0
116112  1  0  0  0  0
 23  7  1  0  0  0  0
 76 48  2  0  0  0  0
117101  1  0  0  0  0
 74 49  2  0  0  0  0
 54 50  2  0  0  0  0
 73 55  2  0  0  0  0
 71 56  2  0  0  0  0
 70 58  2  0  0  0  0
 67 60  1  0  0  0  0
  1118  1  0  0  0  0
  6119  1  0  0  0  0
  9120  1  0  0  0  0
 17121  1  0  0  0  0
 18122  1  0  0  0  0
 19123  1  0  0  0  0
 20124  1  0  0  0  0
 21125  1  0  0  0  0
 22126  1  0  0  0  0
 22127  1  0  0  0  0
 23128  1  0  0  0  0
 28129  1  0  0  0  0
 28130  1  0  0  0  0
 29131  1  0  0  0  0
 29132  1  0  0  0  0
 29133  1  0  0  0  0
 34134  1  0  0  0  0
 39135  1  0  0  0  0
 40136  1  0  0  0  0
 41137  1  0  0  0  0
 43138  1  0  0  0  0
 43139  1  0  0  0  0
 44140  1  0  0  0  0
 44141  1  0  0  0  0
 44142  1  0  0  0  0
 45143  1  0  0  0  0
 61144  1  0  0  0  0
 62145  1  0  0  0  0
 63146  1  0  0  0  0
 65147  1  0  0  0  0
 65148  1  0  0  0  0
 66149  1  0  0  0  0
 66150  1  0  0  0  0
 66151  1  0  0  0  0
 67152  1  0  0  0  0
 79153  1  0  0  0  0
 79154  1  0  0  0  0
 80155  1  0  0  0  0
 80156  1  0  0  0  0
 80157  1  0  0  0  0
 81158  1  0  0  0  0
 81159  1  0  0  0  0
 82160  1  0  0  0  0
 82161  1  0  0  0  0
 82162  1  0  0  0  0
 84163  1  0  0  0  0
 87164  1  0  0  0  0
 87165  1  0  0  0  0
 88166  1  0  0  0  0
 88167  1  0  0  0  0
 88168  1  0  0  0  0
 90169  1  0  0  0  0
 93170  1  0  0  0  0
 93171  1  0  0  0  0
 94172  1  0  0  0  0
 94173  1  0  0  0  0
 94174  1  0  0  0  0
 95175  1  0  0  0  0
100176  1  0  0  0  0
103177  1  0  0  0  0
111178  1  0  0  0  0
112179  1  0  0  0  0
113180  1  0  0  0  0
114181  1  0  0  0  0
115182  1  0  0  0  0
116183  1  0  0  0  0
116184  1  0  0  0  0
117185  1  0  0  0  0
M  END
