235

C          2.88530       14.81560       -3.65700
C          3.89250       14.80120       -4.56900
C          4.41520       13.60430       -5.28050
O          3.88490       12.52680       -5.45150
C          5.78130       13.96660       -5.70400
C          6.71650       13.12100       -6.29880
C          7.92400       13.72030       -6.56270
C          8.18800       15.06230       -6.25460
C          7.27600       15.90760       -5.66970
C          6.03740       15.31740       -5.39640
C          4.84720       15.88090       -4.77230
C          4.62760       17.20340       -4.49730
C          5.56110       18.23210       -4.74040
N          6.27930       19.11140       -4.91120
C          3.41850       17.72020       -3.98330
N          2.46120       18.21600       -3.58840
C          9.59950       14.98840       -6.78190
C          9.85280       15.61610       -8.16880
C         11.15000       14.98420       -8.61950
C         10.89980       13.71450       -8.91290
C          9.42920       13.46690       -8.66520
C          8.86220       14.84040       -9.04660
C          9.30430       13.49340       -7.12710
C          1.95150       13.75500       -3.39050
C          1.41810       12.96960       -4.41300
C          0.62280       11.89480       -4.06430
N          0.02150       10.96040       -4.87150
C          0.19670       10.87280       -6.29810
C          1.52990       10.21960       -6.65580
C         -0.55290       10.00500       -4.07160
C         -0.38950       10.37000       -2.70980
C          0.35530       11.58640       -2.70420
C          0.83220       12.42220       -1.69650
C          1.60300       13.50360       -2.04580
C         -0.88490        9.53650       -1.71120
C         -1.47590        8.35080       -2.07250
C         -1.61560        7.96790       -3.42180
C         -1.18800        8.82900       -4.43100
C         -2.16920        6.66960       -3.73550
C         -2.10810        5.94040       -4.90470
C         -1.37770        6.26130       -6.13890
C         -0.00070        6.46740       -6.11950
C          0.67590        6.68930       -7.30330
C         -0.00790        6.70620       -8.50750
C         -1.37880        6.49140       -8.54460
C         -2.11970        6.43790       -9.84910
C         -2.22970        4.99030      -10.33220
C         -2.05220        6.26230       -7.35290
C         -2.76560        4.69760       -4.77980
S         -2.93150        3.34140       -5.87050
C         -3.65920        2.43060       -4.58790
C         -4.10370        1.11920       -4.33000
C         -4.25920       -0.02350       -5.14570
C         -4.70930       -1.25470       -4.54880
N         -4.82970       -2.22920       -5.43590
S         -4.41710       -1.65470       -6.89360
N         -4.06100       -0.13830       -6.44880
C         -4.84670       -1.32690       -3.14420
C         -4.92160       -2.42460       -2.26850
S         -4.94800       -4.15530       -2.34410
C         -4.57320       -4.21970       -0.63760
C         -4.17140       -5.27710        0.21120
C         -4.15540       -6.68270       -0.19380
C         -3.66220       -7.05340       -1.44150
C         -3.66520       -8.38270       -1.81770
C         -4.15160       -9.35100       -0.95750
C         -4.65860       -8.99860        0.28730
C         -5.12940      -10.05600        1.24300
C         -3.92900      -10.67220        1.96280
C         -4.66610       -7.66180        0.65260
C         -3.73510       -4.79560        1.42870
S         -3.99200       -3.05750        1.59070
C         -4.50680       -2.95860       -0.05140
C         -4.71960       -1.93050       -0.97770
N         -4.58800       -0.56910       -1.01140
C         -4.65600       -0.17650       -2.33270
C         -4.43550        1.07710       -2.95120
N         -4.29020        2.34280       -2.40850
C         -3.79200        3.15180       -3.39930
C         -3.29370        4.45580       -3.51460
S         -3.03970        5.80560       -2.47050
C         -5.04890        2.90560       -1.31180
C         -6.17590        3.80480       -1.81890
C         -4.08460        0.14050        0.14240
C         -5.15640        0.31920        1.21600
C         -2.88790       -5.38470        2.42640
C         -1.68220       -4.82390        2.82990
N         -1.06550       -3.71460        2.27380
C         -0.28770       -2.91680        3.13660
C         -0.79730       -2.53390        4.37380
C         -0.00660       -1.83180        5.26110
C          1.29910       -1.48700        4.93610
C          2.17600       -0.79440        5.93280
C          1.78330       -1.83580        3.68120
C          1.00530       -2.54290        2.78710
C         -1.10320       -3.42770        0.90610
C         -1.07700       -2.09950        0.48020
C         -1.18700       -1.79100       -0.86120
C         -1.31870       -2.78810       -1.81920
C         -1.46730       -2.45920       -3.27300
C         -1.29460       -4.11040       -1.39180
C         -1.18990       -4.43470       -0.05370
C         -1.11060       -5.54680        3.90380
S          0.34020       -5.34420        4.81380
C         -0.07200       -6.75420        5.79240
C         -1.24670       -7.40220        5.32260
N         -1.74660       -8.57950        5.81070
C         -3.13660       -8.79670        5.78220
C         -4.01050       -7.77470        6.14530
C         -5.37380       -7.98100        6.09910
C         -5.90140       -9.20530        5.70370
C         -7.38330       -9.41730        5.66610
C         -5.02090      -10.22530        5.36710
C         -3.65430      -10.03000        5.40030
C         -0.90380       -9.62610        6.23270
C          0.29830       -9.87580        5.57580
C          1.12330      -10.89470        6.00810
C          0.76840      -11.69750        7.08570
C          1.67040      -12.78920        7.57310
C         -0.44890      -11.45990        7.71370
C         -1.27870      -10.43700        7.30110
C         -1.84070       -6.66480        4.28350
S         -3.26070       -6.86030        3.30300
C          0.56990       -7.09690        6.97950
C          1.67000       -6.53300        7.59130
C          2.54580       -5.50530        7.02850
O          2.44270       -4.93130        5.95620
C          3.62820       -5.29910        8.00780
C          4.68700       -4.40030        7.90830
C          5.54220       -4.42440        8.98380
C          5.35790       -5.28210       10.07510
C          4.31450       -6.17160       10.18560
C          3.43110       -6.16220        9.10260
C          2.20170       -6.92470        8.87390
C          1.65190       -7.81720        9.76450
C          2.25860       -8.21710       10.97100
N          2.69740       -8.60730       11.95890
C          0.39540       -8.43770        9.63580
N         -0.63190       -8.95520        9.63900
C          6.59150       -4.77720       10.78270
C          7.84240       -5.67860       10.72010
C          8.97990       -4.74270       11.05940
C          9.15350       -3.92750       10.02700
C          8.13620       -4.29890        8.97240
C          8.05370       -5.81280        9.20640
C          6.79530       -3.81820        9.56620
H          2.82710       15.66440       -2.98450
H          6.47590       12.09080       -6.51010
H          7.49540       16.93350       -5.42440
H         10.38580       15.21180       -6.06340
H          9.80170       16.70110       -8.19310
H         12.09550       15.49380       -8.62490
H         11.59460       12.95170       -9.21200
H          8.99290       12.59370       -9.14280
H          7.81900       14.98230       -8.77040
H          8.99170       15.05950      -10.10520
H          9.89420       12.71970       -6.63890
H          1.61610       13.21450       -5.44250
H         -0.63160       10.29200       -6.71150
H          0.14710       11.88260       -6.71510
H          1.62830       10.14110       -7.73510
H          1.57790        9.22130       -6.22770
H          2.35600       10.80940       -6.26590
H          0.60510       12.21520       -0.66180
H          2.00100       14.15280       -1.27990
H         -0.78290        9.80700       -0.67130
H         -1.83110        7.67900       -1.30470
H         -1.33500        8.56960       -5.46570
H          0.52760        6.45010       -5.17730
H          1.74540        6.84130       -7.29070
H          0.53010        6.88090       -9.42830
H         -3.12250        6.85170       -9.72340
H         -1.59550        7.03220      -10.60040
H         -2.75130        4.38400       -9.59520
H         -2.77450        4.94310      -11.27230
H         -1.23940        4.56620      -10.48210
H         -3.11910        6.08940       -7.36580
H         -3.27240       -6.30150       -2.10880
H         -3.28310       -8.66530       -2.78770
H         -4.14700      -10.38940       -1.25670
H         -5.80430       -9.61970        1.98160
H         -5.66630      -10.83660        0.69970
H         -3.23550      -11.10340        1.24410
H         -4.25310      -11.45330        2.64540
H         -3.40610       -9.90770        2.53310
H         -5.10010       -7.37150        1.59860
H         -4.37620        3.48550       -0.67050
H         -5.48820        2.09130       -0.74190
H         -6.76720        4.15560       -0.97740
H         -5.77900        4.66880       -2.34420
H         -6.82310        3.25100       -2.49590
H         -3.26860       -0.45620        0.56460
H         -3.67010        1.09590       -0.17750
H         -5.46680       -0.65130        1.59400
H         -6.03590        0.82880        0.82840
H         -4.75330        0.89720        2.04270
H         -1.80970       -2.80550        4.63760
H         -0.40710       -1.55560        6.22600
H          2.66400       -1.54000        6.56160
H          2.94860       -0.21110        5.43710
H          1.59460       -0.13930        6.57810
H          2.79410       -1.57020        3.40780
H          1.39930       -2.82920        1.82300
H         -0.98490       -1.31350        1.21640
H         -1.18130       -0.75470       -1.17010
H         -0.56010       -2.72420       -3.81650
H         -1.65440       -1.39700       -3.41540
H         -2.29230       -3.01900       -3.71100
H         -1.35780       -4.90250       -2.12340
H         -1.17340       -5.47080        0.25140
H         -3.61320       -6.82410        6.46950
H         -6.04160       -7.17980        6.38020
H         -7.77170       -9.53090        6.67850
H         -7.88240       -8.56310        5.21270
H         -7.63450      -10.31240        5.10260
H         -5.41060      -11.18690        5.06610
H         -2.98160      -10.82840        5.12490
H          0.58550       -9.26520        4.73210
H          2.05640      -11.07210        5.49290
H          1.12870      -13.73100        7.64270
H          2.51980      -12.92130        6.90760
H          2.04460      -12.54850        8.56800
H         -0.74370      -12.07240        8.55220
H         -2.21000      -10.25200        7.81230
H          0.10660       -7.91810        7.51140
H          4.78800       -3.75670        7.04800
H          4.18570       -6.81940       11.03640
H          6.42960       -4.34220       11.76730
H          7.77250       -6.59500       11.29980
H          9.48690       -4.73300       12.00650
H          9.83430       -3.10090        9.93950
H          8.33460       -3.95830        7.95960
H          8.98710       -6.31840        8.96410
H          7.23050       -6.29760        8.68520
H          6.76750       -2.74400        9.74080
