
  xtb     02192220343D
 energy: -288.749467530530 gnorm: 0.000295178307 xtb: 6.4.1 (unknown)
171193  0     0  0            999 V2000
    4.2859    9.5757   -3.0199 C   0  0  0  0  0  0  0  0  0  0  0  0
    3.8900   10.2649   -1.9188 C   0  0  0  0  0  0  0  0  0  0  0  0
    4.5292   11.5732   -1.5980 C   0  0  0  0  0  0  0  0  0  0  0  0
    5.1942   12.2577   -2.3416 O   0  0  0  0  0  0  0  0  0  0  0  0
    4.2272   11.8126   -0.1725 C   0  0  0  0  0  0  0  0  0  0  0  0
    4.7118   12.8414    0.6324 C   0  0  0  0  0  0  0  0  0  0  0  0
    4.2740   12.7892    1.9342 C   0  0  0  0  0  0  0  0  0  0  0  0
    3.4115   11.7900    2.4057 C   0  0  0  0  0  0  0  0  0  0  0  0
    2.9179   10.7744    1.6225 C   0  0  0  0  0  0  0  0  0  0  0  0
    3.3554   10.8066    0.2962 C   0  0  0  0  0  0  0  0  0  0  0  0
    3.0194    9.9261   -0.8171 C   0  0  0  0  0  0  0  0  0  0  0  0
    1.9456    9.0766   -0.8713 C   0  0  0  0  0  0  0  0  0  0  0  0
    1.1690    8.6989    0.2386 C   0  0  0  0  0  0  0  0  0  0  0  0
    0.5462    8.2890    1.1133 N   0  0  0  0  0  0  0  0  0  0  0  0
    1.4838    8.4832   -2.0641 C   0  0  0  0  0  0  0  0  0  0  0  0
    1.0409    8.0046   -3.0089 N   0  0  0  0  0  0  0  0  0  0  0  0
    3.3978   12.3498    3.8057 C   0  0  0  0  0  0  0  0  0  0  0  0
    4.2526   11.6313    4.8787 C   0  0  0  0  0  0  0  0  0  0  0  0
    5.3808   10.9517    4.1431 C   0  0  0  0  0  0  0  0  0  0  0  0
    6.1995   11.8951    3.6970 C   0  0  0  0  0  0  0  0  0  0  0  0
    5.6400   13.2296    4.1234 C   0  0  0  0  0  0  0  0  0  0  0  0
    5.0009   12.8387    5.4657 C   0  0  0  0  0  0  0  0  0  0  0  0
    4.3603   13.4618    3.2818 C   0  0  0  0  0  0  0  0  0  0  0  0
    4.1255    8.1900   -3.3319 C   0  0  0  0  0  0  0  0  0  0  0  0
    3.9180    7.1713   -2.3718 C   0  0  0  0  0  0  0  0  0  0  0  0
    3.8288    7.2115   -1.0351 N   0  0  0  0  0  0  0  0  0  0  0  0
    3.6251    5.9715   -0.6824 N   0  0  0  0  0  0  0  0  0  0  0  0
    3.4158    5.6113    0.6917 C   0  0  0  0  0  0  0  0  0  0  0  0
    4.5671    6.1060    1.5568 C   0  0  0  0  0  0  0  0  0  0  0  0
    3.5786    5.0934   -1.6402 N   0  0  0  0  0  0  0  0  0  0  0  0
    3.7632    5.8097   -2.7584 C   0  0  0  0  0  0  0  0  0  0  0  0
    3.8216    5.3767   -4.1032 C   0  0  0  0  0  0  0  0  0  0  0  0
    4.0294    6.4147   -5.0097 C   0  0  0  0  0  0  0  0  0  0  0  0
    4.2038    7.7452   -4.6487 C   0  0  0  0  0  0  0  0  0  0  0  0
    4.0171    6.1535   -6.3323 F   0  0  0  0  0  0  0  0  0  0  0  0
    3.6030    3.9977   -4.4253 C   0  0  0  0  0  0  0  0  0  0  0  0
    4.0732    3.2364   -5.4846 C   0  0  0  0  0  0  0  0  0  0  0  0
    5.1101    3.6464   -6.4298 C   0  0  0  0  0  0  0  0  0  0  0  0
    5.0052    3.3181   -7.7778 C   0  0  0  0  0  0  0  0  0  0  0  0
    6.0025    3.6945   -8.6568 C   0  0  0  0  0  0  0  0  0  0  0  0
    7.1085    4.3904   -8.2030 C   0  0  0  0  0  0  0  0  0  0  0  0
    7.2351    4.7171   -6.8581 C   0  0  0  0  0  0  0  0  0  0  0  0
    8.4577    5.4297   -6.3542 C   0  0  0  0  0  0  0  0  0  0  0  0
    9.5531    4.4241   -5.9948 C   0  0  0  0  0  0  0  0  0  0  0  0
    6.2347    4.3334   -5.9806 C   0  0  0  0  0  0  0  0  0  0  0  0
    3.5140    1.9435   -5.4629 C   0  0  0  0  0  0  0  0  0  0  0  0
    3.7062    0.5422   -6.4933 S   0  0  0  0  0  0  0  0  0  0  0  0
    2.6315   -0.3416   -5.4614 C   0  0  0  0  0  0  0  0  0  0  0  0
    2.0398   -1.6144   -5.3643 C   0  0  0  0  0  0  0  0  0  0  0  0
    2.0474   -2.7329   -6.2269 C   0  0  0  0  0  0  0  0  0  0  0  0
    1.2535   -3.8829   -5.8870 C   0  0  0  0  0  0  0  0  0  0  0  0
    1.3098   -4.8265   -6.8132 N   0  0  0  0  0  0  0  0  0  0  0  0
    2.2798   -4.3187   -8.0065 S   0  0  0  0  0  0  0  0  0  0  0  0
    2.6667   -2.8736   -7.3880 N   0  0  0  0  0  0  0  0  0  0  0  0
    0.6003   -3.9194   -4.6348 C   0  0  0  0  0  0  0  0  0  0  0  0
   -0.0517   -4.9578   -3.9483 C   0  0  0  0  0  0  0  0  0  0  0  0
   -0.5302   -6.6020   -4.2046 S   0  0  0  0  0  0  0  0  0  0  0  0
   -1.0814   -6.6771   -2.5471 C   0  0  0  0  0  0  0  0  0  0  0  0
   -1.6356   -7.7179   -1.7700 C   0  0  0  0  0  0  0  0  0  0  0  0
   -1.8162   -9.0767   -2.2861 C   0  0  0  0  0  0  0  0  0  0  0  0
   -1.3899  -10.1802   -1.5502 C   0  0  0  0  0  0  0  0  0  0  0  0
   -1.5311  -11.4509   -2.0725 C   0  0  0  0  0  0  0  0  0  0  0  0
   -2.0899  -11.6338   -3.3262 C   0  0  0  0  0  0  0  0  0  0  0  0
   -2.5084  -10.5442   -4.0788 C   0  0  0  0  0  0  0  0  0  0  0  0
   -3.1455  -10.7344   -5.4251 C   0  0  0  0  0  0  0  0  0  0  0  0
   -4.6671  -10.8215   -5.2909 C   0  0  0  0  0  0  0  0  0  0  0  0
   -2.3665   -9.2704   -3.5483 C   0  0  0  0  0  0  0  0  0  0  0  0
   -1.8789   -7.3032   -0.4755 C   0  0  0  0  0  0  0  0  0  0  0  0
   -1.3979   -5.6351   -0.2080 S   0  0  0  0  0  0  0  0  0  0  0  0
   -0.8952   -5.4819   -1.8518 C   0  0  0  0  0  0  0  0  0  0  0  0
   -0.3204   -4.4909   -2.6589 C   0  0  0  0  0  0  0  0  0  0  0  0
    0.1056   -3.1955   -2.5323 N   0  0  0  0  0  0  0  0  0  0  0  0
    0.6600   -2.8162   -3.7401 C   0  0  0  0  0  0  0  0  0  0  0  0
    1.2599   -1.6088   -4.1752 C   0  0  0  0  0  0  0  0  0  0  0  0
    1.3272   -0.3507   -3.5993 N   0  0  0  0  0  0  0  0  0  0  0  0
    2.1634    0.4073   -4.3797 C   0  0  0  0  0  0  0  0  0  0  0  0
    2.6581    1.7156   -4.3819 C   0  0  0  0  0  0  0  0  0  0  0  0
    2.5293    3.1014   -3.3644 S   0  0  0  0  0  0  0  0  0  0  0  0
    0.3186    0.3316   -2.8168 C   0  0  0  0  0  0  0  0  0  0  0  0
   -0.6737    1.0653   -3.7189 C   0  0  0  0  0  0  0  0  0  0  0  0
    0.2444   -2.5954   -1.2245 C   0  0  0  0  0  0  0  0  0  0  0  0
   -1.1000   -2.1519   -0.6462 C   0  0  0  0  0  0  0  0  0  0  0  0
   -2.5104   -7.9952    0.6223 C   0  0  0  0  0  0  0  0  0  0  0  0
   -3.4891   -8.9753    0.4092 C   0  0  0  0  0  0  0  0  0  0  0  0
   -4.0992   -9.5911    1.4742 C   0  0  0  0  0  0  0  0  0  0  0  0
   -3.7942   -9.2327    2.7972 C   0  0  0  0  0  0  0  0  0  0  0  0
   -2.7986   -8.2709    3.0071 C   0  0  0  0  0  0  0  0  0  0  0  0
   -2.1765   -7.6664    1.9411 C   0  0  0  0  0  0  0  0  0  0  0  0
   -4.4786   -9.9034    3.8682 C   0  0  0  0  0  0  0  0  0  0  0  0
   -4.7983   -9.4251    5.0994 C   0  0  0  0  0  0  0  0  0  0  0  0
   -4.8040   -7.9979    5.5241 C   0  0  0  0  0  0  0  0  0  0  0  0
   -4.3754   -7.0316    4.9316 O   0  0  0  0  0  0  0  0  0  0  0  0
   -5.5277   -7.9690    6.8093 C   0  0  0  0  0  0  0  0  0  0  0  0
   -5.8178   -6.8371    7.5697 C   0  0  0  0  0  0  0  0  0  0  0  0
   -6.5065   -7.1026    8.7279 C   0  0  0  0  0  0  0  0  0  0  0  0
   -6.8864   -8.3994    9.1020 C   0  0  0  0  0  0  0  0  0  0  0  0
   -6.6069   -9.5234    8.3631 C   0  0  0  0  0  0  0  0  0  0  0  0
   -5.9009   -9.2756    7.1802 C   0  0  0  0  0  0  0  0  0  0  0  0
   -5.4226  -10.2020    6.1609 C   0  0  0  0  0  0  0  0  0  0  0  0
   -5.4775  -11.5686    6.2353 C   0  0  0  0  0  0  0  0  0  0  0  0
   -4.9208  -12.4600    5.2930 C   0  0  0  0  0  0  0  0  0  0  0  0
   -4.4811  -13.2559    4.5912 N   0  0  0  0  0  0  0  0  0  0  0  0
   -6.0742  -12.2883    7.2920 C   0  0  0  0  0  0  0  0  0  0  0  0
   -6.5451  -12.9384    8.1129 N   0  0  0  0  0  0  0  0  0  0  0  0
   -7.5543   -7.9246   10.3684 C   0  0  0  0  0  0  0  0  0  0  0  0
   -9.0955   -7.8455   10.3483 C   0  0  0  0  0  0  0  0  0  0  0  0
   -9.4248   -6.9222   11.4991 C   0  0  0  0  0  0  0  0  0  0  0  0
   -9.0628   -5.6949   11.1480 C   0  0  0  0  0  0  0  0  0  0  0  0
   -8.4832   -5.7678    9.7537 C   0  0  0  0  0  0  0  0  0  0  0  0
   -9.3432   -6.8957    9.1691 C   0  0  0  0  0  0  0  0  0  0  0  0
   -7.1282   -6.4798    9.9533 C   0  0  0  0  0  0  0  0  0  0  0  0
    4.8635   10.1521   -3.7363 H   0  0  0  0  0  0  0  0  0  0  0  0
    5.3704   13.5960    0.2315 H   0  0  0  0  0  0  0  0  0  0  0  0
    2.2574   10.0082    1.9942 H   0  0  0  0  0  0  0  0  0  0  0  0
    2.4253   12.6557    4.1864 H   0  0  0  0  0  0  0  0  0  0  0  0
    3.6850   11.0107    5.5670 H   0  0  0  0  0  0  0  0  0  0  0  0
    5.4358    9.8914    3.9781 H   0  0  0  0  0  0  0  0  0  0  0  0
    7.0746   11.7804    3.0846 H   0  0  0  0  0  0  0  0  0  0  0  0
    6.3369   14.0635    4.1251 H   0  0  0  0  0  0  0  0  0  0  0  0
    4.3398   13.6037    5.8705 H   0  0  0  0  0  0  0  0  0  0  0  0
    5.7371   12.5542    6.2160 H   0  0  0  0  0  0  0  0  0  0  0  0
    4.0180   14.4939    3.3246 H   0  0  0  0  0  0  0  0  0  0  0  0
    3.3235    4.5246    0.7188 H   0  0  0  0  0  0  0  0  0  0  0  0
    2.4764    6.0643    1.0266 H   0  0  0  0  0  0  0  0  0  0  0  0
    4.3653    5.8821    2.6001 H   0  0  0  0  0  0  0  0  0  0  0  0
    5.4984    5.6243    1.2679 H   0  0  0  0  0  0  0  0  0  0  0  0
    4.6779    7.1812    1.4402 H   0  0  0  0  0  0  0  0  0  0  0  0
    4.3420    8.4596   -5.4461 H   0  0  0  0  0  0  0  0  0  0  0  0
    4.1335    2.7924   -8.1358 H   0  0  0  0  0  0  0  0  0  0  0  0
    5.9137    3.4474   -9.7043 H   0  0  0  0  0  0  0  0  0  0  0  0
    7.8816    4.6870   -8.8973 H   0  0  0  0  0  0  0  0  0  0  0  0
    8.2049    6.0196   -5.4704 H   0  0  0  0  0  0  0  0  0  0  0  0
    8.8312    6.1095   -7.1226 H   0  0  0  0  0  0  0  0  0  0  0  0
    9.8283    3.8369   -6.8680 H   0  0  0  0  0  0  0  0  0  0  0  0
   10.4385    4.9390   -5.6287 H   0  0  0  0  0  0  0  0  0  0  0  0
    9.2025    3.7428   -5.2226 H   0  0  0  0  0  0  0  0  0  0  0  0
    6.3289    4.5673   -4.9284 H   0  0  0  0  0  0  0  0  0  0  0  0
   -0.9412  -10.0354   -0.5785 H   0  0  0  0  0  0  0  0  0  0  0  0
   -1.1983  -12.3045   -1.5008 H   0  0  0  0  0  0  0  0  0  0  0  0
   -2.1946  -12.6314   -3.7277 H   0  0  0  0  0  0  0  0  0  0  0  0
   -2.7716  -11.6512   -5.8847 H   0  0  0  0  0  0  0  0  0  0  0  0
   -2.8883   -9.8958   -6.0751 H   0  0  0  0  0  0  0  0  0  0  0  0
   -5.0610   -9.9111   -4.8444 H   0  0  0  0  0  0  0  0  0  0  0  0
   -4.9442  -11.6611   -4.6569 H   0  0  0  0  0  0  0  0  0  0  0  0
   -5.1276  -10.9565   -6.2667 H   0  0  0  0  0  0  0  0  0  0  0  0
   -2.6969   -8.4158   -4.1210 H   0  0  0  0  0  0  0  0  0  0  0  0
   -0.2244   -0.3825   -2.2100 H   0  0  0  0  0  0  0  0  0  0  0  0
    0.8280    1.0488   -2.1660 H   0  0  0  0  0  0  0  0  0  0  0  0
   -1.4277    1.5563   -3.1100 H   0  0  0  0  0  0  0  0  0  0  0  0
   -1.1651    0.3618   -4.3881 H   0  0  0  0  0  0  0  0  0  0  0  0
   -0.1690    1.8193   -4.3166 H   0  0  0  0  0  0  0  0  0  0  0  0
    0.6767   -3.3492   -0.5560 H   0  0  0  0  0  0  0  0  0  0  0  0
    0.9529   -1.7686   -1.2893 H   0  0  0  0  0  0  0  0  0  0  0  0
   -1.6569   -1.5354   -1.3485 H   0  0  0  0  0  0  0  0  0  0  0  0
   -1.7103   -3.0186   -0.4094 H   0  0  0  0  0  0  0  0  0  0  0  0
   -0.9384   -1.5868    0.2675 H   0  0  0  0  0  0  0  0  0  0  0  0
   -3.7717   -9.2361   -0.5988 H   0  0  0  0  0  0  0  0  0  0  0  0
   -4.8566  -10.3403    1.2936 H   0  0  0  0  0  0  0  0  0  0  0  0
   -2.4947   -8.0215    4.0095 H   0  0  0  0  0  0  0  0  0  0  0  0
   -1.4071   -6.9293    2.1210 H   0  0  0  0  0  0  0  0  0  0  0  0
   -4.8083  -10.9071    3.6242 H   0  0  0  0  0  0  0  0  0  0  0  0
   -5.5047   -5.8576    7.2435 H   0  0  0  0  0  0  0  0  0  0  0  0
   -6.9068  -10.5131    8.6639 H   0  0  0  0  0  0  0  0  0  0  0  0
   -7.1616   -8.3384   11.2952 H   0  0  0  0  0  0  0  0  0  0  0  0
   -9.6003   -8.8076   10.3323 H   0  0  0  0  0  0  0  0  0  0  0  0
   -9.8223   -7.2547   12.4399 H   0  0  0  0  0  0  0  0  0  0  0  0
   -9.0975   -4.7973   11.7371 H   0  0  0  0  0  0  0  0  0  0  0  0
   -8.4309   -4.8366    9.1961 H   0  0  0  0  0  0  0  0  0  0  0  0
   -8.9887   -7.2738    8.2119 H   0  0  0  0  0  0  0  0  0  0  0  0
  -10.3907   -6.6118    9.0828 H   0  0  0  0  0  0  0  0  0  0  0  0
   -6.4499   -5.9300   10.6031 H   0  0  0  0  0  0  0  0  0  0  0  0
  1  2  2  0  0  0  0
  2  3  1  0  0  0  0
  3  4  2  0  0  0  0
  3  5  1  0  0  0  0
  5  6  2  0  0  0  0
  6  7  1  0  0  0  0
  7  8  2  0  0  0  0
  8  9  1  0  0  0  0
  9 10  2  0  0  0  0
 10 11  1  0  0  0  0
 11 12  2  0  0  0  0
 12 13  1  0  0  0  0
 13 14  3  0  0  0  0
 12 15  1  0  0  0  0
 15 16  3  0  0  0  0
  8 17  1  0  0  0  0
 17 18  1  0  0  0  0
 18 19  1  0  0  0  0
 19 20  2  0  0  0  0
 20 21  1  0  0  0  0
 21 22  1  0  0  0  0
 21 23  1  0  0  0  0
  1 24  1  0  0  0  0
 24 25  1  0  0  0  0
 25 26  2  0  0  0  0
 26 27  1  0  0  0  0
 27 28  1  0  0  0  0
 28 29  1  0  0  0  0
 27 30  1  0  0  0  0
 30 31  2  0  0  0  0
 31 32  1  0  0  0  0
 32 33  2  0  0  0  0
 33 34  1  0  0  0  0
 33 35  1  0  0  0  0
 32 36  1  0  0  0  0
 36 37  2  0  0  0  0
 37 38  1  0  0  0  0
 38 39  2  0  0  0  0
 39 40  1  0  0  0  0
 40 41  2  0  0  0  0
 41 42  1  0  0  0  0
 42 43  1  0  0  0  0
 43 44  1  0  0  0  0
 42 45  2  0  0  0  0
 37 46  1  0  0  0  0
 46 47  1  0  0  0  0
 47 48  1  0  0  0  0
 48 49  1  0  0  0  0
 49 50  1  0  0  0  0
 50 51  1  0  0  0  0
 51 52  2  0  0  0  0
 52 53  1  0  0  0  0
 53 54  1  0  0  0  0
 51 55  1  0  0  0  0
 55 56  1  0  0  0  0
 56 57  1  0  0  0  0
 57 58  1  0  0  0  0
 58 59  1  0  0  0  0
 59 60  1  0  0  0  0
 60 61  2  0  0  0  0
 61 62  1  0  0  0  0
 62 63  2  0  0  0  0
 63 64  1  0  0  0  0
 64 65  1  0  0  0  0
 65 66  1  0  0  0  0
 64 67  2  0  0  0  0
 59 68  2  0  0  0  0
 68 69  1  0  0  0  0
 69 70  1  0  0  0  0
 70 71  1  0  0  0  0
 71 72  1  0  0  0  0
 72 73  1  0  0  0  0
 73 74  1  0  0  0  0
 74 75  1  0  0  0  0
 75 76  1  0  0  0  0
 76 77  1  0  0  0  0
 77 78  1  0  0  0  0
 75 79  1  0  0  0  0
 79 80  1  0  0  0  0
 72 81  1  0  0  0  0
 81 82  1  0  0  0  0
 68 83  1  0  0  0  0
 83 84  2  0  0  0  0
 84 85  1  0  0  0  0
 85 86  2  0  0  0  0
 86 87  1  0  0  0  0
 87 88  2  0  0  0  0
 86 89  1  0  0  0  0
 89 90  2  0  0  0  0
 90 91  1  0  0  0  0
 91 92  2  0  0  0  0
 91 93  1  0  0  0  0
 93 94  2  0  0  0  0
 94 95  1  0  0  0  0
 95 96  2  0  0  0  0
 96 97  1  0  0  0  0
 97 98  2  0  0  0  0
 98 99  1  0  0  0  0
 99100  2  0  0  0  0
100101  1  0  0  0  0
101102  3  0  0  0  0
100103  1  0  0  0  0
103104  3  0  0  0  0
 96105  1  0  0  0  0
105106  1  0  0  0  0
106107  1  0  0  0  0
107108  2  0  0  0  0
108109  1  0  0  0  0
109110  1  0  0  0  0
109111  1  0  0  0  0
 11  2  1  0  0  0  0
 23 17  1  0  0  0  0
 34 24  2  0  0  0  0
 78 36  1  0  0  0  0
 88 83  1  0  0  0  0
 99 90  1  0  0  0  0
111105  1  0  0  0  0
 10  5  1  0  0  0  0
 22 18  1  0  0  0  0
 31 25  1  0  0  0  0
 45 38  1  0  0  0  0
 77 46  2  0  0  0  0
 98 93  1  0  0  0  0
110106  1  0  0  0  0
 23  7  1  0  0  0  0
 76 48  2  0  0  0  0
111 95  1  0  0  0  0
 74 49  2  0  0  0  0
 54 50  2  0  0  0  0
 73 55  2  0  0  0  0
 71 56  2  0  0  0  0
 70 58  2  0  0  0  0
 67 60  1  0  0  0  0
  1112  1  0  0  0  0
  6113  1  0  0  0  0
  9114  1  0  0  0  0
 17115  1  0  0  0  0
 18116  1  0  0  0  0
 19117  1  0  0  0  0
 20118  1  0  0  0  0
 21119  1  0  0  0  0
 22120  1  0  0  0  0
 22121  1  0  0  0  0
 23122  1  0  0  0  0
 28123  1  0  0  0  0
 28124  1  0  0  0  0
 29125  1  0  0  0  0
 29126  1  0  0  0  0
 29127  1  0  0  0  0
 34128  1  0  0  0  0
 39129  1  0  0  0  0
 40130  1  0  0  0  0
 41131  1  0  0  0  0
 43132  1  0  0  0  0
 43133  1  0  0  0  0
 44134  1  0  0  0  0
 44135  1  0  0  0  0
 44136  1  0  0  0  0
 45137  1  0  0  0  0
 61138  1  0  0  0  0
 62139  1  0  0  0  0
 63140  1  0  0  0  0
 65141  1  0  0  0  0
 65142  1  0  0  0  0
 66143  1  0  0  0  0
 66144  1  0  0  0  0
 66145  1  0  0  0  0
 67146  1  0  0  0  0
 79147  1  0  0  0  0
 79148  1  0  0  0  0
 80149  1  0  0  0  0
 80150  1  0  0  0  0
 80151  1  0  0  0  0
 81152  1  0  0  0  0
 81153  1  0  0  0  0
 82154  1  0  0  0  0
 82155  1  0  0  0  0
 82156  1  0  0  0  0
 84157  1  0  0  0  0
 85158  1  0  0  0  0
 87159  1  0  0  0  0
 88160  1  0  0  0  0
 89161  1  0  0  0  0
 94162  1  0  0  0  0
 97163  1  0  0  0  0
105164  1  0  0  0  0
106165  1  0  0  0  0
107166  1  0  0  0  0
108167  1  0  0  0  0
109168  1  0  0  0  0
110169  1  0  0  0  0
110170  1  0  0  0  0
111171  1  0  0  0  0
M  END
