173

C          9.84700        1.67520       -3.93990
C          9.94170        2.76590       -4.73810
C          8.83010        3.43800       -5.46850
O          7.75710        2.98310       -5.80150
C          9.28710        4.82460       -5.67700
C          8.53240        5.87960       -6.18880
C          9.20830        7.07390       -6.24800
C         10.53870        7.21520       -5.82720
C         11.29570        6.18520       -5.32310
C         10.62620        4.95860       -5.25700
C         11.08850        3.66580       -4.77230
C         12.37940        3.31750       -4.48760
C         12.78870        2.00950       -4.14560
N         13.19280        0.96400       -3.89920
C         13.47580        4.20180       -4.56890
N         14.40160        4.87840       -4.61580
C         10.57080        8.68620       -6.15830
C         11.30130        9.08680       -7.45760
C         10.76680       10.46810       -7.76040
C          9.50830       10.33540       -8.15940
C          9.17090        8.86190       -8.13320
C         10.53640        8.27180       -8.50840
C          9.08900        8.52870       -6.62830
C          8.72960        0.77360       -3.81830
C          7.95070        0.36810       -4.90520
C          6.85450       -0.46480       -4.74930
O          6.01260       -0.82240       -5.74220
C          6.19490       -0.30580       -7.04930
C          7.24490       -1.07500       -7.84340
C          6.52700       -0.94270       -3.45720
C          7.30860       -0.55460       -2.37150
C          8.39660        0.26440       -2.55810
F          9.12890        0.62890       -1.48400
C          5.35070       -1.75900       -3.24150
C          4.85740       -2.80950       -3.98350
C          5.56930       -3.46020       -5.08170
C          6.94200       -3.68300       -5.00330
C          7.59620       -4.32750       -6.03520
C          6.89370       -4.75580       -7.14910
C          5.52270       -4.54860       -7.24040
C          4.75900       -4.96940       -8.46340
C          4.70620       -3.82780       -9.48090
C          4.87230       -3.90110       -6.20110
C          3.60700       -3.24360       -3.48650
S          2.50010       -4.50350       -3.98250
C          1.44070       -4.05450       -2.68820
C          0.17330       -4.38100       -2.18220
C         -0.77950       -5.31040       -2.65000
C         -2.05780       -5.37020       -2.00730
N         -2.86750       -6.25570       -2.56730
S         -2.08260       -6.95630       -3.79920
N         -0.68170       -6.15460       -3.66530
C         -2.29610       -4.54190       -0.89050
C         -3.42620       -4.43810       -0.06660
S         -5.02040       -5.09830        0.07330
C         -5.27240       -4.12450        1.50520
C         -6.38870       -3.94100        2.34430
C         -7.67620       -4.58460        2.07820
C         -8.85620       -3.84440        2.05160
C        -10.05000       -4.46580        1.74090
C        -10.07930       -5.81860        1.44580
C         -8.91090       -6.56900        1.45730
C         -8.91630       -8.01950        1.07140
C         -8.55640       -8.16980       -0.40830
C         -7.71550       -5.94060        1.77370
C         -6.11370       -3.02630        3.34980
S         -4.48210       -2.37920        3.23800
C         -4.16420       -3.34180        1.83980
C         -3.11110       -3.52000        0.93560
N         -1.83680       -3.05530        0.76170
C         -1.31150       -3.64620       -0.37480
C         -0.07650       -3.51780       -1.07370
N          1.01520       -2.67540       -0.94590
C          1.92570       -3.00470       -1.91030
C          3.16740       -2.53970       -2.36620
S          4.30460       -1.32540       -1.90250
C          1.29560       -1.53730       -0.10390
C          2.23490       -1.90280        1.04580
C         -1.27580       -2.20060        1.78120
C         -1.72970       -0.74890        1.62080
C         -6.90430       -2.55270        4.42750
C         -8.03260       -3.14450        4.97630
C         -8.62090       -2.45600        6.02770
C         -9.81410       -3.01970        6.73670
C         -9.39570       -3.74540        8.01860
C         -7.98060       -1.25240        6.39480
Se        -6.45810       -0.96050        5.30330
C         -8.46350       -0.42780        7.41390
C         -7.98670        0.76230        7.91990
C         -6.79000        1.45860        7.47390
O         -6.01330        1.10940        6.59080
C         -6.67950        2.68060        8.28430
C         -5.69150        3.65830        8.20530
C         -5.85580        4.69070        9.09760
C         -6.92610        4.74710        9.99890
C         -7.91020        3.78930       10.08330
C         -7.76100        2.72810        9.18760
C         -8.59260        1.54000        8.97950
C         -9.73830        1.24750        9.67720
C        -10.55660        0.11590        9.48320
N        -11.27780       -0.77530        9.39790
C        -10.27700        2.04960       10.70420
N        -10.77820        2.64450       11.54930
C         -6.45740        6.04990       10.59750
C         -5.75050        5.99840       11.97450
C         -5.12900        4.62850       12.08620
C         -4.11490        4.57320       11.23320
C         -4.03240        5.90510       10.52920
C         -4.50200        6.83710       11.65750
C         -5.26370        5.98620        9.59310
H         10.65330        1.49020       -3.23830
H          7.50810        5.73110       -6.49290
H         12.31260        6.30790       -4.98880
H         10.78580        9.35380       -5.32620
H         12.38150        8.97540       -7.42490
H         11.32280       11.37380       -7.60510
H          8.80300       11.10790       -8.40380
H          8.31030        8.54670       -8.71710
H         10.60720        7.19420       -8.37210
H         10.83120        8.53040       -9.52390
H          8.31500        9.09130       -6.10940
H          8.22820        0.72720       -5.87950
H          5.21620       -0.43120       -7.52130
H          6.42790        0.76420       -7.00760
H          8.22850       -0.98510       -7.38940
H          7.28830       -0.68700       -8.85740
H          6.98010       -2.12860       -7.87440
H          7.06640       -0.90060       -1.37810
H          7.48910       -3.36420       -4.12830
H          8.66050       -4.50060       -5.97040
H          7.41270       -5.26020       -7.95190
H          5.23830       -5.83740       -8.92010
H          3.74180       -5.24790       -8.18230
H          4.13020       -4.12350      -10.35460
H          4.24070       -2.94960       -9.03890
H          5.70980       -3.55830       -9.80330
H          3.80900       -3.72470       -6.26880
H         -8.82950       -2.78540        2.26160
H        -10.96360       -3.88980        1.72090
H        -11.01750       -6.29480        1.19970
H         -9.90340       -8.44990        1.25080
H         -8.18870       -8.56630        1.67470
H         -9.28020       -7.64470       -1.02780
H         -7.57220       -7.74980       -0.60300
H         -8.55090       -9.21900       -0.69360
H         -6.80120       -6.51580        1.79470
H          1.79170       -0.78870       -0.73100
H          0.36740       -1.10170        0.25170
H          3.20970       -2.18010        0.65330
H          2.36010       -1.04990        1.70700
H          1.85330       -2.74420        1.62070
H         -1.63820       -2.57060        2.74650
H         -0.19360       -2.29210        1.78280
H         -1.20490       -0.11690        2.33170
H         -1.54460       -0.38120        0.61340
H         -2.79590       -0.66810        1.81440
H         -8.41820       -4.08610        4.62200
H        -10.53370       -2.23770        6.98500
H        -10.30970       -3.72980        6.07190
H         -8.89970       -3.06250        8.70420
H         -8.71120       -4.55860        7.78690
H        -10.27120       -4.15440        8.51520
H         -9.37250       -0.79270        7.87350
H         -4.88570        3.57570        7.49290
H         -8.72770        3.85220       10.78170
H         -7.14750        6.88750       10.51660
H         -6.36790        6.31510       12.81070
H         -5.51480        3.84550       12.71230
H         -3.48430        3.73420       11.00380
H         -3.08470        6.13690       10.05000
H         -4.73170        7.84660       11.31890
H         -3.80010        6.87880       12.48910
H         -5.17370        6.78330        8.85750
