171

C          4.28590        9.57570       -3.01990
C          3.89000       10.26490       -1.91880
C          4.52920       11.57320       -1.59800
O          5.19420       12.25770       -2.34160
C          4.22720       11.81260       -0.17250
C          4.71180       12.84140        0.63240
C          4.27400       12.78920        1.93420
C          3.41150       11.79000        2.40570
C          2.91790       10.77440        1.62250
C          3.35540       10.80660        0.29620
C          3.01940        9.92610       -0.81710
C          1.94560        9.07660       -0.87130
C          1.16900        8.69890        0.23860
N          0.54620        8.28900        1.11330
C          1.48380        8.48320       -2.06410
N          1.04090        8.00460       -3.00890
C          3.39780       12.34980        3.80570
C          4.25260       11.63130        4.87870
C          5.38080       10.95170        4.14310
C          6.19950       11.89510        3.69700
C          5.64000       13.22960        4.12340
C          5.00090       12.83870        5.46570
C          4.36030       13.46180        3.28180
C          4.12550        8.19000       -3.33190
C          3.91800        7.17130       -2.37180
N          3.82880        7.21150       -1.03510
N          3.62510        5.97150       -0.68240
C          3.41580        5.61130        0.69170
C          4.56710        6.10600        1.55680
N          3.57860        5.09340       -1.64020
C          3.76320        5.80970       -2.75840
C          3.82160        5.37670       -4.10320
C          4.02940        6.41470       -5.00970
C          4.20380        7.74520       -4.64870
F          4.01710        6.15350       -6.33230
C          3.60300        3.99770       -4.42530
C          4.07320        3.23640       -5.48460
C          5.11010        3.64640       -6.42980
C          5.00520        3.31810       -7.77780
C          6.00250        3.69450       -8.65680
C          7.10850        4.39040       -8.20300
C          7.23510        4.71710       -6.85810
C          8.45770        5.42970       -6.35420
C          9.55310        4.42410       -5.99480
C          6.23470        4.33340       -5.98060
C          3.51400        1.94350       -5.46290
S          3.70620        0.54220       -6.49330
C          2.63150       -0.34160       -5.46140
C          2.03980       -1.61440       -5.36430
C          2.04740       -2.73290       -6.22690
C          1.25350       -3.88290       -5.88700
N          1.30980       -4.82650       -6.81320
S          2.27980       -4.31870       -8.00650
N          2.66670       -2.87360       -7.38800
C          0.60030       -3.91940       -4.63480
C         -0.05170       -4.95780       -3.94830
S         -0.53020       -6.60200       -4.20460
C         -1.08140       -6.67710       -2.54710
C         -1.63560       -7.71790       -1.77000
C         -1.81620       -9.07670       -2.28610
C         -1.38990      -10.18020       -1.55020
C         -1.53110      -11.45090       -2.07250
C         -2.08990      -11.63380       -3.32620
C         -2.50840      -10.54420       -4.07880
C         -3.14550      -10.73440       -5.42510
C         -4.66710      -10.82150       -5.29090
C         -2.36650       -9.27040       -3.54830
C         -1.87890       -7.30320       -0.47550
S         -1.39790       -5.63510       -0.20800
C         -0.89520       -5.48190       -1.85180
C         -0.32040       -4.49090       -2.65890
N          0.10560       -3.19550       -2.53230
C          0.66000       -2.81620       -3.74010
C          1.25990       -1.60880       -4.17520
N          1.32720       -0.35070       -3.59930
C          2.16340        0.40730       -4.37970
C          2.65810        1.71560       -4.38190
S          2.52930        3.10140       -3.36440
C          0.31860        0.33160       -2.81680
C         -0.67370        1.06530       -3.71890
C          0.24440       -2.59540       -1.22450
C         -1.10000       -2.15190       -0.64620
C         -2.51040       -7.99520        0.62230
C         -3.48910       -8.97530        0.40920
C         -4.09920       -9.59110        1.47420
C         -3.79420       -9.23270        2.79720
C         -2.79860       -8.27090        3.00710
C         -2.17650       -7.66640        1.94110
C         -4.47860       -9.90340        3.86820
C         -4.79830       -9.42510        5.09940
C         -4.80400       -7.99790        5.52410
O         -4.37540       -7.03160        4.93160
C         -5.52770       -7.96900        6.80930
C         -5.81780       -6.83710        7.56970
C         -6.50650       -7.10260        8.72790
C         -6.88640       -8.39940        9.10200
C         -6.60690       -9.52340        8.36310
C         -5.90090       -9.27560        7.18020
C         -5.42260      -10.20200        6.16090
C         -5.47750      -11.56860        6.23530
C         -4.92080      -12.46000        5.29300
N         -4.48110      -13.25590        4.59120
C         -6.07420      -12.28830        7.29200
N         -6.54510      -12.93840        8.11290
C         -7.55430       -7.92460       10.36840
C         -9.09550       -7.84550       10.34830
C         -9.42480       -6.92220       11.49910
C         -9.06280       -5.69490       11.14800
C         -8.48320       -5.76780        9.75370
C         -9.34320       -6.89570        9.16910
C         -7.12820       -6.47980        9.95330
H          4.86350       10.15210       -3.73630
H          5.37040       13.59600        0.23150
H          2.25740       10.00820        1.99420
H          2.42530       12.65570        4.18640
H          3.68500       11.01070        5.56700
H          5.43580        9.89140        3.97810
H          7.07460       11.78040        3.08460
H          6.33690       14.06350        4.12510
H          4.33980       13.60370        5.87050
H          5.73710       12.55420        6.21600
H          4.01800       14.49390        3.32460
H          3.32350        4.52460        0.71880
H          2.47640        6.06430        1.02660
H          4.36530        5.88210        2.60010
H          5.49840        5.62430        1.26790
H          4.67790        7.18120        1.44020
H          4.34200        8.45960       -5.44610
H          4.13350        2.79240       -8.13580
H          5.91370        3.44740       -9.70430
H          7.88160        4.68700       -8.89730
H          8.20490        6.01960       -5.47040
H          8.83120        6.10950       -7.12260
H          9.82830        3.83690       -6.86800
H         10.43850        4.93900       -5.62870
H          9.20250        3.74280       -5.22260
H          6.32890        4.56730       -4.92840
H         -0.94120      -10.03540       -0.57850
H         -1.19830      -12.30450       -1.50080
H         -2.19460      -12.63140       -3.72770
H         -2.77160      -11.65120       -5.88470
H         -2.88830       -9.89580       -6.07510
H         -5.06100       -9.91110       -4.84440
H         -4.94420      -11.66110       -4.65690
H         -5.12760      -10.95650       -6.26670
H         -2.69690       -8.41580       -4.12100
H         -0.22440       -0.38250       -2.21000
H          0.82800        1.04880       -2.16600
H         -1.42770        1.55630       -3.11000
H         -1.16510        0.36180       -4.38810
H         -0.16900        1.81930       -4.31660
H          0.67670       -3.34920       -0.55600
H          0.95290       -1.76860       -1.28930
H         -1.65690       -1.53540       -1.34850
H         -1.71030       -3.01860       -0.40940
H         -0.93840       -1.58680        0.26750
H         -3.77170       -9.23610       -0.59880
H         -4.85660      -10.34030        1.29360
H         -2.49470       -8.02150        4.00950
H         -1.40710       -6.92930        2.12100
H         -4.80830      -10.90710        3.62420
H         -5.50470       -5.85760        7.24350
H         -6.90680      -10.51310        8.66390
H         -7.16160       -8.33840       11.29520
H         -9.60030       -8.80760       10.33230
H         -9.82230       -7.25470       12.43990
H         -9.09750       -4.79730       11.73710
H         -8.43090       -4.83660        9.19610
H         -8.98870       -7.27380        8.21190
H        -10.39070       -6.61180        9.08280
H         -6.44990       -5.93000       10.60310
