209

C          2.36900        2.90570       -8.47610
C          3.55860        2.74370       -7.84670
C          3.92510        1.60940       -6.95240
O          3.39740        0.52410       -6.85350
C          5.04180        2.10980       -6.12670
C          5.64800        1.44470       -5.06210
C          6.63250        2.16840       -4.43490
C          6.98800        3.46600       -4.83120
C          6.41140        4.12770       -5.88890
C          5.40770        3.40490       -6.54440
C          4.56650        3.78140       -7.67310
C          4.73120        4.87890       -8.47350
C          5.73800        5.85090       -8.29580
N          6.52770        6.67880       -8.20150
C          3.94320        5.16490       -9.60930
N          3.35360        5.45520      -10.55080
C          8.01310        3.60560       -3.73320
C          7.60180        4.44660       -2.50600
C          8.57110        4.01620       -1.42790
C          8.24580        2.78440       -1.05780
C          7.05030        2.36010       -1.88110
C          6.34130        3.71260       -2.02970
C          7.62540        2.15580       -3.29930
C          1.31640        1.92580       -8.60040
C          0.00760        2.35750       -8.36350
C         -0.99740        1.41160       -8.31570
N         -2.31900        1.55740       -7.96460
C         -2.94030        2.77700       -7.52180
C         -2.76330        2.99070       -6.01870
C         -2.88410        0.30800       -7.89220
C         -1.94540       -0.66260       -8.32470
C         -0.72850        0.04270       -8.58380
C          0.56030       -0.35350       -8.92790
C          1.57190        0.57940       -8.91340
C         -2.30100       -2.00750       -8.31620
C         -3.51870       -2.37680       -7.79010
C         -4.41180       -1.42250       -7.27000
C         -4.11220       -0.06520       -7.37860
C         -5.50420       -1.81970       -6.39810
C         -6.27640       -2.95290       -6.31090
C         -6.41170       -4.00990       -7.36230
C         -5.77510       -5.33150       -6.92910
C         -6.96600       -3.01370       -5.07570
C         -6.73340       -1.92520       -4.24150
S         -5.69830       -0.77240       -4.99250
C         -7.26110       -2.10960       -2.95820
C         -7.87790       -3.35390       -2.80980
S         -7.90850       -4.26720       -4.28730
C         -8.07960       -3.54400       -1.42780
C         -8.38170       -4.69530       -0.66190
N         -8.85390       -5.85650       -1.08220
S         -8.85490       -6.89680        0.15960
N         -8.24260       -5.90650        1.28560
C         -8.02510       -4.72320        0.73700
C         -7.51150       -3.55480        1.34610
C         -6.91040       -3.28240        2.59320
S         -6.22440       -4.13620        3.94420
C         -5.41980       -2.66420        4.45500
C         -4.35800       -2.39740        5.32690
C         -3.90020       -1.10210        5.21480
S         -4.87360       -0.15460        4.08780
C         -5.77980       -1.56150        3.67560
C         -6.60810       -1.91780        2.61020
N         -7.00070       -1.32600        1.43720
C         -7.34540        0.07900        1.39250
C         -8.31790        0.44640        2.51250
C         -7.47810       -2.33520        0.61980
C         -7.60820       -2.36680       -0.78750
N         -7.12820       -1.49630       -1.74400
C         -6.26860       -0.34400       -1.60860
C         -6.95940        0.93770       -2.06960
C         -2.62510       -0.58690        5.56670
C         -2.18460        0.71810        5.36060
N         -3.02850        1.80310        5.19580
C         -2.69340        2.77230        4.23570
C         -2.81230        4.13090        4.51420
C         -2.46680        5.06440        3.55850
C         -1.98800        4.67630        2.31190
C         -1.58880        5.70290        1.29660
C         -1.87000        3.31870        2.04430
C         -2.22160        2.37410        2.98820
C         -4.12390        1.98510        6.05040
C         -4.10100        1.50120        7.35670
C         -5.19760        1.66360        8.17750
C         -6.34330        2.31350        7.73100
C         -7.52020        2.48480        8.64190
C         -6.35650        2.79840        6.43010
C         -5.26850        2.63620        5.59520
C         -0.77750        0.76880        5.27490
S          0.33130        2.02040        4.85630
C          1.63750        0.82870        4.72150
C          1.24770       -0.43870        5.21810
N          2.09540       -1.45890        5.50730
C          1.62070       -2.77830        5.69610
C          0.80890       -3.39410        4.75050
C          0.36760       -4.68610        4.96350
C          0.72670       -5.38840        6.10750
C          0.21680       -6.77600        6.34630
C          1.55920       -4.76880        7.03290
C          2.00680       -3.47760        6.83390
C          3.48840       -1.26950        5.58430
C          4.34000       -2.15060        4.92480
C          5.70450       -1.92440        4.92280
C          6.25020       -0.83220        5.58340
C          7.72230       -0.56330        5.55030
C          5.39480        0.00520        6.29550
C          4.03220       -0.20530        6.29920
C         -0.14320       -0.45510        5.46700
S         -1.29490       -1.69760        5.85580
C          2.79180        1.23990        4.05500
C          3.60730        0.42690        3.29290
C          3.15940       -0.83910        2.69900
O          2.07690       -1.38420        2.82980
C          4.22970       -1.25120        1.76820
C          4.25310       -2.39120        0.97070
C          5.36460       -2.48840        0.16740
C          6.36610       -1.51110        0.14020
C          6.36110       -0.38840        0.93610
C          5.24990       -0.28200        1.77560
C          4.90100        0.74310        2.75970
C          5.72440        1.75650        3.19020
C          5.40150        2.63340        4.24320
N          5.22070        3.36440        5.11130
C          7.01080        2.00310        2.67990
N          8.06890        2.24830        2.30340
C          7.15050       -2.23140       -0.92990
C          7.02030       -1.68950       -2.37000
C          7.49250       -2.83880       -3.23120
C          6.56160       -3.78340       -3.18820
C          5.44390       -3.28700       -2.30000
C          5.50840       -1.78630       -2.60980
C          6.04520       -3.33470       -0.88070
H          2.12000        3.89700       -8.83940
H          5.33840        0.44990       -4.78410
H          6.69420        5.12420       -6.18540
H          9.03380        3.79880       -4.05730
H          7.51990        5.51390       -2.69310
H          9.39750        4.61310       -1.09100
H          8.74140        2.15720       -0.34130
H          6.46260        1.52740       -1.50180
H          5.98220        4.09290       -1.07480
H          5.52600        3.71090       -2.75160
H          8.39270        1.38490       -3.34610
H         -0.18170        3.39760       -8.14170
H         -4.00400        2.73120       -7.77130
H         -2.49900        3.60960       -8.07580
H         -3.23290        3.92230       -5.71470
H         -3.21710        2.17150       -5.46560
H         -1.70610        3.03120       -5.76640
H          0.76880       -1.38520       -9.16520
H          2.57840        0.28430       -9.15940
H         -1.60780       -2.75720       -8.66610
H         -3.76060       -3.42290       -7.70660
H         -4.80760        0.66860       -6.99840
H         -5.96440       -3.65980       -8.29370
H         -7.47750       -4.17860       -7.53910
H         -5.86050       -6.06510       -7.72700
H         -4.72170       -5.19730       -6.69170
H         -6.27560       -5.72110       -6.04640
H         -3.89200       -3.12530        5.96550
H         -7.81820        0.28620        0.43440
H         -6.43460        0.68010        1.49530
H         -9.20960       -0.17460        2.45860
H         -8.60980        1.48830        2.41200
H         -7.85490        0.31120        3.48640
H         -5.92470       -0.26950       -0.57900
H         -5.38950       -0.51060       -2.24170
H         -7.88770        1.10790       -1.52910
H         -7.19110        0.87260       -3.12950
H         -6.30140        1.78720       -1.91090
H         -3.16960        4.44750        5.48270
H         -2.55960        6.11620        3.78770
H         -2.28440        6.53950        1.29770
H         -0.59790        6.09240        1.53160
H         -1.55530        5.27180        0.29890
H         -1.50130        2.99330        1.08210
H         -2.13440        1.32080        2.76380
H         -3.21870        1.00110        7.72830
H         -5.16270        1.28380        9.18840
H         -7.83380        1.52330        9.04570
H         -8.35890        2.93230        8.11470
H         -7.25760        3.12730        9.48200
H         -7.23600        3.30360        6.05710
H         -5.30100        3.00520        4.58100
H          0.56140       -2.86330        3.84510
H         -0.26200       -5.15890        4.22400
H         -0.72690       -6.73390        6.89130
H          0.03730       -7.29140        5.40580
H          0.92170       -7.35380        6.93930
H          1.85850       -5.30310        7.92290
H          2.65420       -3.00320        7.55730
H          3.92540       -2.99860        4.40030
H          6.35120       -2.60000        4.38160
H          8.18450       -1.03830        4.68810
H          7.91740        0.50640        5.50980
H          8.19630       -0.95510        6.45060
H          5.80260        0.84270        6.84170
H          3.38400        0.46410        6.84460
H          2.98740        2.30600        4.06270
H          3.45230       -3.11340        1.00920
H          7.14150        0.35400        0.91470
H          8.17250       -2.50360       -0.67170
H          7.49330       -0.72630       -2.53840
H          8.44840       -2.86910       -3.72050
H          6.58440       -4.75990       -3.63550
H          4.48050       -3.77870       -2.40510
H          5.23820       -1.57600       -3.64320
H          4.90960       -1.16890       -1.94230
H          6.32950       -4.33840       -0.56960
