179

C         11.12880        3.67590       -2.88680
C         10.70480        4.54240       -3.84340
C          9.43600        4.41480       -4.61060
O          8.61870        3.52110       -4.56280
C          9.43470        5.53580       -5.56840
C          8.43220        5.84200       -6.48690
C          8.70440        6.93710       -7.26990
C          9.89560        7.66780       -7.15930
C         10.89850        7.36850       -6.26910
C         10.63660        6.26190       -5.45290
C         11.44880        5.66020       -4.39960
C         12.66730        6.11890       -3.97270
C         13.34600        7.22550       -4.52560
N         13.95740        8.11120       -4.92570
C         13.42380        5.56970       -2.91560
N         14.09860        5.19610       -2.06470
C          9.49760        8.63330       -8.24800
C          9.00520       10.02270       -7.79020
C          8.25160       10.55200       -8.98890
C          7.12390        9.86080       -9.09410
C          7.09640        8.85250       -7.96810
C          7.82660        9.65130       -6.88080
C          8.16980        7.81880       -8.37080
C         10.29630        2.72490       -2.21070
C          8.95030        2.99390       -1.87660
N          8.20220        4.09470       -2.02130
N          7.04600        3.76650       -1.52190
C          5.92680        4.65950       -1.59680
C          5.23800        4.49960       -2.94920
N          6.93250        2.56490       -1.03360
C          8.14130        2.01780       -1.22860
C          8.63020        0.74580       -0.85480
C          9.96490        0.53600       -1.19030
C         10.77490        1.48390       -1.80910
F         10.52400       -0.66990       -0.95970
C          7.75900       -0.20780       -0.22730
C          8.03760       -1.17240        0.72590
C          9.30910       -1.29840        1.43630
C          9.84980       -2.55120        1.70790
C         11.05550       -2.64760        2.37540
C         11.72790       -1.50630        2.77650
C         11.19210       -0.24820        2.53200
C         11.92930        1.00180        2.91980
C         12.66940        1.57720        1.71040
C          9.97850       -0.15790        1.86980
C          6.89000       -1.93610        1.02020
S          6.58130       -3.24500        2.13860
C          4.91340       -3.23100        1.66910
C          3.69760       -3.85540        2.00960
C          3.32110       -4.75410        3.03470
C          1.92130       -5.01600        3.26500
N          1.72340       -5.80040        4.31220
S          3.16090       -6.18810        4.94770
N          4.09670       -5.36460        3.91580
C          0.96160       -4.49140        2.36900
C         -0.43860       -4.60280        2.26370
S         -1.78150       -5.21500        3.17050
C         -2.86580       -4.60040        1.94450
C         -4.27110       -4.52690        1.86390
C         -5.13670       -4.95610        2.96370
C         -4.94910       -6.20170        3.55380
C         -5.73990       -6.58280        4.62060
C         -6.71070       -5.72730        5.11150
C         -6.90480       -4.47520        4.54040
C         -7.93570       -3.52280        5.07590
C         -7.28210       -2.46800        5.97030
C         -6.10580       -4.09810        3.47220
C         -4.67340       -3.88150        0.70760
S         -3.31090       -3.33840       -0.26570
C         -2.19940       -3.98450        0.88340
C         -0.81390       -3.97460        1.07060
N          0.29010       -3.45750        0.43860
C          1.37700       -3.72670        1.24960
C          2.71010       -3.27430        1.17370
N          3.28490       -2.29490        0.38510
C          4.62270       -2.27330        0.69200
C          5.74940       -1.53080        0.32330
S          6.07740       -0.19890       -0.72250
C          2.63900       -1.09420       -0.10510
C          2.77560        0.05460        0.89420
C          0.32020       -3.30200       -1.00220
C         -0.06730       -4.60070       -1.70860
C         -5.99630       -3.57630        0.24860
C         -7.13770       -4.32060        0.62830
N         -7.26280       -5.49260        1.26580
N         -8.54530       -5.69710        1.31500
C         -9.09510       -6.85850        1.95250
C         -9.83050       -6.45920        3.22620
N         -9.31090       -4.78980        0.77550
C         -8.45400       -3.87230        0.31370
C         -8.68620       -2.69800       -0.43660
C         -7.53170       -2.10280       -0.92800
C         -6.24090       -2.49540       -0.59010
F         -7.65610       -1.00000       -1.69610
C         -9.99620       -2.15830       -0.66880
C        -10.93810       -2.04220        0.29970
C        -10.65020       -2.11220        1.75680
O         -9.61990       -2.44500        2.30350
C        -11.84130       -1.55150        2.42080
C        -12.00030       -1.32230        3.78610
C        -13.19420       -0.73070        4.11990
C        -14.16060       -0.38360        3.16530
C        -14.01670       -0.60080        1.81610
C        -12.80980       -1.20780        1.45550
C        -12.30120       -1.56810        0.13730
C        -13.00360       -1.54650       -1.03680
C        -12.49560       -1.99500       -2.27550
N        -12.16010       -2.36130       -3.31030
C        -14.34150       -1.11700       -1.15780
N        -15.42660       -0.77890       -1.32040
C        -15.09840        0.17910        4.20340
C        -16.31650       -0.68250        4.61860
C        -15.92620       -2.11980        4.37860
C        -15.01320       -2.44790        5.28290
C        -14.76850       -1.23780        6.15020
C        -16.17310       -0.61390        6.14740
C        -14.02250       -0.20770        5.26660
H         12.17060        3.67590       -2.59260
H          7.53560        5.24470       -6.54710
H         11.81390        7.93250       -6.20740
H         10.16240        8.67950       -9.10820
H          9.77690       10.66440       -7.37420
H          8.62960       11.31140       -9.64780
H          6.37200        9.92710       -9.85850
H          6.12820        8.42880       -7.71470
H          7.26120       10.52580       -6.56280
H          8.10700        9.06210       -6.00960
H          7.94910        7.32090       -9.31310
H          6.30590        5.67650       -1.47890
H          5.24700        4.40950       -0.78050
H          5.95700        4.66520       -3.74800
H          4.83560        3.49450       -3.04730
H          4.42790        5.21700       -3.04340
H         11.79210        1.19990       -2.03400
H          9.33650       -3.44060        1.37580
H         11.47870       -3.62040        2.57780
H         12.67600       -1.59130        3.28790
H         11.22390        1.74620        3.29650
H         12.64710        0.78000        3.71150
H         11.96570        1.83350        0.92090
H         13.37220        0.84630        1.31690
H         13.21850        2.47370        1.98840
H          9.54100        0.81540        1.69180
H         -4.19880       -6.87270        3.16420
H         -5.59810       -7.55300        5.07410
H         -7.32260       -6.03330        5.94920
H         -8.68190       -4.07080        5.65650
H         -8.44000       -3.03090        4.24200
H         -6.53740       -1.90580        5.41200
H         -6.78860       -2.94130        6.81710
H         -8.02850       -1.77270        6.34790
H         -6.24370       -3.12290        3.02690
H          1.58090       -1.28960       -0.26100
H          3.10510       -0.81750       -1.05570
H          2.35210       -0.23280        1.85440
H          3.81770        0.32470        1.03770
H          2.24150        0.92460        0.52240
H          1.33220       -3.03500       -1.30470
H         -0.37480       -2.50560       -1.28900
H         -1.09320       -4.87690       -1.48230
H          0.02530       -4.47040       -2.78310
H          0.59030       -5.40890       -1.39570
H         -8.25730       -7.52180        2.17220
H         -9.78420       -7.33980        1.25330
H        -10.60520       -5.73390        2.99090
H         -9.13440       -6.01340        3.93130
H        -10.28690       -7.33400        3.68060
H         -5.42030       -1.89800       -0.95820
H        -10.18720       -1.76680       -1.66080
H        -11.22690       -1.59510        4.48740
H        -14.76080       -0.31520        1.09100
H        -15.35300        1.23150        4.09480
H        -17.26200       -0.36370        4.18860
H        -16.30040       -2.71350        3.56530
H        -14.47160       -3.37110        5.37640
H        -14.30520       -1.42390        7.11570
H        -16.19760        0.40160        6.54040
H        -16.90740       -1.22730        6.66720
H        -13.57340        0.59300        5.85140
