157

C          5.68140      -10.25550       -0.30940
C          4.65070      -10.84180       -0.99320
C          3.53010      -10.12910       -1.61750
O          3.35930       -8.92220       -1.66660
C          2.63920      -11.15980       -2.17220
C          1.43400      -10.95700       -2.84060
C          0.81020      -12.11670       -3.23340
C          1.34260      -13.38660       -2.97270
C          2.53070      -13.60030       -2.31500
C          3.18720      -12.43340       -1.91420
C          4.45310      -12.26400       -1.20250
C          5.29300      -13.28020       -0.82720
C          6.52530      -13.12720       -0.15740
N          7.53930      -13.09810        0.38200
C          5.05320      -14.64900       -1.07210
N          4.93420      -15.77950       -1.23390
C          0.19250      -14.09460       -3.64330
C          0.42910      -14.67310       -5.06010
C          1.52350      -13.84290       -5.68370
C          1.02500      -12.63990       -5.93590
C         -0.41560      -12.63500       -5.48770
C         -0.79650      -14.09420       -5.78480
C         -0.39760      -12.67970       -3.93930
C          5.93600       -8.89850       -0.04920
C          7.02130       -8.48390        0.71830
C          7.10510       -7.10890        0.87360
Cl         8.28720       -6.36770        1.87730
C          6.09480       -6.42050        0.20840
S          5.00820       -7.51990       -0.58350
C          5.84830       -5.01840        0.15410
C          6.74210       -3.96080        0.10740
C          8.18230       -4.10070       -0.09300
C          9.08020       -3.27910        0.58340
C         10.43830       -3.43980        0.38720
C         10.91190       -4.41200       -0.47730
C         10.02950       -5.22490       -1.17730
C         10.52110       -6.31590       -2.08460
C         10.37880       -7.67820       -1.40270
C          8.66810       -5.05170       -0.98560
C          6.06810       -2.72390        0.15390
S          6.63050       -1.06930        0.14620
C          4.98540       -0.53480        0.19280
C          4.25630        0.66190        0.26590
C          4.68570        1.99810        0.42030
C          3.70190        3.02290        0.61510
N          4.24370        4.21530        0.80740
S          5.85430        4.06230        0.74300
N          5.92230        2.46800        0.46950
C          2.33480        2.67990        0.53130
C          1.18300        3.48020        0.56820
S          0.74350        5.13520        0.82210
C         -0.92710        4.69970        0.55890
C         -2.10990        5.45510        0.56540
C         -2.14240        6.89140        0.87180
C         -2.50640        7.82770       -0.08970
C         -2.52490        9.17130        0.23860
C         -2.17640        9.58360        1.51180
C         -1.79210        8.66040        2.47780
C         -1.35760        9.11530        3.83890
C          0.11150        9.54140        3.81330
C         -1.77410        7.31540        2.14310
C         -3.21750        4.66470        0.30810
S         -2.78460        2.97910        0.03270
C         -1.11400        3.34080        0.28400
C          0.09730        2.64130        0.29910
N          0.52810        1.35270        0.13070
C          1.90580        1.34480        0.28230
C          2.87670        0.30810        0.26520
N          2.78400       -1.07450        0.23150
C          4.05610       -1.57760        0.19860
C          4.67570       -2.83410        0.18580
S          4.17350       -4.48710        0.17910
C          1.68320       -1.94340        0.58290
C          1.16400       -1.65040        1.98810
C         -0.34460        0.38720       -0.49950
C          0.11890        0.05230       -1.91480
C         -4.59000        5.01240        0.34410
C         -5.66640        4.14820        0.26720
C         -6.89290        4.79550        0.40100
Cl        -8.38900        3.97050        0.35860
C         -6.79840        6.16770        0.60720
S         -5.12030        6.64730        0.57360
C         -7.86300        7.08650        0.69620
C         -7.82750        8.40680        1.02580
C         -8.93030        9.30290        0.58340
O        -10.02430        8.96740        0.19000
C         -8.37600       10.66910        0.66750
C         -8.97240       11.85200        0.23410
C         -8.19470       12.97040        0.41590
C         -6.91200       12.92170        0.97890
C         -6.31370       11.76490        1.41830
C         -7.09400       10.61790        1.25350
C         -6.81780        9.23740        1.64400
C         -5.95660        8.86360        2.64320
C         -5.09510        9.75390        3.31090
N         -4.37910       10.43820        3.89270
C         -5.93450        7.57230        3.21000
N         -5.92530        6.55360        3.73950
C         -6.70740       14.41000        0.84130
C         -5.80850       14.88220       -0.32090
C         -6.17800       16.33760       -0.49550
C         -7.39320       16.38440       -1.02620
C         -7.86540       14.96130       -1.21930
C         -6.52770       14.27990       -1.53480
C         -8.13840       14.46510        0.21650
H          6.42850      -10.91260        0.11840
H          1.05730       -9.96080       -3.01260
H          2.92250      -14.58470       -2.12130
H         -0.38580      -14.76590       -3.01180
H          0.56720      -15.75040       -5.09030
H          2.53180      -14.18730       -5.82050
H          1.53410      -11.77780       -6.32530
H         -1.04690      -11.85710       -5.90930
H         -0.80110      -14.31980       -6.85010
H         -1.74490      -14.39430       -5.34110
H         -1.36420      -12.42890       -3.50640
H          7.71580       -9.17340        1.16390
H          8.71340       -2.53910        1.27820
H         11.13370       -2.80850        0.92020
H         11.97630       -4.53900       -0.61250
H          9.94050       -6.31560       -3.01010
H         11.56860       -6.14490       -2.33840
H         10.94210       -7.69490       -0.47250
H          9.33520       -7.88230       -1.17220
H         10.75180       -8.46910       -2.04910
H          7.97060       -5.66290       -1.54090
H         -2.76620        7.50220       -1.08620
H         -2.81270        9.89910       -0.50610
H         -2.20060       10.63310        1.76560
H         -1.97800        9.95480        4.15630
H         -1.48680        8.30400        4.55740
H          0.25650       10.36420        3.11710
H          0.74140        8.71200        3.49790
H          0.42890        9.86320        4.80210
H         -1.48540        6.58160        2.88200
H          2.07160       -2.96430        0.54870
H          0.88910       -1.87930       -0.16170
H          1.95370       -1.81800        2.71680
H          0.83220       -0.61900        2.08000
H          0.33290       -2.31040        2.22130
H         -1.33430        0.84870       -0.54440
H         -0.43760       -0.50830        0.11560
H          0.10860        0.94880       -2.53040
H          1.13050       -0.34650       -1.91470
H         -0.54860       -0.68080       -2.35970
H         -5.56230        3.08700        0.13130
H         -8.82760        6.71610        0.36130
H         -9.96180       11.84940       -0.19570
H         -5.32510       11.73170        1.84590
H         -6.52260       14.94890        1.76850
H         -4.75230       14.65690       -0.20050
H         -5.56140       17.15600       -0.17310
H         -7.99420       17.24970       -1.23590
H         -8.68320       14.80780       -1.91820
H         -6.57210       13.19230       -1.52970
H         -6.10320       14.62320       -2.47690
H         -8.90710       15.04180        0.72740
