
  xtb     02242207323D
 energy: -411.972204880280 gnorm: 0.000606028288 xtb: 6.4.1 (unknown)
244272  0     0  0            999 V2000
   -4.1995    0.7399   15.7536 C   0  0  0  0  0  0  0  0  0  0  0  0
   -4.9215   -0.4054   15.7962 C   0  0  0  0  0  0  0  0  0  0  0  0
   -4.7530   -1.3287   16.9548 C   0  0  0  0  0  0  0  0  0  0  0  0
   -4.2224   -1.0721   18.0114 O   0  0  0  0  0  0  0  0  0  0  0  0
   -5.3116   -2.6199   16.5118 C   0  0  0  0  0  0  0  0  0  0  0  0
   -5.2713   -3.8342   17.1952 C   0  0  0  0  0  0  0  0  0  0  0  0
   -5.8540   -4.8778   16.5179 C   0  0  0  0  0  0  0  0  0  0  0  0
   -6.4340   -4.7308   15.2500 C   0  0  0  0  0  0  0  0  0  0  0  0
   -6.4902   -3.5392   14.5679 C   0  0  0  0  0  0  0  0  0  0  0  0
   -5.9059   -2.4623   15.2420 C   0  0  0  0  0  0  0  0  0  0  0  0
   -5.8137   -1.0565   14.8555 C   0  0  0  0  0  0  0  0  0  0  0  0
   -6.6117   -0.4348   13.9323 C   0  0  0  0  0  0  0  0  0  0  0  0
   -6.6879    0.9654   13.7720 C   0  0  0  0  0  0  0  0  0  0  0  0
   -6.8438    2.0929   13.6257 N   0  0  0  0  0  0  0  0  0  0  0  0
   -7.5020   -1.1069   13.0714 C   0  0  0  0  0  0  0  0  0  0  0  0
   -8.2096   -1.6045   12.3160 N   0  0  0  0  0  0  0  0  0  0  0  0
   -6.8110   -6.1889   15.1650 C   0  0  0  0  0  0  0  0  0  0  0  0
   -5.9188   -7.0834   14.2785 C   0  0  0  0  0  0  0  0  0  0  0  0
   -6.2189   -8.4845   14.7605 C   0  0  0  0  0  0  0  0  0  0  0  0
   -5.6728   -8.6235   15.9618 C   0  0  0  0  0  0  0  0  0  0  0  0
   -4.9942   -7.3188   16.3119 C   0  0  0  0  0  0  0  0  0  0  0  0
   -4.5386   -6.8757   14.9156 C   0  0  0  0  0  0  0  0  0  0  0  0
   -6.1676   -6.3523   16.5794 C   0  0  0  0  0  0  0  0  0  0  0  0
   -3.9098    1.6087   14.6449 C   0  0  0  0  0  0  0  0  0  0  0  0
   -3.8942    1.1375   13.3294 C   0  0  0  0  0  0  0  0  0  0  0  0
   -3.5955    2.0246   12.3142 C   0  0  0  0  0  0  0  0  0  0  0  0
   -3.5398    1.8126   10.9593 N   0  0  0  0  0  0  0  0  0  0  0  0
   -3.7895    0.5653   10.2878 C   0  0  0  0  0  0  0  0  0  0  0  0
   -2.5082   -0.2488   10.1126 C   0  0  0  0  0  0  0  0  0  0  0  0
   -3.1754    2.9878   10.3508 C   0  0  0  0  0  0  0  0  0  0  0  0
   -3.0098    3.9971   11.3322 C   0  0  0  0  0  0  0  0  0  0  0  0
   -3.2858    3.3830   12.5920 C   0  0  0  0  0  0  0  0  0  0  0  0
   -3.2830    3.8374   13.9067 C   0  0  0  0  0  0  0  0  0  0  0  0
   -3.5803    2.9517   14.9147 C   0  0  0  0  0  0  0  0  0  0  0  0
   -2.6266    5.2765   10.9431 C   0  0  0  0  0  0  0  0  0  0  0  0
   -2.4247    5.5379    9.6074 C   0  0  0  0  0  0  0  0  0  0  0  0
   -2.6028    4.5437    8.6290 C   0  0  0  0  0  0  0  0  0  0  0  0
   -2.9726    3.2551    9.0090 C   0  0  0  0  0  0  0  0  0  0  0  0
   -2.3706    4.8143    7.2216 C   0  0  0  0  0  0  0  0  0  0  0  0
   -2.5930    5.9365    6.4591 C   0  0  0  0  0  0  0  0  0  0  0  0
   -3.2298    7.2235    6.8904 C   0  0  0  0  0  0  0  0  0  0  0  0
   -4.6472    7.0109    7.4195 C   0  0  0  0  0  0  0  0  0  0  0  0
   -2.2283    5.7186    5.1129 C   0  0  0  0  0  0  0  0  0  0  0  0
   -2.2967    6.7467    3.6992 S   0  0  0  0  0  0  0  0  0  0  0  0
   -1.6526    5.4498    2.7521 C   0  0  0  0  0  0  0  0  0  0  0  0
   -1.2394    5.1992    1.4316 C   0  0  0  0  0  0  0  0  0  0  0  0
   -1.1643    6.0699    0.3194 C   0  0  0  0  0  0  0  0  0  0  0  0
   -0.5340    5.5916   -0.8621 C   0  0  0  0  0  0  0  0  0  0  0  0
   -0.2543    6.4296   -1.8559 N   0  0  0  0  0  0  0  0  0  0  0  0
   -0.6593    7.6849   -1.7673 C   0  0  0  0  0  0  0  0  0  0  0  0
   -0.1611    8.5835   -2.8137 C   0  0  0  0  0  0  0  0  0  0  0  0
    0.1850    9.9063   -2.5413 C   0  0  0  0  0  0  0  0  0  0  0  0
    0.6777   10.7175   -3.5436 C   0  0  0  0  0  0  0  0  0  0  0  0
    0.8387   10.2075   -4.8266 C   0  0  0  0  0  0  0  0  0  0  0  0
    1.3387   11.1062   -5.9196 C   0  0  0  0  0  0  0  0  0  0  0  0
    2.2257   12.0152   -5.4837 F   0  0  0  0  0  0  0  0  0  0  0  0
    1.9385   10.4385   -6.9172 F   0  0  0  0  0  0  0  0  0  0  0  0
    0.3387   11.8094   -6.4924 F   0  0  0  0  0  0  0  0  0  0  0  0
    0.5173    8.8851   -5.1060 C   0  0  0  0  0  0  0  0  0  0  0  0
    0.0264    8.0781   -4.0998 C   0  0  0  0  0  0  0  0  0  0  0  0
   -1.4892    8.0947   -0.6874 C   0  0  0  0  0  0  0  0  0  0  0  0
   -2.2188    9.3662   -0.6495 C   0  0  0  0  0  0  0  0  0  0  0  0
   -2.4078    9.9984    0.5788 C   0  0  0  0  0  0  0  0  0  0  0  0
   -3.1048   11.1871    0.6553 C   0  0  0  0  0  0  0  0  0  0  0  0
   -3.6326   11.7465   -0.5019 C   0  0  0  0  0  0  0  0  0  0  0  0
   -4.3575   13.0589   -0.4339 C   0  0  0  0  0  0  0  0  0  0  0  0
   -3.5264   14.1048   -0.6300 F   0  0  0  0  0  0  0  0  0  0  0  0
   -5.3210   13.1741   -1.3612 F   0  0  0  0  0  0  0  0  0  0  0  0
   -4.9452   13.2731    0.7536 F   0  0  0  0  0  0  0  0  0  0  0  0
   -3.4716   11.1143   -1.7292 C   0  0  0  0  0  0  0  0  0  0  0  0
   -2.7720    9.9265   -1.8001 C   0  0  0  0  0  0  0  0  0  0  0  0
   -1.6718    7.2992    0.3526 N   0  0  0  0  0  0  0  0  0  0  0  0
   -0.2027    4.2183   -0.9329 C   0  0  0  0  0  0  0  0  0  0  0  0
    0.2684    3.4587   -2.0184 C   0  0  0  0  0  0  0  0  0  0  0  0
    0.7048    3.6760   -3.6782 S   0  0  0  0  0  0  0  0  0  0  0  0
    0.9825    1.9552   -3.8061 C   0  0  0  0  0  0  0  0  0  0  0  0
    1.3690    1.1383   -4.8845 C   0  0  0  0  0  0  0  0  0  0  0  0
    1.6441    1.6989   -6.2420 C   0  0  0  0  0  0  0  0  0  0  0  0
    3.0578    2.2785   -6.3177 C   0  0  0  0  0  0  0  0  0  0  0  0
    1.4332   -0.1863   -4.5082 C   0  0  0  0  0  0  0  0  0  0  0  0
    1.0395   -0.4179   -2.8032 S   0  0  0  0  0  0  0  0  0  0  0  0
    0.7487    1.2710   -2.6145 C   0  0  0  0  0  0  0  0  0  0  0  0
    0.3349    2.1335   -1.5913 C   0  0  0  0  0  0  0  0  0  0  0  0
   -0.0460    2.0378   -0.2754 N   0  0  0  0  0  0  0  0  0  0  0  0
   -0.3785    3.3151    0.1512 C   0  0  0  0  0  0  0  0  0  0  0  0
   -0.7870    3.8497    1.3962 C   0  0  0  0  0  0  0  0  0  0  0  0
   -0.8770    3.3243    2.6699 N   0  0  0  0  0  0  0  0  0  0  0  0
   -1.4054    4.2902    3.4859 C   0  0  0  0  0  0  0  0  0  0  0  0
   -1.7279    4.4476    4.8412 C   0  0  0  0  0  0  0  0  0  0  0  0
   -1.7089    3.4858    6.2723 S   0  0  0  0  0  0  0  0  0  0  0  0
   -0.2495    2.1590    3.2469 C   0  0  0  0  0  0  0  0  0  0  0  0
   -1.2679    1.0893    3.6376 C   0  0  0  0  0  0  0  0  0  0  0  0
   -0.5469    0.7651    0.1970 C   0  0  0  0  0  0  0  0  0  0  0  0
   -2.0527    0.6561   -0.0330 C   0  0  0  0  0  0  0  0  0  0  0  0
    1.8099   -1.3322   -5.2706 C   0  0  0  0  0  0  0  0  0  0  0  0
    1.3827   -2.6428   -5.0920 C   0  0  0  0  0  0  0  0  0  0  0  0
    0.3844   -3.0616   -4.2260 N   0  0  0  0  0  0  0  0  0  0  0  0
    0.5588   -4.3031   -3.5923 C   0  0  0  0  0  0  0  0  0  0  0  0
   -0.4881   -5.2154   -3.4928 C   0  0  0  0  0  0  0  0  0  0  0  0
   -0.2876   -6.4324   -2.8740 C   0  0  0  0  0  0  0  0  0  0  0  0
    0.9528   -6.7791   -2.3496 C   0  0  0  0  0  0  0  0  0  0  0  0
    1.1651   -8.1153   -1.7070 C   0  0  0  0  0  0  0  0  0  0  0  0
    1.9931   -5.8655   -2.4590 C   0  0  0  0  0  0  0  0  0  0  0  0
    1.8035   -4.6404   -3.0671 C   0  0  0  0  0  0  0  0  0  0  0  0
   -0.8131   -2.3510   -4.0984 C   0  0  0  0  0  0  0  0  0  0  0  0
   -1.5314   -2.4006   -2.9051 C   0  0  0  0  0  0  0  0  0  0  0  0
   -2.6949   -1.6713   -2.7609 C   0  0  0  0  0  0  0  0  0  0  0  0
   -3.1654   -0.8573   -3.7825 C   0  0  0  0  0  0  0  0  0  0  0  0
   -4.4168   -0.0483   -3.6235 C   0  0  0  0  0  0  0  0  0  0  0  0
   -2.4468   -0.8173   -4.9725 C   0  0  0  0  0  0  0  0  0  0  0  0
   -1.2946   -1.5572   -5.1382 C   0  0  0  0  0  0  0  0  0  0  0  0
    2.0782   -3.5256   -5.9508 C   0  0  0  0  0  0  0  0  0  0  0  0
    2.0591   -5.2306   -6.2100 S   0  0  0  0  0  0  0  0  0  0  0  0
    3.2157   -5.0765   -7.5271 C   0  0  0  0  0  0  0  0  0  0  0  0
    3.6106   -3.7559   -7.7261 C   0  0  0  0  0  0  0  0  0  0  0  0
    4.6593   -3.3280   -8.5390 N   0  0  0  0  0  0  0  0  0  0  0  0
    5.6838   -2.6060   -7.9098 C   0  0  0  0  0  0  0  0  0  0  0  0
    6.3078   -1.5300   -8.5368 C   0  0  0  0  0  0  0  0  0  0  0  0
    7.3075   -0.8338   -7.8884 C   0  0  0  0  0  0  0  0  0  0  0  0
    7.7091   -1.1753   -6.6023 C   0  0  0  0  0  0  0  0  0  0  0  0
    8.7708   -0.3872   -5.8981 C   0  0  0  0  0  0  0  0  0  0  0  0
    7.0831   -2.2503   -5.9844 C   0  0  0  0  0  0  0  0  0  0  0  0
    6.0894   -2.9628   -6.6250 C   0  0  0  0  0  0  0  0  0  0  0  0
    4.5018   -3.2320   -9.9331 C   0  0  0  0  0  0  0  0  0  0  0  0
    3.3245   -2.7306  -10.4791 C   0  0  0  0  0  0  0  0  0  0  0  0
    3.1945   -2.6146  -11.8501 C   0  0  0  0  0  0  0  0  0  0  0  0
    4.2267   -2.9904  -12.7032 C   0  0  0  0  0  0  0  0  0  0  0  0
    4.0529   -2.8715  -14.1848 C   0  0  0  0  0  0  0  0  0  0  0  0
    5.4003   -3.4844  -12.1455 C   0  0  0  0  0  0  0  0  0  0  0  0
    5.5423   -3.6070  -10.7769 C   0  0  0  0  0  0  0  0  0  0  0  0
    2.9715   -2.8991   -6.8029 C   0  0  0  0  0  0  0  0  0  0  0  0
    3.0133   -1.1929   -6.5470 S   0  0  0  0  0  0  0  0  0  0  0  0
    3.7635   -6.2734   -8.0585 C   0  0  0  0  0  0  0  0  0  0  0  0
    4.1060   -6.6081   -9.3309 C   0  0  0  0  0  0  0  0  0  0  0  0
    5.0955   -7.7001   -9.5485 C   0  0  0  0  0  0  0  0  0  0  0  0
    5.5521   -8.4376   -8.7033 O   0  0  0  0  0  0  0  0  0  0  0  0
    5.4213   -7.6559  -10.9855 C   0  0  0  0  0  0  0  0  0  0  0  0
    6.4062   -8.3835  -11.6522 C   0  0  0  0  0  0  0  0  0  0  0  0
    6.4849   -8.1156  -12.9974 C   0  0  0  0  0  0  0  0  0  0  0  0
    5.6376   -7.2018  -13.6390 C   0  0  0  0  0  0  0  0  0  0  0  0
    4.6559   -6.4866  -12.9973 C   0  0  0  0  0  0  0  0  0  0  0  0
    4.5717   -6.7310  -11.6244 C   0  0  0  0  0  0  0  0  0  0  0  0
    3.6750   -6.1477  -10.6288 C   0  0  0  0  0  0  0  0  0  0  0  0
    2.4933   -5.5118  -10.9076 C   0  0  0  0  0  0  0  0  0  0  0  0
    2.0076   -5.2863  -12.2111 C   0  0  0  0  0  0  0  0  0  0  0  0
    1.5471   -5.1050  -13.2477 N   0  0  0  0  0  0  0  0  0  0  0  0
    1.5730   -5.0885   -9.9293 C   0  0  0  0  0  0  0  0  0  0  0  0
    0.7710   -4.7345   -9.1874 N   0  0  0  0  0  0  0  0  0  0  0  0
    6.2885   -7.4178  -14.9824 C   0  0  0  0  0  0  0  0  0  0  0  0
    7.2632   -6.3191  -15.4562 C   0  0  0  0  0  0  0  0  0  0  0  0
    8.0914   -7.0022  -16.5202 C   0  0  0  0  0  0  0  0  0  0  0  0
    8.8948   -7.8660  -15.9127 C   0  0  0  0  0  0  0  0  0  0  0  0
    8.6232   -7.7805  -14.4282 C   0  0  0  0  0  0  0  0  0  0  0  0
    8.2801   -6.2900  -14.3079 C   0  0  0  0  0  0  0  0  0  0  0  0
    7.2344   -8.4355  -14.2677 C   0  0  0  0  0  0  0  0  0  0  0  0
   -3.7224    1.0026   16.6935 H   0  0  0  0  0  0  0  0  0  0  0  0
   -4.8177   -3.9054   18.1713 H   0  0  0  0  0  0  0  0  0  0  0  0
   -6.9384   -3.4376   13.5930 H   0  0  0  0  0  0  0  0  0  0  0  0
   -7.8726   -6.3972   15.0476 H   0  0  0  0  0  0  0  0  0  0  0  0
   -6.0112   -6.9032   13.2109 H   0  0  0  0  0  0  0  0  0  0  0  0
   -6.8251   -9.1877   14.2203 H   0  0  0  0  0  0  0  0  0  0  0  0
   -5.7315   -9.4661   16.6254 H   0  0  0  0  0  0  0  0  0  0  0  0
   -4.2435   -7.3529   17.0968 H   0  0  0  0  0  0  0  0  0  0  0  0
   -3.7873   -7.5433   14.4969 H   0  0  0  0  0  0  0  0  0  0  0  0
   -4.1787   -5.8493   14.8715 H   0  0  0  0  0  0  0  0  0  0  0  0
   -6.8008   -6.6694   17.4058 H   0  0  0  0  0  0  0  0  0  0  0  0
   -4.0735    0.0924   13.1254 H   0  0  0  0  0  0  0  0  0  0  0  0
   -4.5220   -0.0014   10.8688 H   0  0  0  0  0  0  0  0  0  0  0  0
   -4.2322    0.7812    9.3116 H   0  0  0  0  0  0  0  0  0  0  0  0
   -1.7857    0.3105    9.5228 H   0  0  0  0  0  0  0  0  0  0  0  0
   -2.7257   -1.1847    9.6050 H   0  0  0  0  0  0  0  0  0  0  0  0
   -2.0649   -0.4697   11.0809 H   0  0  0  0  0  0  0  0  0  0  0  0
   -3.0453    4.8665   14.1278 H   0  0  0  0  0  0  0  0  0  0  0  0
   -3.5908    3.2865   15.9409 H   0  0  0  0  0  0  0  0  0  0  0  0
   -2.4807    6.0505   11.6809 H   0  0  0  0  0  0  0  0  0  0  0  0
   -2.0941    6.5173    9.3048 H   0  0  0  0  0  0  0  0  0  0  0  0
   -3.1000    2.4897    8.2581 H   0  0  0  0  0  0  0  0  0  0  0  0
   -2.6224    7.7167    7.6515 H   0  0  0  0  0  0  0  0  0  0  0  0
   -3.2638    7.8830    6.0202 H   0  0  0  0  0  0  0  0  0  0  0  0
   -5.0941    7.9668    7.6807 H   0  0  0  0  0  0  0  0  0  0  0  0
   -4.6394    6.3779    8.3034 H   0  0  0  0  0  0  0  0  0  0  0  0
   -5.2646    6.5371    6.6598 H   0  0  0  0  0  0  0  0  0  0  0  0
    0.0832   10.2971   -1.5405 H   0  0  0  0  0  0  0  0  0  0  0  0
    0.9475   11.7412   -3.3341 H   0  0  0  0  0  0  0  0  0  0  0  0
    0.6597    8.4943   -6.1018 H   0  0  0  0  0  0  0  0  0  0  0  0
   -0.2144    7.0443   -4.2913 H   0  0  0  0  0  0  0  0  0  0  0  0
   -2.0022    9.5395    1.4666 H   0  0  0  0  0  0  0  0  0  0  0  0
   -3.2481   11.6787    1.6053 H   0  0  0  0  0  0  0  0  0  0  0  0
   -3.9010   11.5488   -2.6188 H   0  0  0  0  0  0  0  0  0  0  0  0
   -2.6669    9.4250   -2.7500 H   0  0  0  0  0  0  0  0  0  0  0  0
    1.5203    0.9284   -7.0036 H   0  0  0  0  0  0  0  0  0  0  0  0
    0.9222    2.4965   -6.4336 H   0  0  0  0  0  0  0  0  0  0  0  0
    3.1821    3.0634   -5.5753 H   0  0  0  0  0  0  0  0  0  0  0  0
    3.2355    2.7004   -7.3032 H   0  0  0  0  0  0  0  0  0  0  0  0
    3.7985    1.5033   -6.1349 H   0  0  0  0  0  0  0  0  0  0  0  0
    0.2777    2.4826    4.1519 H   0  0  0  0  0  0  0  0  0  0  0  0
    0.5000    1.7812    2.5501 H   0  0  0  0  0  0  0  0  0  0  0  0
   -1.8976    0.8133    2.7967 H   0  0  0  0  0  0  0  0  0  0  0  0
   -1.9071    1.4634    4.4328 H   0  0  0  0  0  0  0  0  0  0  0  0
   -0.7521    0.2043    4.0004 H   0  0  0  0  0  0  0  0  0  0  0  0
   -0.0319   -0.0087   -0.3780 H   0  0  0  0  0  0  0  0  0  0  0  0
   -0.3110    0.6137    1.2465 H   0  0  0  0  0  0  0  0  0  0  0  0
   -2.5775    1.4570    0.4846 H   0  0  0  0  0  0  0  0  0  0  0  0
   -2.2740    0.7277   -1.0954 H   0  0  0  0  0  0  0  0  0  0  0  0
   -2.4147   -0.3007    0.3331 H   0  0  0  0  0  0  0  0  0  0  0  0
   -1.4532   -4.9666   -3.9084 H   0  0  0  0  0  0  0  0  0  0  0  0
   -1.1078   -7.1324   -2.8056 H   0  0  0  0  0  0  0  0  0  0  0  0
    1.4002   -8.8602   -2.4679 H   0  0  0  0  0  0  0  0  0  0  0  0
    0.2682   -8.4419   -1.1852 H   0  0  0  0  0  0  0  0  0  0  0  0
    1.9922   -8.0811   -1.0018 H   0  0  0  0  0  0  0  0  0  0  0  0
    2.9650   -6.1126   -2.0567 H   0  0  0  0  0  0  0  0  0  0  0  0
    2.6177   -3.9328   -3.1328 H   0  0  0  0  0  0  0  0  0  0  0  0
   -1.1652   -3.0056   -2.0891 H   0  0  0  0  0  0  0  0  0  0  0  0
   -3.2421   -1.7308   -1.8309 H   0  0  0  0  0  0  0  0  0  0  0  0
   -5.1927   -0.4173   -4.2939 H   0  0  0  0  0  0  0  0  0  0  0  0
   -4.7902   -0.1028   -2.6037 H   0  0  0  0  0  0  0  0  0  0  0  0
   -4.2326    0.9956   -3.8743 H   0  0  0  0  0  0  0  0  0  0  0  0
   -2.8012   -0.2014   -5.7864 H   0  0  0  0  0  0  0  0  0  0  0  0
   -0.7651   -1.5244   -6.0784 H   0  0  0  0  0  0  0  0  0  0  0  0
    5.9995   -1.2343   -9.5284 H   0  0  0  0  0  0  0  0  0  0  0  0
    7.7774    0.0011   -8.3880 H   0  0  0  0  0  0  0  0  0  0  0  0
    9.5499   -0.0812   -6.5929 H   0  0  0  0  0  0  0  0  0  0  0  0
    9.2206   -0.9692   -5.0973 H   0  0  0  0  0  0  0  0  0  0  0  0
    8.3391    0.5143   -5.4618 H   0  0  0  0  0  0  0  0  0  0  0  0
    7.3814   -2.5409   -4.9872 H   0  0  0  0  0  0  0  0  0  0  0  0
    5.6252   -3.8046   -6.1319 H   0  0  0  0  0  0  0  0  0  0  0  0
    2.5206   -2.4249   -9.8253 H   0  0  0  0  0  0  0  0  0  0  0  0
    2.2774   -2.2250  -12.2671 H   0  0  0  0  0  0  0  0  0  0  0  0
    4.9148   -3.2718  -14.7130 H   0  0  0  0  0  0  0  0  0  0  0  0
    3.1600   -3.4122  -14.4982 H   0  0  0  0  0  0  0  0  0  0  0  0
    3.9241   -1.8280  -14.4698 H   0  0  0  0  0  0  0  0  0  0  0  0
    6.2140   -3.7825  -12.7914 H   0  0  0  0  0  0  0  0  0  0  0  0
    6.4580   -3.9884  -10.3490 H   0  0  0  0  0  0  0  0  0  0  0  0
    4.0193   -7.0242   -7.3133 H   0  0  0  0  0  0  0  0  0  0  0  0
    7.0307   -9.0859  -11.1228 H   0  0  0  0  0  0  0  0  0  0  0  0
    4.0129   -5.7844  -13.4992 H   0  0  0  0  0  0  0  0  0  0  0  0
    5.6361   -7.7795  -15.7747 H   0  0  0  0  0  0  0  0  0  0  0  0
    6.7908   -5.3804  -15.7340 H   0  0  0  0  0  0  0  0  0  0  0  0
    7.9715   -6.8334  -17.5742 H   0  0  0  0  0  0  0  0  0  0  0  0
    9.5802   -8.5628  -16.3582 H   0  0  0  0  0  0  0  0  0  0  0  0
    9.3912   -8.1725  -13.7670 H   0  0  0  0  0  0  0  0  0  0  0  0
    9.1343   -5.6519  -14.5295 H   0  0  0  0  0  0  0  0  0  0  0  0
    7.8558   -6.0109  -13.3448 H   0  0  0  0  0  0  0  0  0  0  0  0
    7.2149   -9.4763  -14.5850 H   0  0  0  0  0  0  0  0  0  0  0  0
  1  2  2  0  0  0  0
  2  3  1  0  0  0  0
  3  4  2  0  0  0  0
  3  5  1  0  0  0  0
  5  6  2  0  0  0  0
  6  7  1  0  0  0  0
  7  8  2  0  0  0  0
  8  9  1  0  0  0  0
  9 10  2  0  0  0  0
 10 11  1  0  0  0  0
 11 12  2  0  0  0  0
 12 13  1  0  0  0  0
 13 14  3  0  0  0  0
 12 15  1  0  0  0  0
 15 16  3  0  0  0  0
  8 17  1  0  0  0  0
 17 18  1  0  0  0  0
 18 19  1  0  0  0  0
 19 20  2  0  0  0  0
 20 21  1  0  0  0  0
 21 22  1  0  0  0  0
 21 23  1  0  0  0  0
  1 24  1  0  0  0  0
 24 25  2  0  0  0  0
 25 26  1  0  0  0  0
 26 27  1  0  0  0  0
 27 28  1  0  0  0  0
 28 29  1  0  0  0  0
 27 30  1  0  0  0  0
 30 31  2  0  0  0  0
 31 32  1  0  0  0  0
 32 33  1  0  0  0  0
 33 34  2  0  0  0  0
 31 35  1  0  0  0  0
 35 36  2  0  0  0  0
 36 37  1  0  0  0  0
 37 38  2  0  0  0  0
 37 39  1  0  0  0  0
 39 40  2  0  0  0  0
 40 41  1  0  0  0  0
 41 42  1  0  0  0  0
 40 43  1  0  0  0  0
 43 44  1  0  0  0  0
 44 45  1  0  0  0  0
 45 46  1  0  0  0  0
 46 47  2  0  0  0  0
 47 48  1  0  0  0  0
 48 49  1  0  0  0  0
 49 50  2  0  0  0  0
 50 51  1  0  0  0  0
 51 52  2  0  0  0  0
 52 53  1  0  0  0  0
 53 54  2  0  0  0  0
 54 55  1  0  0  0  0
 55 56  1  0  0  0  0
 55 57  1  0  0  0  0
 55 58  1  0  0  0  0
 54 59  1  0  0  0  0
 59 60  2  0  0  0  0
 50 61  1  0  0  0  0
 61 62  1  0  0  0  0
 62 63  2  0  0  0  0
 63 64  1  0  0  0  0
 64 65  2  0  0  0  0
 65 66  1  0  0  0  0
 66 67  1  0  0  0  0
 66 68  1  0  0  0  0
 66 69  1  0  0  0  0
 65 70  1  0  0  0  0
 70 71  2  0  0  0  0
 61 72  2  0  0  0  0
 48 73  2  0  0  0  0
 73 74  1  0  0  0  0
 74 75  1  0  0  0  0
 75 76  1  0  0  0  0
 76 77  1  0  0  0  0
 77 78  1  0  0  0  0
 78 79  1  0  0  0  0
 77 80  2  0  0  0  0
 80 81  1  0  0  0  0
 81 82  1  0  0  0  0
 82 83  1  0  0  0  0
 83 84  1  0  0  0  0
 84 85  1  0  0  0  0
 85 86  2  0  0  0  0
 86 87  1  0  0  0  0
 87 88  1  0  0  0  0
 88 89  1  0  0  0  0
 89 90  1  0  0  0  0
 87 91  1  0  0  0  0
 91 92  1  0  0  0  0
 84 93  1  0  0  0  0
 93 94  1  0  0  0  0
 80 95  1  0  0  0  0
 95 96  2  0  0  0  0
 96 97  1  0  0  0  0
 97 98  1  0  0  0  0
 98 99  2  0  0  0  0
 99100  1  0  0  0  0
100101  2  0  0  0  0
101102  1  0  0  0  0
101103  1  0  0  0  0
103104  2  0  0  0  0
 97105  1  0  0  0  0
105106  2  0  0  0  0
106107  1  0  0  0  0
107108  2  0  0  0  0
108109  1  0  0  0  0
108110  1  0  0  0  0
110111  2  0  0  0  0
 96112  1  0  0  0  0
112113  1  0  0  0  0
113114  1  0  0  0  0
114115  2  0  0  0  0
115116  1  0  0  0  0
116117  1  0  0  0  0
117118  2  0  0  0  0
118119  1  0  0  0  0
119120  2  0  0  0  0
120121  1  0  0  0  0
120122  1  0  0  0  0
122123  2  0  0  0  0
116124  1  0  0  0  0
124125  2  0  0  0  0
125126  1  0  0  0  0
126127  2  0  0  0  0
127128  1  0  0  0  0
127129  1  0  0  0  0
129130  2  0  0  0  0
115131  1  0  0  0  0
131132  1  0  0  0  0
114133  1  0  0  0  0
133134  2  0  0  0  0
134135  1  0  0  0  0
135136  2  0  0  0  0
135137  1  0  0  0  0
137138  2  0  0  0  0
138139  1  0  0  0  0
139140  2  0  0  0  0
140141  1  0  0  0  0
141142  2  0  0  0  0
142143  1  0  0  0  0
143144  2  0  0  0  0
144145  1  0  0  0  0
145146  3  0  0  0  0
144147  1  0  0  0  0
147148  3  0  0  0  0
140149  1  0  0  0  0
149150  1  0  0  0  0
150151  1  0  0  0  0
151152  2  0  0  0  0
152153  1  0  0  0  0
153154  1  0  0  0  0
153155  1  0  0  0  0
 11  2  1  0  0  0  0
 23 17  1  0  0  0  0
 34 24  1  0  0  0  0
 90 39  1  0  0  0  0
132 95  1  0  0  0  0
143134  1  0  0  0  0
155149  1  0  0  0  0
 10  5  1  0  0  0  0
 22 18  1  0  0  0  0
 32 26  2  0  0  0  0
 89 43  2  0  0  0  0
104 98  1  0  0  0  0
111105  1  0  0  0  0
131112  2  0  0  0  0
142137  1  0  0  0  0
154150  1  0  0  0  0
 23  7  1  0  0  0  0
 38 30  1  0  0  0  0
 88 45  2  0  0  0  0
123117  1  0  0  0  0
130124  1  0  0  0  0
155139  1  0  0  0  0
 86 46  1  0  0  0  0
 72 47  1  0  0  0  0
 85 73  1  0  0  0  0
 60 51  1  0  0  0  0
 71 62  1  0  0  0  0
 83 74  2  0  0  0  0
 82 76  2  0  0  0  0
  1156  1  0  0  0  0
  6157  1  0  0  0  0
  9158  1  0  0  0  0
 17159  1  0  0  0  0
 18160  1  0  0  0  0
 19161  1  0  0  0  0
 20162  1  0  0  0  0
 21163  1  0  0  0  0
 22164  1  0  0  0  0
 22165  1  0  0  0  0
 23166  1  0  0  0  0
 25167  1  0  0  0  0
 28168  1  0  0  0  0
 28169  1  0  0  0  0
 29170  1  0  0  0  0
 29171  1  0  0  0  0
 29172  1  0  0  0  0
 33173  1  0  0  0  0
 34174  1  0  0  0  0
 35175  1  0  0  0  0
 36176  1  0  0  0  0
 38177  1  0  0  0  0
 41178  1  0  0  0  0
 41179  1  0  0  0  0
 42180  1  0  0  0  0
 42181  1  0  0  0  0
 42182  1  0  0  0  0
 52183  1  0  0  0  0
 53184  1  0  0  0  0
 59185  1  0  0  0  0
 60186  1  0  0  0  0
 63187  1  0  0  0  0
 64188  1  0  0  0  0
 70189  1  0  0  0  0
 71190  1  0  0  0  0
 78191  1  0  0  0  0
 78192  1  0  0  0  0
 79193  1  0  0  0  0
 79194  1  0  0  0  0
 79195  1  0  0  0  0
 91196  1  0  0  0  0
 91197  1  0  0  0  0
 92198  1  0  0  0  0
 92199  1  0  0  0  0
 92200  1  0  0  0  0
 93201  1  0  0  0  0
 93202  1  0  0  0  0
 94203  1  0  0  0  0
 94204  1  0  0  0  0
 94205  1  0  0  0  0
 99206  1  0  0  0  0
100207  1  0  0  0  0
102208  1  0  0  0  0
102209  1  0  0  0  0
102210  1  0  0  0  0
103211  1  0  0  0  0
104212  1  0  0  0  0
106213  1  0  0  0  0
107214  1  0  0  0  0
109215  1  0  0  0  0
109216  1  0  0  0  0
109217  1  0  0  0  0
110218  1  0  0  0  0
111219  1  0  0  0  0
118220  1  0  0  0  0
119221  1  0  0  0  0
121222  1  0  0  0  0
121223  1  0  0  0  0
121224  1  0  0  0  0
122225  1  0  0  0  0
123226  1  0  0  0  0
125227  1  0  0  0  0
126228  1  0  0  0  0
128229  1  0  0  0  0
128230  1  0  0  0  0
128231  1  0  0  0  0
129232  1  0  0  0  0
130233  1  0  0  0  0
133234  1  0  0  0  0
138235  1  0  0  0  0
141236  1  0  0  0  0
149237  1  0  0  0  0
150238  1  0  0  0  0
151239  1  0  0  0  0
152240  1  0  0  0  0
153241  1  0  0  0  0
154242  1  0  0  0  0
154243  1  0  0  0  0
155244  1  0  0  0  0
M  END
