
  xtb     02192223443D
 energy: -342.086087170808 gnorm: 0.000573635268 xtb: 6.4.1 (unknown)
209235  0     0  0            999 V2000
    2.3690    2.9057   -8.4761 C   0  0  0  0  0  0  0  0  0  0  0  0
    3.5586    2.7437   -7.8467 C   0  0  0  0  0  0  0  0  0  0  0  0
    3.9251    1.6094   -6.9524 C   0  0  0  0  0  0  0  0  0  0  0  0
    3.3974    0.5241   -6.8535 O   0  0  0  0  0  0  0  0  0  0  0  0
    5.0418    2.1098   -6.1267 C   0  0  0  0  0  0  0  0  0  0  0  0
    5.6480    1.4447   -5.0621 C   0  0  0  0  0  0  0  0  0  0  0  0
    6.6325    2.1684   -4.4349 C   0  0  0  0  0  0  0  0  0  0  0  0
    6.9880    3.4660   -4.8312 C   0  0  0  0  0  0  0  0  0  0  0  0
    6.4114    4.1277   -5.8889 C   0  0  0  0  0  0  0  0  0  0  0  0
    5.4077    3.4049   -6.5444 C   0  0  0  0  0  0  0  0  0  0  0  0
    4.5665    3.7814   -7.6731 C   0  0  0  0  0  0  0  0  0  0  0  0
    4.7312    4.8789   -8.4735 C   0  0  0  0  0  0  0  0  0  0  0  0
    5.7380    5.8509   -8.2958 C   0  0  0  0  0  0  0  0  0  0  0  0
    6.5277    6.6788   -8.2015 N   0  0  0  0  0  0  0  0  0  0  0  0
    3.9432    5.1649   -9.6093 C   0  0  0  0  0  0  0  0  0  0  0  0
    3.3536    5.4552  -10.5508 N   0  0  0  0  0  0  0  0  0  0  0  0
    8.0131    3.6056   -3.7332 C   0  0  0  0  0  0  0  0  0  0  0  0
    7.6018    4.4466   -2.5060 C   0  0  0  0  0  0  0  0  0  0  0  0
    8.5711    4.0162   -1.4279 C   0  0  0  0  0  0  0  0  0  0  0  0
    8.2458    2.7844   -1.0578 C   0  0  0  0  0  0  0  0  0  0  0  0
    7.0503    2.3601   -1.8811 C   0  0  0  0  0  0  0  0  0  0  0  0
    6.3413    3.7126   -2.0297 C   0  0  0  0  0  0  0  0  0  0  0  0
    7.6254    2.1558   -3.2993 C   0  0  0  0  0  0  0  0  0  0  0  0
    1.3164    1.9258   -8.6004 C   0  0  0  0  0  0  0  0  0  0  0  0
    0.0076    2.3575   -8.3635 C   0  0  0  0  0  0  0  0  0  0  0  0
   -0.9974    1.4116   -8.3157 C   0  0  0  0  0  0  0  0  0  0  0  0
   -2.3190    1.5574   -7.9646 N   0  0  0  0  0  0  0  0  0  0  0  0
   -2.9403    2.7770   -7.5218 C   0  0  0  0  0  0  0  0  0  0  0  0
   -2.7633    2.9907   -6.0187 C   0  0  0  0  0  0  0  0  0  0  0  0
   -2.8841    0.3080   -7.8922 C   0  0  0  0  0  0  0  0  0  0  0  0
   -1.9454   -0.6626   -8.3247 C   0  0  0  0  0  0  0  0  0  0  0  0
   -0.7285    0.0427   -8.5838 C   0  0  0  0  0  0  0  0  0  0  0  0
    0.5603   -0.3535   -8.9279 C   0  0  0  0  0  0  0  0  0  0  0  0
    1.5719    0.5794   -8.9134 C   0  0  0  0  0  0  0  0  0  0  0  0
   -2.3010   -2.0075   -8.3162 C   0  0  0  0  0  0  0  0  0  0  0  0
   -3.5187   -2.3768   -7.7901 C   0  0  0  0  0  0  0  0  0  0  0  0
   -4.4118   -1.4225   -7.2700 C   0  0  0  0  0  0  0  0  0  0  0  0
   -4.1122   -0.0652   -7.3786 C   0  0  0  0  0  0  0  0  0  0  0  0
   -5.5042   -1.8197   -6.3981 C   0  0  0  0  0  0  0  0  0  0  0  0
   -6.2764   -2.9529   -6.3109 C   0  0  0  0  0  0  0  0  0  0  0  0
   -6.4117   -4.0099   -7.3623 C   0  0  0  0  0  0  0  0  0  0  0  0
   -5.7751   -5.3315   -6.9291 C   0  0  0  0  0  0  0  0  0  0  0  0
   -6.9660   -3.0137   -5.0757 C   0  0  0  0  0  0  0  0  0  0  0  0
   -6.7334   -1.9252   -4.2415 C   0  0  0  0  0  0  0  0  0  0  0  0
   -5.6983   -0.7724   -4.9925 S   0  0  0  0  0  0  0  0  0  0  0  0
   -7.2611   -2.1096   -2.9582 C   0  0  0  0  0  0  0  0  0  0  0  0
   -7.8779   -3.3539   -2.8098 C   0  0  0  0  0  0  0  0  0  0  0  0
   -7.9085   -4.2672   -4.2873 S   0  0  0  0  0  0  0  0  0  0  0  0
   -8.0796   -3.5440   -1.4278 C   0  0  0  0  0  0  0  0  0  0  0  0
   -8.3817   -4.6953   -0.6619 C   0  0  0  0  0  0  0  0  0  0  0  0
   -8.8539   -5.8565   -1.0822 N   0  0  0  0  0  0  0  0  0  0  0  0
   -8.8549   -6.8968    0.1596 S   0  0  0  0  0  0  0  0  0  0  0  0
   -8.2426   -5.9065    1.2856 N   0  0  0  0  0  0  0  0  0  0  0  0
   -8.0251   -4.7232    0.7370 C   0  0  0  0  0  0  0  0  0  0  0  0
   -7.5115   -3.5548    1.3461 C   0  0  0  0  0  0  0  0  0  0  0  0
   -6.9104   -3.2824    2.5932 C   0  0  0  0  0  0  0  0  0  0  0  0
   -6.2244   -4.1362    3.9442 S   0  0  0  0  0  0  0  0  0  0  0  0
   -5.4198   -2.6642    4.4550 C   0  0  0  0  0  0  0  0  0  0  0  0
   -4.3580   -2.3974    5.3269 C   0  0  0  0  0  0  0  0  0  0  0  0
   -3.9002   -1.1021    5.2148 C   0  0  0  0  0  0  0  0  0  0  0  0
   -4.8736   -0.1546    4.0878 S   0  0  0  0  0  0  0  0  0  0  0  0
   -5.7798   -1.5615    3.6756 C   0  0  0  0  0  0  0  0  0  0  0  0
   -6.6081   -1.9178    2.6102 C   0  0  0  0  0  0  0  0  0  0  0  0
   -7.0007   -1.3260    1.4372 N   0  0  0  0  0  0  0  0  0  0  0  0
   -7.3454    0.0790    1.3925 C   0  0  0  0  0  0  0  0  0  0  0  0
   -8.3179    0.4464    2.5125 C   0  0  0  0  0  0  0  0  0  0  0  0
   -7.4781   -2.3352    0.6198 C   0  0  0  0  0  0  0  0  0  0  0  0
   -7.6082   -2.3668   -0.7875 C   0  0  0  0  0  0  0  0  0  0  0  0
   -7.1282   -1.4963   -1.7440 N   0  0  0  0  0  0  0  0  0  0  0  0
   -6.2686   -0.3440   -1.6086 C   0  0  0  0  0  0  0  0  0  0  0  0
   -6.9594    0.9377   -2.0696 C   0  0  0  0  0  0  0  0  0  0  0  0
   -2.6251   -0.5869    5.5667 C   0  0  0  0  0  0  0  0  0  0  0  0
   -2.1846    0.7181    5.3606 C   0  0  0  0  0  0  0  0  0  0  0  0
   -3.0285    1.8031    5.1958 N   0  0  0  0  0  0  0  0  0  0  0  0
   -2.6934    2.7723    4.2357 C   0  0  0  0  0  0  0  0  0  0  0  0
   -2.8123    4.1309    4.5142 C   0  0  0  0  0  0  0  0  0  0  0  0
   -2.4668    5.0644    3.5585 C   0  0  0  0  0  0  0  0  0  0  0  0
   -1.9880    4.6763    2.3119 C   0  0  0  0  0  0  0  0  0  0  0  0
   -1.5888    5.7029    1.2966 C   0  0  0  0  0  0  0  0  0  0  0  0
   -1.8700    3.3187    2.0443 C   0  0  0  0  0  0  0  0  0  0  0  0
   -2.2216    2.3741    2.9882 C   0  0  0  0  0  0  0  0  0  0  0  0
   -4.1239    1.9851    6.0504 C   0  0  0  0  0  0  0  0  0  0  0  0
   -4.1010    1.5012    7.3567 C   0  0  0  0  0  0  0  0  0  0  0  0
   -5.1976    1.6636    8.1775 C   0  0  0  0  0  0  0  0  0  0  0  0
   -6.3433    2.3135    7.7310 C   0  0  0  0  0  0  0  0  0  0  0  0
   -7.5202    2.4848    8.6419 C   0  0  0  0  0  0  0  0  0  0  0  0
   -6.3565    2.7984    6.4301 C   0  0  0  0  0  0  0  0  0  0  0  0
   -5.2685    2.6362    5.5952 C   0  0  0  0  0  0  0  0  0  0  0  0
   -0.7775    0.7688    5.2749 C   0  0  0  0  0  0  0  0  0  0  0  0
    0.3313    2.0204    4.8563 S   0  0  0  0  0  0  0  0  0  0  0  0
    1.6375    0.8287    4.7215 C   0  0  0  0  0  0  0  0  0  0  0  0
    1.2477   -0.4387    5.2181 C   0  0  0  0  0  0  0  0  0  0  0  0
    2.0954   -1.4589    5.5073 N   0  0  0  0  0  0  0  0  0  0  0  0
    1.6207   -2.7783    5.6961 C   0  0  0  0  0  0  0  0  0  0  0  0
    0.8089   -3.3941    4.7505 C   0  0  0  0  0  0  0  0  0  0  0  0
    0.3676   -4.6861    4.9635 C   0  0  0  0  0  0  0  0  0  0  0  0
    0.7267   -5.3884    6.1075 C   0  0  0  0  0  0  0  0  0  0  0  0
    0.2168   -6.7760    6.3463 C   0  0  0  0  0  0  0  0  0  0  0  0
    1.5592   -4.7688    7.0329 C   0  0  0  0  0  0  0  0  0  0  0  0
    2.0068   -3.4776    6.8339 C   0  0  0  0  0  0  0  0  0  0  0  0
    3.4884   -1.2695    5.5843 C   0  0  0  0  0  0  0  0  0  0  0  0
    4.3400   -2.1506    4.9248 C   0  0  0  0  0  0  0  0  0  0  0  0
    5.7045   -1.9244    4.9228 C   0  0  0  0  0  0  0  0  0  0  0  0
    6.2502   -0.8322    5.5834 C   0  0  0  0  0  0  0  0  0  0  0  0
    7.7223   -0.5633    5.5503 C   0  0  0  0  0  0  0  0  0  0  0  0
    5.3948    0.0052    6.2955 C   0  0  0  0  0  0  0  0  0  0  0  0
    4.0322   -0.2053    6.2992 C   0  0  0  0  0  0  0  0  0  0  0  0
   -0.1432   -0.4551    5.4670 C   0  0  0  0  0  0  0  0  0  0  0  0
   -1.2949   -1.6976    5.8558 S   0  0  0  0  0  0  0  0  0  0  0  0
    2.7918    1.2399    4.0550 C   0  0  0  0  0  0  0  0  0  0  0  0
    3.6073    0.4269    3.2929 C   0  0  0  0  0  0  0  0  0  0  0  0
    3.1594   -0.8391    2.6990 C   0  0  0  0  0  0  0  0  0  0  0  0
    2.0769   -1.3842    2.8298 O   0  0  0  0  0  0  0  0  0  0  0  0
    4.2297   -1.2512    1.7682 C   0  0  0  0  0  0  0  0  0  0  0  0
    4.2531   -2.3912    0.9707 C   0  0  0  0  0  0  0  0  0  0  0  0
    5.3646   -2.4884    0.1674 C   0  0  0  0  0  0  0  0  0  0  0  0
    6.3661   -1.5111    0.1402 C   0  0  0  0  0  0  0  0  0  0  0  0
    6.3611   -0.3884    0.9361 C   0  0  0  0  0  0  0  0  0  0  0  0
    5.2499   -0.2820    1.7756 C   0  0  0  0  0  0  0  0  0  0  0  0
    4.9010    0.7431    2.7597 C   0  0  0  0  0  0  0  0  0  0  0  0
    5.7244    1.7565    3.1902 C   0  0  0  0  0  0  0  0  0  0  0  0
    5.4015    2.6334    4.2432 C   0  0  0  0  0  0  0  0  0  0  0  0
    5.2207    3.3644    5.1113 N   0  0  0  0  0  0  0  0  0  0  0  0
    7.0108    2.0031    2.6799 C   0  0  0  0  0  0  0  0  0  0  0  0
    8.0689    2.2483    2.3034 N   0  0  0  0  0  0  0  0  0  0  0  0
    7.1505   -2.2314   -0.9299 C   0  0  0  0  0  0  0  0  0  0  0  0
    7.0203   -1.6895   -2.3700 C   0  0  0  0  0  0  0  0  0  0  0  0
    7.4925   -2.8388   -3.2312 C   0  0  0  0  0  0  0  0  0  0  0  0
    6.5616   -3.7834   -3.1882 C   0  0  0  0  0  0  0  0  0  0  0  0
    5.4439   -3.2870   -2.3000 C   0  0  0  0  0  0  0  0  0  0  0  0
    5.5084   -1.7863   -2.6098 C   0  0  0  0  0  0  0  0  0  0  0  0
    6.0452   -3.3347   -0.8807 C   0  0  0  0  0  0  0  0  0  0  0  0
    2.1200    3.8970   -8.8394 H   0  0  0  0  0  0  0  0  0  0  0  0
    5.3384    0.4499   -4.7841 H   0  0  0  0  0  0  0  0  0  0  0  0
    6.6942    5.1242   -6.1854 H   0  0  0  0  0  0  0  0  0  0  0  0
    9.0338    3.7988   -4.0573 H   0  0  0  0  0  0  0  0  0  0  0  0
    7.5199    5.5139   -2.6931 H   0  0  0  0  0  0  0  0  0  0  0  0
    9.3975    4.6131   -1.0910 H   0  0  0  0  0  0  0  0  0  0  0  0
    8.7414    2.1572   -0.3413 H   0  0  0  0  0  0  0  0  0  0  0  0
    6.4626    1.5274   -1.5018 H   0  0  0  0  0  0  0  0  0  0  0  0
    5.9822    4.0929   -1.0748 H   0  0  0  0  0  0  0  0  0  0  0  0
    5.5260    3.7109   -2.7516 H   0  0  0  0  0  0  0  0  0  0  0  0
    8.3927    1.3849   -3.3461 H   0  0  0  0  0  0  0  0  0  0  0  0
   -0.1817    3.3976   -8.1417 H   0  0  0  0  0  0  0  0  0  0  0  0
   -4.0040    2.7312   -7.7713 H   0  0  0  0  0  0  0  0  0  0  0  0
   -2.4990    3.6096   -8.0758 H   0  0  0  0  0  0  0  0  0  0  0  0
   -3.2329    3.9223   -5.7147 H   0  0  0  0  0  0  0  0  0  0  0  0
   -3.2171    2.1715   -5.4656 H   0  0  0  0  0  0  0  0  0  0  0  0
   -1.7061    3.0312   -5.7664 H   0  0  0  0  0  0  0  0  0  0  0  0
    0.7688   -1.3852   -9.1652 H   0  0  0  0  0  0  0  0  0  0  0  0
    2.5784    0.2843   -9.1594 H   0  0  0  0  0  0  0  0  0  0  0  0
   -1.6078   -2.7572   -8.6661 H   0  0  0  0  0  0  0  0  0  0  0  0
   -3.7606   -3.4229   -7.7066 H   0  0  0  0  0  0  0  0  0  0  0  0
   -4.8076    0.6686   -6.9984 H   0  0  0  0  0  0  0  0  0  0  0  0
   -5.9644   -3.6598   -8.2937 H   0  0  0  0  0  0  0  0  0  0  0  0
   -7.4775   -4.1786   -7.5391 H   0  0  0  0  0  0  0  0  0  0  0  0
   -5.8605   -6.0651   -7.7270 H   0  0  0  0  0  0  0  0  0  0  0  0
   -4.7217   -5.1973   -6.6917 H   0  0  0  0  0  0  0  0  0  0  0  0
   -6.2756   -5.7211   -6.0464 H   0  0  0  0  0  0  0  0  0  0  0  0
   -3.8920   -3.1253    5.9655 H   0  0  0  0  0  0  0  0  0  0  0  0
   -7.8182    0.2862    0.4344 H   0  0  0  0  0  0  0  0  0  0  0  0
   -6.4346    0.6801    1.4953 H   0  0  0  0  0  0  0  0  0  0  0  0
   -9.2096   -0.1746    2.4586 H   0  0  0  0  0  0  0  0  0  0  0  0
   -8.6098    1.4883    2.4120 H   0  0  0  0  0  0  0  0  0  0  0  0
   -7.8549    0.3112    3.4864 H   0  0  0  0  0  0  0  0  0  0  0  0
   -5.9247   -0.2695   -0.5790 H   0  0  0  0  0  0  0  0  0  0  0  0
   -5.3895   -0.5106   -2.2417 H   0  0  0  0  0  0  0  0  0  0  0  0
   -7.8877    1.1079   -1.5291 H   0  0  0  0  0  0  0  0  0  0  0  0
   -7.1911    0.8726   -3.1295 H   0  0  0  0  0  0  0  0  0  0  0  0
   -6.3014    1.7872   -1.9109 H   0  0  0  0  0  0  0  0  0  0  0  0
   -3.1696    4.4475    5.4827 H   0  0  0  0  0  0  0  0  0  0  0  0
   -2.5596    6.1162    3.7877 H   0  0  0  0  0  0  0  0  0  0  0  0
   -2.2844    6.5395    1.2977 H   0  0  0  0  0  0  0  0  0  0  0  0
   -0.5979    6.0924    1.5316 H   0  0  0  0  0  0  0  0  0  0  0  0
   -1.5553    5.2718    0.2989 H   0  0  0  0  0  0  0  0  0  0  0  0
   -1.5013    2.9933    1.0821 H   0  0  0  0  0  0  0  0  0  0  0  0
   -2.1344    1.3208    2.7638 H   0  0  0  0  0  0  0  0  0  0  0  0
   -3.2187    1.0011    7.7283 H   0  0  0  0  0  0  0  0  0  0  0  0
   -5.1627    1.2838    9.1884 H   0  0  0  0  0  0  0  0  0  0  0  0
   -7.8338    1.5233    9.0457 H   0  0  0  0  0  0  0  0  0  0  0  0
   -8.3589    2.9323    8.1147 H   0  0  0  0  0  0  0  0  0  0  0  0
   -7.2576    3.1273    9.4820 H   0  0  0  0  0  0  0  0  0  0  0  0
   -7.2360    3.3036    6.0571 H   0  0  0  0  0  0  0  0  0  0  0  0
   -5.3010    3.0052    4.5810 H   0  0  0  0  0  0  0  0  0  0  0  0
    0.5614   -2.8633    3.8451 H   0  0  0  0  0  0  0  0  0  0  0  0
   -0.2620   -5.1589    4.2240 H   0  0  0  0  0  0  0  0  0  0  0  0
   -0.7269   -6.7339    6.8913 H   0  0  0  0  0  0  0  0  0  0  0  0
    0.0373   -7.2914    5.4058 H   0  0  0  0  0  0  0  0  0  0  0  0
    0.9217   -7.3538    6.9393 H   0  0  0  0  0  0  0  0  0  0  0  0
    1.8585   -5.3031    7.9229 H   0  0  0  0  0  0  0  0  0  0  0  0
    2.6542   -3.0032    7.5573 H   0  0  0  0  0  0  0  0  0  0  0  0
    3.9254   -2.9986    4.4003 H   0  0  0  0  0  0  0  0  0  0  0  0
    6.3512   -2.6000    4.3816 H   0  0  0  0  0  0  0  0  0  0  0  0
    8.1845   -1.0383    4.6881 H   0  0  0  0  0  0  0  0  0  0  0  0
    7.9174    0.5064    5.5098 H   0  0  0  0  0  0  0  0  0  0  0  0
    8.1963   -0.9551    6.4506 H   0  0  0  0  0  0  0  0  0  0  0  0
    5.8026    0.8427    6.8417 H   0  0  0  0  0  0  0  0  0  0  0  0
    3.3840    0.4641    6.8446 H   0  0  0  0  0  0  0  0  0  0  0  0
    2.9874    2.3060    4.0627 H   0  0  0  0  0  0  0  0  0  0  0  0
    3.4523   -3.1134    1.0092 H   0  0  0  0  0  0  0  0  0  0  0  0
    7.1415    0.3540    0.9147 H   0  0  0  0  0  0  0  0  0  0  0  0
    8.1725   -2.5036   -0.6717 H   0  0  0  0  0  0  0  0  0  0  0  0
    7.4933   -0.7263   -2.5384 H   0  0  0  0  0  0  0  0  0  0  0  0
    8.4484   -2.8691   -3.7205 H   0  0  0  0  0  0  0  0  0  0  0  0
    6.5844   -4.7599   -3.6355 H   0  0  0  0  0  0  0  0  0  0  0  0
    4.4805   -3.7787   -2.4051 H   0  0  0  0  0  0  0  0  0  0  0  0
    5.2382   -1.5760   -3.6432 H   0  0  0  0  0  0  0  0  0  0  0  0
    4.9096   -1.1689   -1.9423 H   0  0  0  0  0  0  0  0  0  0  0  0
    6.3295   -4.3384   -0.5696 H   0  0  0  0  0  0  0  0  0  0  0  0
  1  2  2  0  0  0  0
  2  3  1  0  0  0  0
  3  4  2  0  0  0  0
  3  5  1  0  0  0  0
  5  6  2  0  0  0  0
  6  7  1  0  0  0  0
  7  8  2  0  0  0  0
  8  9  1  0  0  0  0
  9 10  2  0  0  0  0
 10 11  1  0  0  0  0
 11 12  2  0  0  0  0
 12 13  1  0  0  0  0
 13 14  3  0  0  0  0
 12 15  1  0  0  0  0
 15 16  3  0  0  0  0
  8 17  1  0  0  0  0
 17 18  1  0  0  0  0
 18 19  1  0  0  0  0
 19 20  2  0  0  0  0
 20 21  1  0  0  0  0
 21 22  1  0  0  0  0
 21 23  1  0  0  0  0
  1 24  1  0  0  0  0
 24 25  2  0  0  0  0
 25 26  1  0  0  0  0
 26 27  1  0  0  0  0
 27 28  1  0  0  0  0
 28 29  1  0  0  0  0
 27 30  1  0  0  0  0
 30 31  2  0  0  0  0
 31 32  1  0  0  0  0
 32 33  1  0  0  0  0
 33 34  2  0  0  0  0
 31 35  1  0  0  0  0
 35 36  2  0  0  0  0
 36 37  1  0  0  0  0
 37 38  2  0  0  0  0
 37 39  1  0  0  0  0
 39 40  2  0  0  0  0
 40 41  1  0  0  0  0
 41 42  1  0  0  0  0
 40 43  1  0  0  0  0
 43 44  2  0  0  0  0
 44 45  1  0  0  0  0
 44 46  1  0  0  0  0
 46 47  2  0  0  0  0
 47 48  1  0  0  0  0
 47 49  1  0  0  0  0
 49 50  1  0  0  0  0
 50 51  2  0  0  0  0
 51 52  1  0  0  0  0
 52 53  1  0  0  0  0
 53 54  2  0  0  0  0
 54 55  1  0  0  0  0
 55 56  1  0  0  0  0
 56 57  1  0  0  0  0
 57 58  1  0  0  0  0
 58 59  1  0  0  0  0
 59 60  2  0  0  0  0
 60 61  1  0  0  0  0
 61 62  1  0  0  0  0
 62 63  1  0  0  0  0
 63 64  1  0  0  0  0
 64 65  1  0  0  0  0
 65 66  1  0  0  0  0
 64 67  1  0  0  0  0
 67 68  1  0  0  0  0
 68 69  1  0  0  0  0
 69 70  1  0  0  0  0
 70 71  1  0  0  0  0
 60 72  1  0  0  0  0
 72 73  2  0  0  0  0
 73 74  1  0  0  0  0
 74 75  1  0  0  0  0
 75 76  2  0  0  0  0
 76 77  1  0  0  0  0
 77 78  2  0  0  0  0
 78 79  1  0  0  0  0
 78 80  1  0  0  0  0
 80 81  2  0  0  0  0
 74 82  1  0  0  0  0
 82 83  2  0  0  0  0
 83 84  1  0  0  0  0
 84 85  2  0  0  0  0
 85 86  1  0  0  0  0
 85 87  1  0  0  0  0
 87 88  2  0  0  0  0
 73 89  1  0  0  0  0
 89 90  1  0  0  0  0
 90 91  1  0  0  0  0
 91 92  2  0  0  0  0
 92 93  1  0  0  0  0
 93 94  1  0  0  0  0
 94 95  2  0  0  0  0
 95 96  1  0  0  0  0
 96 97  2  0  0  0  0
 97 98  1  0  0  0  0
 97 99  1  0  0  0  0
 99100  2  0  0  0  0
 93101  1  0  0  0  0
101102  2  0  0  0  0
102103  1  0  0  0  0
103104  2  0  0  0  0
104105  1  0  0  0  0
104106  1  0  0  0  0
106107  2  0  0  0  0
 92108  1  0  0  0  0
108109  1  0  0  0  0
 91110  1  0  0  0  0
110111  2  0  0  0  0
111112  1  0  0  0  0
112113  2  0  0  0  0
112114  1  0  0  0  0
114115  2  0  0  0  0
115116  1  0  0  0  0
116117  2  0  0  0  0
117118  1  0  0  0  0
118119  2  0  0  0  0
119120  1  0  0  0  0
120121  2  0  0  0  0
121122  1  0  0  0  0
122123  3  0  0  0  0
121124  1  0  0  0  0
124125  3  0  0  0  0
117126  1  0  0  0  0
126127  1  0  0  0  0
127128  1  0  0  0  0
128129  2  0  0  0  0
129130  1  0  0  0  0
130131  1  0  0  0  0
130132  1  0  0  0  0
 11  2  1  0  0  0  0
 23 17  1  0  0  0  0
 34 24  1  0  0  0  0
 45 39  1  0  0  0  0
 69 46  1  0  0  0  0
109 72  1  0  0  0  0
120111  1  0  0  0  0
132126  1  0  0  0  0
 10  5  1  0  0  0  0
 22 18  1  0  0  0  0
 32 26  2  0  0  0  0
 48 43  1  0  0  0  0
 68 49  2  0  0  0  0
 81 75  1  0  0  0  0
 88 82  1  0  0  0  0
108 89  2  0  0  0  0
119114  1  0  0  0  0
131127  1  0  0  0  0
 23  7  1  0  0  0  0
 38 30  1  0  0  0  0
 54 50  1  0  0  0  0
 67 55  2  0  0  0  0
100 94  1  0  0  0  0
107101  1  0  0  0  0
132116  1  0  0  0  0
 63 56  2  0  0  0  0
 62 58  2  0  0  0  0
  1133  1  0  0  0  0
  6134  1  0  0  0  0
  9135  1  0  0  0  0
 17136  1  0  0  0  0
 18137  1  0  0  0  0
 19138  1  0  0  0  0
 20139  1  0  0  0  0
 21140  1  0  0  0  0
 22141  1  0  0  0  0
 22142  1  0  0  0  0
 23143  1  0  0  0  0
 25144  1  0  0  0  0
 28145  1  0  0  0  0
 28146  1  0  0  0  0
 29147  1  0  0  0  0
 29148  1  0  0  0  0
 29149  1  0  0  0  0
 33150  1  0  0  0  0
 34151  1  0  0  0  0
 35152  1  0  0  0  0
 36153  1  0  0  0  0
 38154  1  0  0  0  0
 41155  1  0  0  0  0
 41156  1  0  0  0  0
 42157  1  0  0  0  0
 42158  1  0  0  0  0
 42159  1  0  0  0  0
 59160  1  0  0  0  0
 65161  1  0  0  0  0
 65162  1  0  0  0  0
 66163  1  0  0  0  0
 66164  1  0  0  0  0
 66165  1  0  0  0  0
 70166  1  0  0  0  0
 70167  1  0  0  0  0
 71168  1  0  0  0  0
 71169  1  0  0  0  0
 71170  1  0  0  0  0
 76171  1  0  0  0  0
 77172  1  0  0  0  0
 79173  1  0  0  0  0
 79174  1  0  0  0  0
 79175  1  0  0  0  0
 80176  1  0  0  0  0
 81177  1  0  0  0  0
 83178  1  0  0  0  0
 84179  1  0  0  0  0
 86180  1  0  0  0  0
 86181  1  0  0  0  0
 86182  1  0  0  0  0
 87183  1  0  0  0  0
 88184  1  0  0  0  0
 95185  1  0  0  0  0
 96186  1  0  0  0  0
 98187  1  0  0  0  0
 98188  1  0  0  0  0
 98189  1  0  0  0  0
 99190  1  0  0  0  0
100191  1  0  0  0  0
102192  1  0  0  0  0
103193  1  0  0  0  0
105194  1  0  0  0  0
105195  1  0  0  0  0
105196  1  0  0  0  0
106197  1  0  0  0  0
107198  1  0  0  0  0
110199  1  0  0  0  0
115200  1  0  0  0  0
118201  1  0  0  0  0
126202  1  0  0  0  0
127203  1  0  0  0  0
128204  1  0  0  0  0
129205  1  0  0  0  0
130206  1  0  0  0  0
131207  1  0  0  0  0
131208  1  0  0  0  0
132209  1  0  0  0  0
M  END
