
  xtb     02202206463D
 energy: -327.245659068234 gnorm: 0.000612539921 xtb: 6.4.1 (unknown)
200224  0     0  0            999 V2000
  -12.4770    4.3995   -5.3785 C   0  0  0  0  0  0  0  0  0  0  0  0
  -12.4999    3.1904   -6.0028 C   0  0  0  0  0  0  0  0  0  0  0  0
  -11.3791    2.2190   -6.1045 C   0  0  0  0  0  0  0  0  0  0  0  0
  -10.3328    2.1941   -5.4894 O   0  0  0  0  0  0  0  0  0  0  0  0
  -11.7547    1.2902   -7.1864 C   0  0  0  0  0  0  0  0  0  0  0  0
  -10.9802    0.2437   -7.6831 C   0  0  0  0  0  0  0  0  0  0  0  0
  -11.5764   -0.4588   -8.7015 C   0  0  0  0  0  0  0  0  0  0  0  0
  -12.8498   -0.1424   -9.1952 C   0  0  0  0  0  0  0  0  0  0  0  0
  -13.6255    0.8840   -8.7121 C   0  0  0  0  0  0  0  0  0  0  0  0
  -13.0375    1.6109   -7.6719 C   0  0  0  0  0  0  0  0  0  0  0  0
  -13.5453    2.7489   -6.9149 C   0  0  0  0  0  0  0  0  0  0  0  0
  -14.8148    3.2570   -6.9890 C   0  0  0  0  0  0  0  0  0  0  0  0
  -15.8109    2.7897   -7.8718 C   0  0  0  0  0  0  0  0  0  0  0  0
  -16.6643    2.4634   -8.5673 N   0  0  0  0  0  0  0  0  0  0  0  0
  -15.3256    4.2865   -6.1690 C   0  0  0  0  0  0  0  0  0  0  0  0
  -15.8281    5.1000   -5.5330 N   0  0  0  0  0  0  0  0  0  0  0  0
  -12.8118   -1.2452  -10.2233 C   0  0  0  0  0  0  0  0  0  0  0  0
  -12.5187   -0.8523  -11.6925 C   0  0  0  0  0  0  0  0  0  0  0  0
  -11.7120    0.4215  -11.6438 C   0  0  0  0  0  0  0  0  0  0  0  0
  -10.5084    0.1210  -11.1747 C   0  0  0  0  0  0  0  0  0  0  0  0
  -10.4794   -1.3619  -10.8978 C   0  0  0  0  0  0  0  0  0  0  0  0
  -11.4075   -1.8641  -12.0153 C   0  0  0  0  0  0  0  0  0  0  0  0
  -11.3949   -1.5992   -9.6712 C   0  0  0  0  0  0  0  0  0  0  0  0
  -11.5065    4.8936   -4.4432 C   0  0  0  0  0  0  0  0  0  0  0  0
  -10.8483    4.0503   -3.5457 C   0  0  0  0  0  0  0  0  0  0  0  0
   -9.8731    4.5926   -2.7324 C   0  0  0  0  0  0  0  0  0  0  0  0
   -9.0675    3.9672   -1.8125 N   0  0  0  0  0  0  0  0  0  0  0  0
   -9.0300    2.5457   -1.5868 C   0  0  0  0  0  0  0  0  0  0  0  0
   -8.2363    1.8253   -2.6752 C   0  0  0  0  0  0  0  0  0  0  0  0
   -8.1913    4.8922   -1.3069 C   0  0  0  0  0  0  0  0  0  0  0  0
   -8.4769    6.1676   -1.8612 C   0  0  0  0  0  0  0  0  0  0  0  0
   -9.5530    5.9753   -2.7785 C   0  0  0  0  0  0  0  0  0  0  0  0
  -10.2625    6.8195   -3.6309 C   0  0  0  0  0  0  0  0  0  0  0  0
  -11.2321    6.2796   -4.4393 C   0  0  0  0  0  0  0  0  0  0  0  0
   -7.7072    7.2682   -1.4930 C   0  0  0  0  0  0  0  0  0  0  0  0
   -6.6730    7.0953   -0.6049 C   0  0  0  0  0  0  0  0  0  0  0  0
   -6.3843    5.8309   -0.0559 C   0  0  0  0  0  0  0  0  0  0  0  0
   -7.1495    4.7233   -0.4114 C   0  0  0  0  0  0  0  0  0  0  0  0
   -5.2386    5.6510    0.8115 C   0  0  0  0  0  0  0  0  0  0  0  0
   -4.6060    6.5424    1.6508 C   0  0  0  0  0  0  0  0  0  0  0  0
   -5.1106    7.8612    2.0404 C   0  0  0  0  0  0  0  0  0  0  0  0
   -6.4525    8.0362    2.3719 C   0  0  0  0  0  0  0  0  0  0  0  0
   -6.9035    9.2745    2.7849 C   0  0  0  0  0  0  0  0  0  0  0  0
   -6.0277   10.3429    2.8771 C   0  0  0  0  0  0  0  0  0  0  0  0
   -4.6849   10.1840    2.5602 C   0  0  0  0  0  0  0  0  0  0  0  0
   -3.7363   11.3463    2.6241 C   0  0  0  0  0  0  0  0  0  0  0  0
   -3.7065   12.0872    1.2858 C   0  0  0  0  0  0  0  0  0  0  0  0
   -4.2384    8.9394    2.1418 C   0  0  0  0  0  0  0  0  0  0  0  0
   -3.4198    5.9906    2.1907 C   0  0  0  0  0  0  0  0  0  0  0  0
   -2.1959    6.6239    3.2676 S   0  0  0  0  0  0  0  0  0  0  0  0
   -1.3510    5.1157    3.1624 C   0  0  0  0  0  0  0  0  0  0  0  0
   -0.1468    4.5321    3.5954 C   0  0  0  0  0  0  0  0  0  0  0  0
    0.9624    5.0756    4.2797 C   0  0  0  0  0  0  0  0  0  0  0  0
    2.1526    4.2822    4.4173 C   0  0  0  0  0  0  0  0  0  0  0  0
    3.1353    4.9436    5.0079 N   0  0  0  0  0  0  0  0  0  0  0  0
    2.6086    6.4324    5.3675 S   0  0  0  0  0  0  0  0  0  0  0  0
    1.1063    6.2928    4.7795 N   0  0  0  0  0  0  0  0  0  0  0  0
    2.1296    2.9362    3.9915 C   0  0  0  0  0  0  0  0  0  0  0  0
    3.0679    1.8989    4.1225 C   0  0  0  0  0  0  0  0  0  0  0  0
    4.6910    1.6602    4.6765 S   0  0  0  0  0  0  0  0  0  0  0  0
    4.5334   -0.0444    4.3245 C   0  0  0  0  0  0  0  0  0  0  0  0
    5.4217   -1.1254    4.4638 C   0  0  0  0  0  0  0  0  0  0  0  0
    6.7751   -0.9839    5.0075 C   0  0  0  0  0  0  0  0  0  0  0  0
    7.1892   -1.7462    6.0959 C   0  0  0  0  0  0  0  0  0  0  0  0
    8.4607   -1.5767    6.6063 C   0  0  0  0  0  0  0  0  0  0  0  0
    9.3219   -0.6509    6.0429 C   0  0  0  0  0  0  0  0  0  0  0  0
    8.9196    0.1247    4.9645 C   0  0  0  0  0  0  0  0  0  0  0  0
    9.8236    1.1718    4.3806 C   0  0  0  0  0  0  0  0  0  0  0  0
    9.4999    2.5446    4.9735 C   0  0  0  0  0  0  0  0  0  0  0  0
    7.6393   -0.0456    4.4591 C   0  0  0  0  0  0  0  0  0  0  0  0
    4.8414   -2.3135    4.0527 C   0  0  0  0  0  0  0  0  0  0  0  0
    3.1745   -2.0905    3.5241 S   0  0  0  0  0  0  0  0  0  0  0  0
    3.2779   -0.3913    3.8171 C   0  0  0  0  0  0  0  0  0  0  0  0
    2.4461    0.7264    3.6831 C   0  0  0  0  0  0  0  0  0  0  0  0
    1.1740    1.0048    3.2556 N   0  0  0  0  0  0  0  0  0  0  0  0
    0.9650    2.3625    3.4096 C   0  0  0  0  0  0  0  0  0  0  0  0
   -0.1258    3.2073    3.0809 C   0  0  0  0  0  0  0  0  0  0  0  0
   -1.2700    3.0082    2.3201 N   0  0  0  0  0  0  0  0  0  0  0  0
   -1.9935    4.1723    2.3610 C   0  0  0  0  0  0  0  0  0  0  0  0
   -3.1709    4.6791    1.7941 C   0  0  0  0  0  0  0  0  0  0  0  0
   -4.3992    4.1084    0.7243 S   0  0  0  0  0  0  0  0  0  0  0  0
   -1.4614    2.1159    1.1972 C   0  0  0  0  0  0  0  0  0  0  0  0
   -0.4670    2.4218    0.0792 C   0  0  0  0  0  0  0  0  0  0  0  0
    0.2125   -0.0625    3.0999 C   0  0  0  0  0  0  0  0  0  0  0  0
    0.3809   -0.8096    1.7778 C   0  0  0  0  0  0  0  0  0  0  0  0
    5.4187   -3.6010    3.9075 C   0  0  0  0  0  0  0  0  0  0  0  0
    4.7143   -4.7710    3.6543 C   0  0  0  0  0  0  0  0  0  0  0  0
    5.5331   -5.8716    3.4721 C   0  0  0  0  0  0  0  0  0  0  0  0
    5.0629   -7.2311    3.1732 C   0  0  0  0  0  0  0  0  0  0  0  0
    5.3840   -7.8209    1.9430 C   0  0  0  0  0  0  0  0  0  0  0  0
    6.0651   -7.0150    1.0774 O   0  0  0  0  0  0  0  0  0  0  0  0
    6.6435   -7.5684   -0.0863 C   0  0  0  0  0  0  0  0  0  0  0  0
    7.8845   -8.4029    0.2170 C   0  0  0  0  0  0  0  0  0  0  0  0
    4.9756   -9.1224    1.6814 C   0  0  0  0  0  0  0  0  0  0  0  0
    4.2606   -9.8169    2.6391 C   0  0  0  0  0  0  0  0  0  0  0  0
    3.9363   -9.2475    3.8547 C   0  0  0  0  0  0  0  0  0  0  0  0
    4.3354   -7.9445    4.1323 C   0  0  0  0  0  0  0  0  0  0  0  0
    4.0805   -7.2715    5.2888 O   0  0  0  0  0  0  0  0  0  0  0  0
    3.7020   -7.9982    6.4416 C   0  0  0  0  0  0  0  0  0  0  0  0
    4.8476   -8.8366    6.9992 C   0  0  0  0  0  0  0  0  0  0  0  0
    6.9005   -5.5597    3.5838 C   0  0  0  0  0  0  0  0  0  0  0  0
    7.1327   -3.8584    3.8955 S   0  0  0  0  0  0  0  0  0  0  0  0
    7.8910   -6.5400    3.5096 C   0  0  0  0  0  0  0  0  0  0  0  0
    9.2592   -6.4278    3.4977 C   0  0  0  0  0  0  0  0  0  0  0  0
   10.0228   -5.1773    3.4985 C   0  0  0  0  0  0  0  0  0  0  0  0
    9.5983   -4.0440    3.6459 O   0  0  0  0  0  0  0  0  0  0  0  0
   11.4309   -5.5593    3.2724 C   0  0  0  0  0  0  0  0  0  0  0  0
   12.5213   -4.7047    3.1387 C   0  0  0  0  0  0  0  0  0  0  0  0
   13.7119   -5.3499    2.9016 C   0  0  0  0  0  0  0  0  0  0  0  0
   13.8111   -6.7439    2.8128 C   0  0  0  0  0  0  0  0  0  0  0  0
   12.7438   -7.5995    2.9526 C   0  0  0  0  0  0  0  0  0  0  0  0
   11.5223   -6.9632    3.1862 C   0  0  0  0  0  0  0  0  0  0  0  0
   10.1850   -7.5286    3.3668 C   0  0  0  0  0  0  0  0  0  0  0  0
    9.8872   -8.8694    3.4200 C   0  0  0  0  0  0  0  0  0  0  0  0
   10.8318   -9.9032    3.2640 C   0  0  0  0  0  0  0  0  0  0  0  0
   11.5364  -10.8020    3.1382 N   0  0  0  0  0  0  0  0  0  0  0  0
    8.6123   -9.4235    3.6548 C   0  0  0  0  0  0  0  0  0  0  0  0
    7.6220   -9.9741    3.8529 N   0  0  0  0  0  0  0  0  0  0  0  0
   15.2930   -6.7017    2.5359 C   0  0  0  0  0  0  0  0  0  0  0  0
   15.7573   -6.9215    1.0748 C   0  0  0  0  0  0  0  0  0  0  0  0
   14.6155   -6.4845    0.1912 C   0  0  0  0  0  0  0  0  0  0  0  0
   14.5216   -5.1641    0.2742 C   0  0  0  0  0  0  0  0  0  0  0  0
   15.5987   -4.6846    1.2155 C   0  0  0  0  0  0  0  0  0  0  0  0
   16.6980   -5.7164    0.9166 C   0  0  0  0  0  0  0  0  0  0  0  0
   15.1827   -5.1475    2.6341 C   0  0  0  0  0  0  0  0  0  0  0  0
  -13.2412    5.1162   -5.6580 H   0  0  0  0  0  0  0  0  0  0  0  0
  -10.0034    0.0361   -7.2747 H   0  0  0  0  0  0  0  0  0  0  0  0
  -14.6011    1.1175   -9.1044 H   0  0  0  0  0  0  0  0  0  0  0  0
  -13.5934   -1.9980  -10.1436 H   0  0  0  0  0  0  0  0  0  0  0  0
  -13.3916   -0.8432  -12.3396 H   0  0  0  0  0  0  0  0  0  0  0  0
  -12.1056    1.3894  -11.8936 H   0  0  0  0  0  0  0  0  0  0  0  0
   -9.6955    0.7878  -10.9536 H   0  0  0  0  0  0  0  0  0  0  0  0
   -9.4953   -1.8169  -10.8216 H   0  0  0  0  0  0  0  0  0  0  0  0
  -10.9848   -1.7227  -13.0088 H   0  0  0  0  0  0  0  0  0  0  0  0
  -11.7152   -2.9014  -11.8905 H   0  0  0  0  0  0  0  0  0  0  0  0
  -11.2514   -2.5838   -9.2302 H   0  0  0  0  0  0  0  0  0  0  0  0
  -11.1140    3.0094   -3.4848 H   0  0  0  0  0  0  0  0  0  0  0  0
  -10.0576    2.1715   -1.5635 H   0  0  0  0  0  0  0  0  0  0  0  0
   -8.5816    2.3668   -0.6065 H   0  0  0  0  0  0  0  0  0  0  0  0
   -8.2027    0.7591   -2.4671 H   0  0  0  0  0  0  0  0  0  0  0  0
   -8.7024    1.9790   -3.6454 H   0  0  0  0  0  0  0  0  0  0  0  0
   -7.2185    2.2075   -2.7118 H   0  0  0  0  0  0  0  0  0  0  0  0
  -10.0465    7.8767   -3.6558 H   0  0  0  0  0  0  0  0  0  0  0  0
  -11.7797    6.9145   -5.1202 H   0  0  0  0  0  0  0  0  0  0  0  0
   -7.9086    8.2403   -1.9163 H   0  0  0  0  0  0  0  0  0  0  0  0
   -6.0488    7.9332   -0.3384 H   0  0  0  0  0  0  0  0  0  0  0  0
   -6.9150    3.7545    0.0049 H   0  0  0  0  0  0  0  0  0  0  0  0
   -7.1318    7.1989    2.3123 H   0  0  0  0  0  0  0  0  0  0  0  0
   -7.9439    9.4065    3.0433 H   0  0  0  0  0  0  0  0  0  0  0  0
   -6.3879   11.3073    3.2057 H   0  0  0  0  0  0  0  0  0  0  0  0
   -2.7324   10.9894    2.8615 H   0  0  0  0  0  0  0  0  0  0  0  0
   -4.0495   12.0361    3.4104 H   0  0  0  0  0  0  0  0  0  0  0  0
   -4.6964   12.4655    1.0399 H   0  0  0  0  0  0  0  0  0  0  0  0
   -3.0154   12.9258    1.3304 H   0  0  0  0  0  0  0  0  0  0  0  0
   -3.3888   11.4176    0.4896 H   0  0  0  0  0  0  0  0  0  0  0  0
   -3.1977    8.8083    1.8829 H   0  0  0  0  0  0  0  0  0  0  0  0
    6.5108   -2.4606    6.5389 H   0  0  0  0  0  0  0  0  0  0  0  0
    8.7834   -2.1693    7.4497 H   0  0  0  0  0  0  0  0  0  0  0  0
   10.3173   -0.5293    6.4455 H   0  0  0  0  0  0  0  0  0  0  0  0
    9.6929    1.2081    3.2971 H   0  0  0  0  0  0  0  0  0  0  0  0
   10.8652    0.9222    4.5910 H   0  0  0  0  0  0  0  0  0  0  0  0
   10.1461    3.3071    4.5445 H   0  0  0  0  0  0  0  0  0  0  0  0
    9.6435    2.5338    6.0517 H   0  0  0  0  0  0  0  0  0  0  0  0
    8.4649    2.8104    4.7708 H   0  0  0  0  0  0  0  0  0  0  0  0
    7.3137    0.5462    3.6154 H   0  0  0  0  0  0  0  0  0  0  0  0
   -1.3836    1.0755    1.5016 H   0  0  0  0  0  0  0  0  0  0  0  0
   -2.4802    2.2806    0.8378 H   0  0  0  0  0  0  0  0  0  0  0  0
    0.5551    2.2936    0.4298 H   0  0  0  0  0  0  0  0  0  0  0  0
   -0.6389    1.7586   -0.7645 H   0  0  0  0  0  0  0  0  0  0  0  0
   -0.5866    3.4491   -0.2575 H   0  0  0  0  0  0  0  0  0  0  0  0
   -0.7900    0.3521    3.2144 H   0  0  0  0  0  0  0  0  0  0  0  0
    0.3695   -0.7725    3.9205 H   0  0  0  0  0  0  0  0  0  0  0  0
    0.3545   -0.1322    0.9294 H   0  0  0  0  0  0  0  0  0  0  0  0
   -0.4110   -1.5458    1.6691 H   0  0  0  0  0  0  0  0  0  0  0  0
    1.3343   -1.3302    1.7657 H   0  0  0  0  0  0  0  0  0  0  0  0
    3.6400   -4.8123    3.6067 H   0  0  0  0  0  0  0  0  0  0  0  0
    6.9180   -6.6975   -0.6881 H   0  0  0  0  0  0  0  0  0  0  0  0
    5.9070   -8.1555   -0.6481 H   0  0  0  0  0  0  0  0  0  0  0  0
    8.6355   -7.7822    0.7008 H   0  0  0  0  0  0  0  0  0  0  0  0
    7.6396   -9.2307    0.8791 H   0  0  0  0  0  0  0  0  0  0  0  0
    8.2975   -8.7996   -0.7064 H   0  0  0  0  0  0  0  0  0  0  0  0
    5.2113   -9.6066    0.7481 H   0  0  0  0  0  0  0  0  0  0  0  0
    3.9544  -10.8312    2.4335 H   0  0  0  0  0  0  0  0  0  0  0  0
    3.3836   -9.8271    4.5755 H   0  0  0  0  0  0  0  0  0  0  0  0
    3.4148   -7.2258    7.1606 H   0  0  0  0  0  0  0  0  0  0  0  0
    2.8224   -8.6220    6.2402 H   0  0  0  0  0  0  0  0  0  0  0  0
    5.6854   -8.1923    7.2542 H   0  0  0  0  0  0  0  0  0  0  0  0
    5.1877   -9.5616    6.2634 H   0  0  0  0  0  0  0  0  0  0  0  0
    4.5201   -9.3621    7.8920 H   0  0  0  0  0  0  0  0  0  0  0  0
    7.4871   -7.5409    3.4201 H   0  0  0  0  0  0  0  0  0  0  0  0
   12.3984   -3.6355    3.2154 H   0  0  0  0  0  0  0  0  0  0  0  0
   12.8378   -8.6701    2.8802 H   0  0  0  0  0  0  0  0  0  0  0  0
   15.9290   -7.2145    3.2547 H   0  0  0  0  0  0  0  0  0  0  0  0
   16.1678   -7.9077    0.8753 H   0  0  0  0  0  0  0  0  0  0  0  0
   13.9758   -7.1644   -0.3407 H   0  0  0  0  0  0  0  0  0  0  0  0
   13.7875   -4.5203   -0.1740 H   0  0  0  0  0  0  0  0  0  0  0  0
   15.8659   -3.6334    1.1433 H   0  0  0  0  0  0  0  0  0  0  0  0
   17.5127   -5.7044    1.6395 H   0  0  0  0  0  0  0  0  0  0  0  0
   17.0994   -5.6245   -0.0916 H   0  0  0  0  0  0  0  0  0  0  0  0
   15.7481   -4.6449    3.4166 H   0  0  0  0  0  0  0  0  0  0  0  0
  1  2  2  0  0  0  0
  2  3  1  0  0  0  0
  3  4  2  0  0  0  0
  3  5  1  0  0  0  0
  5  6  2  0  0  0  0
  6  7  1  0  0  0  0
  7  8  2  0  0  0  0
  8  9  1  0  0  0  0
  9 10  2  0  0  0  0
 10 11  1  0  0  0  0
 11 12  2  0  0  0  0
 12 13  1  0  0  0  0
 13 14  3  0  0  0  0
 12 15  1  0  0  0  0
 15 16  3  0  0  0  0
  8 17  1  0  0  0  0
 17 18  1  0  0  0  0
 18 19  1  0  0  0  0
 19 20  2  0  0  0  0
 20 21  1  0  0  0  0
 21 22  1  0  0  0  0
 21 23  1  0  0  0  0
  1 24  1  0  0  0  0
 24 25  2  0  0  0  0
 25 26  1  0  0  0  0
 26 27  1  0  0  0  0
 27 28  1  0  0  0  0
 28 29  1  0  0  0  0
 27 30  1  0  0  0  0
 30 31  2  0  0  0  0
 31 32  1  0  0  0  0
 32 33  1  0  0  0  0
 33 34  2  0  0  0  0
 31 35  1  0  0  0  0
 35 36  2  0  0  0  0
 36 37  1  0  0  0  0
 37 38  2  0  0  0  0
 37 39  1  0  0  0  0
 39 40  2  0  0  0  0
 40 41  1  0  0  0  0
 41 42  2  0  0  0  0
 42 43  1  0  0  0  0
 43 44  2  0  0  0  0
 44 45  1  0  0  0  0
 45 46  1  0  0  0  0
 46 47  1  0  0  0  0
 45 48  2  0  0  0  0
 40 49  1  0  0  0  0
 49 50  1  0  0  0  0
 50 51  1  0  0  0  0
 51 52  1  0  0  0  0
 52 53  1  0  0  0  0
 53 54  1  0  0  0  0
 54 55  2  0  0  0  0
 55 56  1  0  0  0  0
 56 57  1  0  0  0  0
 54 58  1  0  0  0  0
 58 59  1  0  0  0  0
 59 60  1  0  0  0  0
 60 61  1  0  0  0  0
 61 62  1  0  0  0  0
 62 63  1  0  0  0  0
 63 64  2  0  0  0  0
 64 65  1  0  0  0  0
 65 66  2  0  0  0  0
 66 67  1  0  0  0  0
 67 68  1  0  0  0  0
 68 69  1  0  0  0  0
 67 70  2  0  0  0  0
 62 71  2  0  0  0  0
 71 72  1  0  0  0  0
 72 73  1  0  0  0  0
 73 74  1  0  0  0  0
 74 75  1  0  0  0  0
 75 76  1  0  0  0  0
 76 77  1  0  0  0  0
 77 78  1  0  0  0  0
 78 79  1  0  0  0  0
 79 80  1  0  0  0  0
 80 81  1  0  0  0  0
 78 82  1  0  0  0  0
 82 83  1  0  0  0  0
 75 84  1  0  0  0  0
 84 85  1  0  0  0  0
 71 86  1  0  0  0  0
 86 87  2  0  0  0  0
 87 88  1  0  0  0  0
 88 89  1  0  0  0  0
 89 90  2  0  0  0  0
 90 91  1  0  0  0  0
 91 92  1  0  0  0  0
 92 93  1  0  0  0  0
 90 94  1  0  0  0  0
 94 95  2  0  0  0  0
 95 96  1  0  0  0  0
 96 97  2  0  0  0  0
 97 98  1  0  0  0  0
 98 99  1  0  0  0  0
 99100  1  0  0  0  0
 88101  2  0  0  0  0
101102  1  0  0  0  0
101103  1  0  0  0  0
103104  2  0  0  0  0
104105  1  0  0  0  0
105106  2  0  0  0  0
105107  1  0  0  0  0
107108  2  0  0  0  0
108109  1  0  0  0  0
109110  2  0  0  0  0
110111  1  0  0  0  0
111112  2  0  0  0  0
112113  1  0  0  0  0
113114  2  0  0  0  0
114115  1  0  0  0  0
115116  3  0  0  0  0
114117  1  0  0  0  0
117118  3  0  0  0  0
110119  1  0  0  0  0
119120  1  0  0  0  0
120121  1  0  0  0  0
121122  2  0  0  0  0
122123  1  0  0  0  0
123124  1  0  0  0  0
123125  1  0  0  0  0
 11  2  1  0  0  0  0
 23 17  1  0  0  0  0
 34 24  1  0  0  0  0
 81 39  1  0  0  0  0
102 86  1  0  0  0  0
113104  1  0  0  0  0
125119  1  0  0  0  0
 10  5  1  0  0  0  0
 22 18  1  0  0  0  0
 32 26  2  0  0  0  0
 48 41  1  0  0  0  0
 80 49  2  0  0  0  0
 97 89  1  0  0  0  0
112107  1  0  0  0  0
124120  1  0  0  0  0
 23  7  1  0  0  0  0
 38 30  1  0  0  0  0
 79 51  2  0  0  0  0
125109  1  0  0  0  0
 77 52  2  0  0  0  0
 57 53  2  0  0  0  0
 76 58  2  0  0  0  0
 74 59  2  0  0  0  0
 73 61  2  0  0  0  0
 70 63  1  0  0  0  0
  1126  1  0  0  0  0
  6127  1  0  0  0  0
  9128  1  0  0  0  0
 17129  1  0  0  0  0
 18130  1  0  0  0  0
 19131  1  0  0  0  0
 20132  1  0  0  0  0
 21133  1  0  0  0  0
 22134  1  0  0  0  0
 22135  1  0  0  0  0
 23136  1  0  0  0  0
 25137  1  0  0  0  0
 28138  1  0  0  0  0
 28139  1  0  0  0  0
 29140  1  0  0  0  0
 29141  1  0  0  0  0
 29142  1  0  0  0  0
 33143  1  0  0  0  0
 34144  1  0  0  0  0
 35145  1  0  0  0  0
 36146  1  0  0  0  0
 38147  1  0  0  0  0
 42148  1  0  0  0  0
 43149  1  0  0  0  0
 44150  1  0  0  0  0
 46151  1  0  0  0  0
 46152  1  0  0  0  0
 47153  1  0  0  0  0
 47154  1  0  0  0  0
 47155  1  0  0  0  0
 48156  1  0  0  0  0
 64157  1  0  0  0  0
 65158  1  0  0  0  0
 66159  1  0  0  0  0
 68160  1  0  0  0  0
 68161  1  0  0  0  0
 69162  1  0  0  0  0
 69163  1  0  0  0  0
 69164  1  0  0  0  0
 70165  1  0  0  0  0
 82166  1  0  0  0  0
 82167  1  0  0  0  0
 83168  1  0  0  0  0
 83169  1  0  0  0  0
 83170  1  0  0  0  0
 84171  1  0  0  0  0
 84172  1  0  0  0  0
 85173  1  0  0  0  0
 85174  1  0  0  0  0
 85175  1  0  0  0  0
 87176  1  0  0  0  0
 92177  1  0  0  0  0
 92178  1  0  0  0  0
 93179  1  0  0  0  0
 93180  1  0  0  0  0
 93181  1  0  0  0  0
 94182  1  0  0  0  0
 95183  1  0  0  0  0
 96184  1  0  0  0  0
 99185  1  0  0  0  0
 99186  1  0  0  0  0
100187  1  0  0  0  0
100188  1  0  0  0  0
100189  1  0  0  0  0
103190  1  0  0  0  0
108191  1  0  0  0  0
111192  1  0  0  0  0
119193  1  0  0  0  0
120194  1  0  0  0  0
121195  1  0  0  0  0
122196  1  0  0  0  0
123197  1  0  0  0  0
124198  1  0  0  0  0
124199  1  0  0  0  0
125200  1  0  0  0  0
M  END
