262

C          2.56150      -14.40650        1.02650
C          1.95190      -14.97790        2.08850
C          2.60210      -16.08350        2.84540
O          3.76330      -16.41880        2.78170
C          1.52120      -16.70290        3.63610
C          1.60440      -17.84930        4.42560
C          0.42360      -18.19770        5.03540
C         -0.76380      -17.47240        4.86160
C         -0.86290      -16.34090        4.08910
C          0.33360      -15.95730        3.47530
C          0.62350      -14.79090        2.64780
C         -0.10750      -13.63440        2.62160
C         -1.35850      -13.47720        3.25260
N         -2.38650      -13.30280        3.73310
C          0.34950      -12.42160        2.06210
N          0.69170      -11.38340        1.71170
C         -1.55100      -18.38980        5.76300
C         -1.85030      -17.86320        7.18260
C         -2.18540      -19.11060        7.96770
C         -1.06090      -19.79430        8.13770
C          0.05320      -19.02020        7.47050
C         -0.43830      -17.58770        7.71550
C         -0.22690      -19.19480        5.96240
C          1.94350      -13.57220        0.02340
C          2.63930      -12.46900       -0.46890
C          1.98310      -11.61690       -1.33840
N          2.39120      -10.41620       -1.85850
C          3.66250       -9.78670       -1.62060
C          4.70410      -10.21670       -2.65250
C          1.38370       -9.91720       -2.64590
C          0.29620      -10.82730       -2.65240
C          0.67360      -11.91110       -1.80410
C          0.02360      -13.06130       -1.36910
C          0.64830      -13.86410       -0.44460
C         -0.85030      -10.52350       -3.38100
C         -0.92230       -9.32170       -4.04310
C          0.13500       -8.39070       -3.99840
C          1.30910       -8.71130       -3.31830
C         -0.01950       -7.07620       -4.57460
C         -1.14760       -6.50370       -5.10940
C         -0.96800       -5.14850       -5.40590
S         -2.04080       -3.88700       -5.93780
C         -0.77110       -2.72530       -5.71070
C         -0.67240       -1.29880       -5.71420
C          0.63240       -0.97520       -5.32870
C          1.46660       -2.22260       -5.09910
C          2.05160       -2.16620       -3.70220
C          1.35830       -2.66460       -2.60910
C          1.88910       -2.56450       -1.33570
C          3.11660       -1.95460       -1.11930
C          3.68040       -1.80710        0.26510
C          3.36930       -0.42110        0.83370
C          3.79960       -1.44300       -2.21590
C          3.27720       -1.54630       -3.49030
C          2.54420       -2.44390       -6.14460
C          2.63520       -1.66550       -7.28860
C          3.61390       -1.92400       -8.23190
C          4.51680       -2.96370       -8.06040
C          5.54870       -3.26610       -9.10890
C          4.98220       -4.22970      -10.15350
C          4.41210       -3.74760       -6.91800
C          3.44000       -3.49250       -5.97120
C          0.42250       -3.28800       -5.29150
C          0.31300       -4.66680       -5.11610
S          1.30990       -5.92450       -4.48590
C          0.99250        0.33290       -5.06830
C          0.03740        1.33370       -5.15800
C          0.26510        2.63020       -4.60730
C         -0.72460        3.58200       -4.50830
C         -1.92280        3.51320       -5.41930
C         -2.26460        2.06390       -5.72000
C         -1.28740        1.04760       -5.60980
C         -1.64800       -0.29340       -5.91270
C         -2.95110       -0.57980       -6.35480
C         -3.87070        0.42540       -6.48200
C         -3.52920        1.74140       -6.15710
C         -3.12670        4.18910       -4.78770
C         -3.86590        5.17950       -5.41780
C         -4.97080        5.73190       -4.79430
C         -5.37600        5.30220       -3.53900
C         -6.54770        5.93450       -2.84550
C         -6.07870        7.09070       -1.96080
C         -4.64570        4.29560       -2.92100
C         -3.53930        3.74600       -3.53660
C         -1.45990        4.22660       -6.69230
C         -1.40100        3.59060       -7.92330
C         -0.95180        4.26700       -9.04430
C         -0.54740        5.59150       -8.96950
C         -0.01880        6.30810      -10.17850
C          1.49450        6.11430      -10.29450
C         -0.59990        6.22390       -7.73360
C         -1.04620        5.55310       -6.61260
C         -0.36200        4.58970       -3.59890
C          0.93250        4.45280       -3.09830
S          1.70680        3.03400       -3.70000
C          1.26740        5.37520       -2.09970
C          0.20280        6.16830       -1.77260
S         -1.20110        5.86670       -2.78890
C          0.07010        6.99740       -0.60500
C         -0.79950        6.73630        0.43870
N         -1.62020        5.62330        0.53230
C         -2.87250        5.76810        1.14050
C         -3.61630        6.92780        0.93320
C         -4.84110        7.08890        1.55080
C         -5.36370        6.10100        2.37500
C         -6.68530        6.28760        3.05590
C         -4.61850        4.94340        2.57020
C         -3.38790        4.77430        1.96950
C         -1.14830        4.36010        0.13800
C         -2.01300        3.44710       -0.45950
C         -1.53820        2.23360       -0.91360
C         -0.19480        1.89480       -0.79850
C          0.30950        0.59340       -1.34210
C          0.65070        2.78910       -0.15540
C          0.18560        4.00250        0.31570
C         -0.65900        7.70360        1.46070
S         -1.43280        7.94200        2.97990
C         -0.35110        9.29030        3.34630
C          0.50620        9.57960        2.27320
N          1.45300       10.56610        2.24430
C          1.22730       11.81840        2.83430
C         -0.01780       12.43400        2.72390
C         -0.23940       13.66080        3.31720
C          0.76760       14.30770        4.02350
C          0.51230       15.61650        4.70250
C          2.01270       13.69430        4.11090
C          2.24690       12.46550        3.52750
C          2.69190       10.30640        1.62500
C          3.29430       11.27420        0.82890
C          4.50960       11.01180        0.22740
C          5.14460        9.78770        0.39840
C          6.44730        9.49360       -0.27960
C          4.53460        8.83110        1.20250
C          3.32450        9.08090        1.81760
C          0.33610        8.63770        1.22850
S          1.11380        8.36970       -0.29630
C         -0.40410        9.89960        4.61270
C         -0.83840        9.33610        5.78090
C         -1.27070       10.19290        6.90800
O         -1.09980       11.38860        7.02330
C         -1.99830        9.29100        7.82700
C         -2.69450        9.63920        8.98150
C         -3.29660        8.57820        9.61560
C         -3.22770        7.26580        9.13120
C         -2.53820        6.90470        7.99790
C         -1.90600        7.96690        7.34950
C         -1.05270        7.96300        6.16350
C         -0.35970        6.87470        5.68970
C         -0.54400        5.55630        6.14440
N         -0.66130        4.45860        6.46250
C          0.69190        6.97950        4.75920
N          1.59550        7.03160        4.05040
C         -4.06450        6.71920       10.26070
C         -3.33240        5.95960       11.39410
C         -1.92390        6.49880       11.42840
C         -1.97750        7.74010       11.89240
C         -3.42310        8.06260       12.17980
C         -3.92750        6.67760       12.61570
C         -4.13180        8.18000       10.80730
H          3.61560      -14.63390        0.90430
H          2.53470      -18.38610        4.52570
H         -1.78240      -15.79570        3.95340
H         -2.40210      -18.89110        5.30600
H         -2.56910      -17.04950        7.22350
H         -3.18150      -19.38560        8.26080
H         -0.93020      -20.75460        8.60110
H          1.06770      -19.26150        7.77640
H          0.10670      -16.82870        7.15740
H         -0.44120      -17.32910        8.77310
H         -0.19470      -20.23430        5.64140
H          3.63410      -12.25960       -0.10630
H          3.52470       -8.70310       -1.65700
H          3.99560      -10.05130       -0.61380
H          5.65460       -9.73020       -2.45070
H          4.37710       -9.94390       -3.65330
H          4.84780      -11.29420       -2.61850
H         -0.96320      -13.30320       -1.73330
H          0.15670      -14.75730       -0.08610
H         -1.67690      -11.21690       -3.41070
H         -1.81380       -9.07850       -4.59820
H          2.12500       -8.00430       -3.29770
H         -2.07920       -7.01880       -5.25070
H          0.39650       -3.13660       -2.74840
H          1.33940       -2.96980       -0.49780
H          4.76360       -1.94620        0.23650
H          3.25620       -2.56920        0.92140
H          2.29470       -0.26940        0.90120
H          3.78570        0.35280        0.19230
H          3.79670       -0.31380        1.82800
H          4.75650       -0.96140       -2.07070
H          3.83130       -1.15250       -4.33030
H          1.94390       -0.85040       -7.44470
H          3.67680       -1.30340       -9.11470
H          6.42840       -3.71590       -8.64400
H          5.85740       -2.34200       -9.60210
H          5.72750       -4.44900      -10.91470
H          4.11020       -3.79370      -10.63590
H          4.68070       -5.16260       -9.68250
H          5.10230       -4.56540       -6.76660
H          3.37610       -4.10640       -5.08420
H          1.98660        0.57380       -4.72180
H         -3.21110       -1.59950       -6.59580
H         -4.87040        0.20950       -6.82820
H         -4.27290        2.51820       -6.25610
H         -3.58830        5.52220       -6.40350
H         -5.53220        6.50530       -5.29960
H         -7.25930        6.30870       -3.58440
H         -7.05590        5.19290       -2.22530
H         -6.92620        7.55900       -1.46520
H         -5.38870        6.72900       -1.20170
H         -5.56730        7.84070       -2.56030
H         -4.95860        3.93510       -1.95090
H         -2.98240        2.95850       -3.05220
H         -1.71110        2.56120       -8.02060
H         -0.91950        3.75230       -9.99430
H         -0.50120        5.92200      -11.07890
H         -0.24000        7.37470      -10.10250
H          1.73340        5.05790      -10.39600
H          1.99270        6.49260       -9.40470
H          1.88150        6.64380      -11.16210
H         -0.28980        7.25580       -7.64770
H         -1.08490        6.07110       -5.66570
H          2.21210        5.40950       -1.58940
H         -3.23240        7.69700        0.27830
H         -5.40390        7.99550        1.38040
H         -7.18570        5.33280        3.20040
H         -7.33190        6.94160        2.47520
H         -6.53830        6.74240        4.03640
H         -5.00340        4.16460        3.21270
H         -2.81440        3.87630        2.14480
H         -3.05260        3.70890       -0.57860
H         -2.21810        1.53390       -1.38010
H          1.37950        0.63340       -1.52920
H         -0.19510        0.34040       -2.27310
H          0.11940       -0.21380       -0.63430
H          1.69300        2.53610       -0.02580
H          0.85730        4.68140        0.82060
H         -0.80780       11.94150        2.17560
H         -1.21180       14.12300        3.23030
H          0.25090       15.44050        5.74650
H          1.39850       16.24680        4.67950
H         -0.31310       16.14560        4.23250
H          2.80790       14.18150        4.65590
H          3.21360       11.99240        3.61420
H          2.80600       12.22680        0.68440
H          4.96870       11.76970       -0.39070
H          6.96660       10.41200       -0.54250
H          6.26960        8.92980       -1.19600
H          7.09020        8.89440        0.36160
H          5.01960        7.87860        1.35820
H          2.87160        8.33870        2.45810
H         -0.12840       10.94620        4.68280
H         -2.73230       10.66310        9.31930
H         -2.49330        5.89350        7.62740
H         -4.99870        6.23960        9.97470
H         -3.43110        4.87820       11.35030
H         -1.06800        5.95990       11.06640
H         -1.17440        8.44610       11.99620
H         -3.60410        8.89590       12.85390
H         -5.01310        6.60940       12.67290
H         -3.48810        6.34550       13.55520
H         -5.11010        8.65100       10.88610
