184

C          8.16220        5.01140        8.38120
C          7.63590        3.91590        8.99380
C          6.50590        3.08970        8.49140
O          6.00350        3.07230        7.38650
C          6.03600        2.31160        9.65190
C          4.94180        1.44830        9.67810
C          4.73110        0.85040       10.89610
C          5.54410        1.09710       12.01140
C          6.62090        1.95120       12.00120
C          6.85740        2.56690       10.76700
C          7.88940        3.51840       10.37060
C          8.95940        3.90440       11.13300
C          9.19170        3.47490       12.45620
N          9.43590        3.16750       13.53520
C         10.00060        4.74950       10.69230
N         10.89630        5.40820       10.40470
C          4.75470        0.16050       12.89240
C          5.38300       -1.22220       13.16780
C          4.21490       -2.06450       13.62790
C          3.44470       -2.29730       12.57280
C          4.07920       -1.61600       11.38180
C          5.56100       -1.77240       11.74670
C          3.84880       -0.11340       11.64920
C          7.95830        5.40450        7.01450
C          7.84360        4.45410        5.99860
C          7.51540        4.88810        4.73040
N          7.27260        4.14570        3.60180
C          7.25440        2.70740        3.54550
C          5.92770        2.14240        4.04950
C          6.82780        4.99240        2.62100
C          6.87800        6.33230        3.08650
C          7.31710        6.26550        4.44430
C          7.52390        7.21130        5.44730
C          7.85220        6.77890        6.70960
C          6.45560        7.36330        2.24980
C          5.95050        7.05870        1.00700
C          5.86170        5.72600        0.56180
C          6.32840        4.69090        1.36800
C          5.16500        5.38110       -0.66090
C          4.93980        6.08530       -1.82400
C          5.59000        7.34130       -2.20130
C          6.94960        7.53810       -1.96780
C          7.55360        8.71290       -2.37010
C          6.81730        9.69540       -3.01100
C          5.46230        9.51490       -3.25430
C          4.66130       10.54590       -3.99570
C          4.54480       10.16380       -5.47260
C          4.86050        8.33380       -2.84590
C          4.03680        5.40090       -2.67570
S          3.34820        5.76320       -4.24520
C          2.46040        4.27400       -4.18790
C          1.48180        3.57040       -4.91680
C          0.74350        3.90940       -6.07190
C         -0.34580        3.06320       -6.47930
N         -0.99140        3.54330       -7.53060
S         -0.28880        4.93270       -7.97550
N          0.86570        4.97980       -6.84120
C         -0.56860        1.85070       -5.79100
C         -1.46960        0.79270       -6.01090
S         -2.80370        0.38730       -7.04000
C         -2.91740       -1.16770       -6.24810
C         -3.81830       -2.24840       -6.36980
C         -4.99380       -2.26020       -7.24160
C         -4.91080       -1.81040       -8.55590
C         -6.03100       -1.84660       -9.36460
C         -7.23420       -2.32640       -8.87560
C         -7.34070       -2.75700       -7.55900
C         -8.63060       -3.29670       -7.01040
C         -8.54460       -4.80770       -6.78560
C         -6.21580       -2.71010       -6.75090
C         -3.51170       -3.25550       -5.47750
S         -2.13810       -2.87330       -4.46500
C         -1.95550       -1.34770       -5.25340
C         -1.13890       -0.21880       -5.10750
N         -0.08900        0.17690       -4.32140
C          0.25890        1.45990       -4.70290
C          1.19880        2.38550       -4.18410
N          1.96310        2.38410       -3.02640
C          2.70620        3.53530       -3.03190
C          3.59880        4.18110       -2.16880
S          4.29330        3.85420       -0.62700
C          1.67380        1.76610       -1.75060
C          0.36750        2.30120       -1.16780
C          0.68440       -0.80730       -3.59880
C          0.02130       -1.22960       -2.28780
C         -4.14020       -4.55140       -5.32980
C         -4.30070       -5.10760       -4.05050
O         -3.87480       -4.39690       -2.94330
C         -4.74860       -3.34030       -2.55790
C         -6.02700       -3.83950       -1.90030
C         -4.89760       -6.35820       -3.88740
O         -5.03230       -6.94710       -2.66120
C         -3.84130       -7.12400       -1.89910
C         -2.87320       -8.08430       -2.57920
C         -5.38450       -7.04250       -5.02140
C         -5.17740       -6.49500       -6.28940
C         -4.56810       -5.27440       -6.44580
C         -6.04180       -8.31620       -4.88160
C         -6.91870       -8.64360       -3.90170
C         -7.54060       -7.64090       -3.03210
O         -7.65830       -6.46900       -3.32030
N         -8.06730       -8.14110       -1.84760
C         -8.51460       -7.15990       -0.86620
C         -7.41660       -6.86250        0.14610
C         -8.17940       -9.47160       -1.56230
S         -8.72440       -9.97130       -0.08620
N         -7.87400      -10.38330       -2.53680
C         -8.15990      -11.79530       -2.30590
C         -9.61900      -12.11870       -2.59700
C         -7.29040      -10.05500       -3.75120
O         -7.05620      -10.90450       -4.58500
H          8.73280        5.70640        8.98660
H          4.33890        1.29270        8.79700
H          7.22770        2.14200       12.87050
H          4.30500        0.60710       13.77710
H          6.25780       -1.20440       13.81190
H          4.04540       -2.34810       14.64990
H          2.50340       -2.81370       12.53730
H          3.76580       -1.95710       10.39860
H          6.23560       -1.18650       11.12520
H          5.87720       -2.81420       11.74570
H          2.79460        0.15240       11.70410
H          8.01660        3.41260        6.20910
H          7.43080        2.40330        2.51040
H          8.07940        2.32860        4.15500
H          5.93970        1.05700        3.99410
H          5.10630        2.51570        3.44190
H          5.76210        2.44170        5.08150
H          7.41050        8.26390        5.23640
H          7.98500        7.49510        7.50700
H          6.49210        8.38800        2.58690
H          5.57600        7.84580        0.37180
H          6.26390        3.66970        1.02240
H          7.52570        6.76620       -1.47930
H          8.60790        8.86230       -2.18850
H          7.29970       10.60960       -3.32610
H          3.66050       10.61670       -3.56430
H          5.14110       11.52290       -3.90990
H          4.06010        9.19560       -5.57600
H          3.96070       10.90540       -6.01250
H          5.53200       10.10180       -5.92540
H          3.80410        8.18970       -3.02050
H         -3.96940       -1.44920       -8.94170
H         -5.96450       -1.50210      -10.38610
H         -8.10110       -2.35840       -9.51980
H         -8.85550       -2.80910       -6.05880
H         -9.44480       -3.07870       -7.70430
H         -9.50160       -5.19190       -6.44080
H         -8.28150       -5.31300       -7.71250
H         -7.79270       -5.04780       -6.03750
H         -6.29440       -3.02450       -5.72020
H          1.63970        0.68400       -1.83420
H          2.50270        2.01990       -1.08540
H          0.17540        1.84420       -0.20070
H          0.43080        3.37890       -1.03510
H         -0.46540        2.08750       -1.83470
H          0.77690       -1.69220       -4.23940
H          1.68950       -0.41250       -3.44330
H         -0.88410       -1.79350       -2.49330
H          0.69750       -1.86630       -1.72330
H         -0.24790       -0.37050       -1.68060
H         -4.15920       -2.74240       -1.85730
H         -4.99110       -2.71920       -3.43070
H         -6.55750       -4.52610       -2.55800
H         -6.67360       -2.99460       -1.67850
H         -5.79370       -4.35700       -0.97310
H         -3.35420       -6.16210       -1.71430
H         -4.19080       -7.54130       -0.95100
H         -2.51330       -7.65870       -3.51410
H         -2.02360       -8.26850       -1.92770
H         -3.36640       -9.03010       -2.79430
H         -5.53120       -7.03780       -7.15250
H         -4.41480       -4.86200       -7.43040
H         -5.77760       -9.09550       -5.58780
H         -8.76650       -6.25730       -1.42570
H         -9.40470       -7.54650       -0.36700
H         -7.20310       -7.74330        0.74670
H         -6.51250       -6.55850       -0.37480
H         -7.73560       -6.06000        0.80490
H         -7.50910      -12.35760       -2.97760
H         -7.91480      -12.03130       -1.26880
H         -9.86310      -11.86240       -3.62520
H        -10.27350      -11.56640       -1.92670
H         -9.78970      -13.18110       -2.45100
