
  xtb     02112222443D
 energy: -333.556832972093 gnorm: 0.000454641518 xtb: 6.4.1 (unknown)
204229  0     0  0            999 V2000
    0.2780   -1.0104   12.7349 C   0  0  0  0  0  0  0  0  0  0  0  0
    0.8650   -2.1229   12.2152 C   0  0  0  0  0  0  0  0  0  0  0  0
    0.9391   -3.3746   13.0139 C   0  0  0  0  0  0  0  0  0  0  0  0
    0.7709   -3.4851   14.2077 O   0  0  0  0  0  0  0  0  0  0  0  0
    1.1944   -4.4472   12.0305 C   0  0  0  0  0  0  0  0  0  0  0  0
    1.2135   -5.8211   12.2635 C   0  0  0  0  0  0  0  0  0  0  0  0
    1.4485   -6.5773   11.1400 C   0  0  0  0  0  0  0  0  0  0  0  0
    1.6391   -6.0142    9.8706 C   0  0  0  0  0  0  0  0  0  0  0  0
    1.6286   -4.6621    9.6247 C   0  0  0  0  0  0  0  0  0  0  0  0
    1.4034   -3.8757   10.7575 C   0  0  0  0  0  0  0  0  0  0  0  0
    1.3685   -2.4224   10.8921 C   0  0  0  0  0  0  0  0  0  0  0  0
    1.9785   -1.5330   10.0427 C   0  0  0  0  0  0  0  0  0  0  0  0
    2.5465   -1.8824    8.8024 C   0  0  0  0  0  0  0  0  0  0  0  0
    3.0071   -2.1057    7.7744 N   0  0  0  0  0  0  0  0  0  0  0  0
    2.1938   -0.1789   10.3754 C   0  0  0  0  0  0  0  0  0  0  0  0
    2.4297    0.9154   10.6332 N   0  0  0  0  0  0  0  0  0  0  0  0
    1.8129   -7.3595    9.2112 C   0  0  0  0  0  0  0  0  0  0  0  0
    3.2583   -7.7709    8.8600 C   0  0  0  0  0  0  0  0  0  0  0  0
    3.1760   -9.2707    8.6898 C   0  0  0  0  0  0  0  0  0  0  0  0
    3.0017   -9.8040    9.8922 C   0  0  0  0  0  0  0  0  0  0  0  0
    2.9634   -8.6736   10.8954 C   0  0  0  0  0  0  0  0  0  0  0  0
    3.9432   -7.6981   10.2308 C   0  0  0  0  0  0  0  0  0  0  0  0
    1.6069   -7.9874   10.6271 C   0  0  0  0  0  0  0  0  0  0  0  0
   -0.2686    0.1058   12.0558 C   0  0  0  0  0  0  0  0  0  0  0  0
   -0.5543    1.3292   12.6288 C   0  0  0  0  0  0  0  0  0  0  0  0
   -1.1302    2.3056   11.7999 C   0  0  0  0  0  0  0  0  0  0  0  0
   -1.3382    3.7148   12.2671 C   0  0  0  0  0  0  0  0  0  0  0  0
   -2.2259    3.7972   13.5076 C   0  0  0  0  0  0  0  0  0  0  0  0
   -1.3867    1.8654   10.5155 C   0  0  0  0  0  0  0  0  0  0  0  0
   -0.8402    0.0833   10.2619 Se  0  0  0  0  0  2  0  0  0  0  0  0
   -1.9053    2.5696    9.3803 C   0  0  0  0  0  0  0  0  0  0  0  0
   -2.9988    3.4003    9.2423 C   0  0  0  0  0  0  0  0  0  0  0  0
   -4.0080    3.6368   10.2745 C   0  0  0  0  0  0  0  0  0  0  0  0
   -4.5795    4.8969   10.4287 C   0  0  0  0  0  0  0  0  0  0  0  0
   -5.5587    5.0966   11.3830 C   0  0  0  0  0  0  0  0  0  0  0  0
   -5.9818    4.0486   12.1812 C   0  0  0  0  0  0  0  0  0  0  0  0
   -5.4281    2.7818   12.0357 C   0  0  0  0  0  0  0  0  0  0  0  0
   -5.9156    1.6309   12.8688 C   0  0  0  0  0  0  0  0  0  0  0  0
   -7.1018    0.9446   12.1890 C   0  0  0  0  0  0  0  0  0  0  0  0
   -4.4447    2.5877   11.0782 C   0  0  0  0  0  0  0  0  0  0  0  0
   -3.0990    3.8956    7.9222 C   0  0  0  0  0  0  0  0  0  0  0  0
   -4.2660    4.9261    7.1255 S   0  0  0  0  0  0  0  0  0  0  0  0
   -3.4175    4.7000    5.6325 C   0  0  0  0  0  0  0  0  0  0  0  0
   -3.5335    5.0396    4.2746 C   0  0  0  0  0  0  0  0  0  0  0  0
   -4.5537    5.7175    3.5726 C   0  0  0  0  0  0  0  0  0  0  0  0
   -4.5052    5.7498    2.1387 C   0  0  0  0  0  0  0  0  0  0  0  0
   -5.5569    6.3560    1.6107 N   0  0  0  0  0  0  0  0  0  0  0  0
   -6.5212    6.8510    2.8135 S   0  0  0  0  0  0  0  0  0  0  0  0
   -5.6365    6.3062    4.0558 N   0  0  0  0  0  0  0  0  0  0  0  0
   -3.3836    5.2009    1.4800 C   0  0  0  0  0  0  0  0  0  0  0  0
   -3.0460    5.1428    0.1176 C   0  0  0  0  0  0  0  0  0  0  0  0
   -3.7362    5.5058   -1.4294 S   0  0  0  0  0  0  0  0  0  0  0  0
   -2.2931    4.8827   -2.1946 C   0  0  0  0  0  0  0  0  0  0  0  0
   -1.9216    4.7164   -3.5442 C   0  0  0  0  0  0  0  0  0  0  0  0
   -2.7529    5.1271   -4.6769 C   0  0  0  0  0  0  0  0  0  0  0  0
   -4.1015    4.7883   -4.7152 C   0  0  0  0  0  0  0  0  0  0  0  0
   -4.8786    5.1845   -5.7873 C   0  0  0  0  0  0  0  0  0  0  0  0
   -4.3235    5.9212   -6.8181 C   0  0  0  0  0  0  0  0  0  0  0  0
   -2.9812    6.2807   -6.7887 C   0  0  0  0  0  0  0  0  0  0  0  0
   -2.3904    7.1270   -7.8792 C   0  0  0  0  0  0  0  0  0  0  0  0
   -2.5885    8.6120   -7.5693 C   0  0  0  0  0  0  0  0  0  0  0  0
   -2.2074    5.8833   -5.7103 C   0  0  0  0  0  0  0  0  0  0  0  0
   -0.6677    4.1435   -3.6533 C   0  0  0  0  0  0  0  0  0  0  0  0
    0.0759    3.8486   -2.0834 S   0  0  0  0  0  0  0  0  0  0  0  0
   -1.3296    4.4525   -1.2809 C   0  0  0  0  0  0  0  0  0  0  0  0
   -1.7662    4.5904    0.0417 C   0  0  0  0  0  0  0  0  0  0  0  0
   -1.3076    4.2816    1.2938 N   0  0  0  0  0  0  0  0  0  0  0  0
   -2.2991    4.6252    2.2002 C   0  0  0  0  0  0  0  0  0  0  0  0
   -2.4300    4.4417    3.6023 C   0  0  0  0  0  0  0  0  0  0  0  0
   -1.6820    3.7409    4.5343 N   0  0  0  0  0  0  0  0  0  0  0  0
   -2.2898    3.8865    5.7508 C   0  0  0  0  0  0  0  0  0  0  0  0
   -2.1124    3.4183    7.0591 C   0  0  0  0  0  0  0  0  0  0  0  0
   -1.0190    2.3602    7.8763 S   0  0  0  0  0  0  0  0  0  0  0  0
   -0.6976    2.6985    4.3514 C   0  0  0  0  0  0  0  0  0  0  0  0
   -1.2609    1.5272    3.5510 C   0  0  0  0  0  0  0  0  0  0  0  0
    0.1085    4.0707    1.4996 C   0  0  0  0  0  0  0  0  0  0  0  0
    0.7375    5.2154    2.2896 C   0  0  0  0  0  0  0  0  0  0  0  0
    0.0148    3.6356   -4.7930 C   0  0  0  0  0  0  0  0  0  0  0  0
   -0.8221    3.1950   -6.2606 S   0  0  0  0  0  0  0  0  0  0  0  0
    0.6339    2.5137   -6.9058 C   0  0  0  0  0  0  0  0  0  0  0  0
    0.8337    1.8105   -8.1133 C   0  0  0  0  0  0  0  0  0  0  0  0
    2.1496    1.5362   -8.5041 C   0  0  0  0  0  0  0  0  0  0  0  0
    3.1991    2.0808   -7.8450 O   0  0  0  0  0  0  0  0  0  0  0  0
    3.0363    2.0448   -6.4083 C   0  0  0  0  0  0  0  0  0  0  0  0
    4.1646    2.8400   -5.7910 C   0  0  0  0  0  0  0  0  0  0  0  0
    4.7525    3.8886   -6.4818 C   0  0  0  0  0  0  0  0  0  0  0  0
    5.7596    4.6310   -5.8932 C   0  0  0  0  0  0  0  0  0  0  0  0
    6.1892    4.3536   -4.6024 C   0  0  0  0  0  0  0  0  0  0  0  0
    7.3122    5.1334   -3.9812 C   0  0  0  0  0  0  0  0  0  0  0  0
    8.6543    4.4595   -4.2740 C   0  0  0  0  0  0  0  0  0  0  0  0
    5.5904    3.3047   -3.9156 C   0  0  0  0  0  0  0  0  0  0  0  0
    4.5897    2.5524   -4.5006 C   0  0  0  0  0  0  0  0  0  0  0  0
    3.1037    0.5684   -6.0269 C   0  0  0  0  0  0  0  0  0  0  0  0
    4.2016   -0.1479   -6.4903 C   0  0  0  0  0  0  0  0  0  0  0  0
    4.2544   -1.5177   -6.3447 C   0  0  0  0  0  0  0  0  0  0  0  0
    3.2151   -2.2066   -5.7306 C   0  0  0  0  0  0  0  0  0  0  0  0
    3.2225   -3.7071   -5.6971 C   0  0  0  0  0  0  0  0  0  0  0  0
    2.6339   -4.2467   -7.0033 C   0  0  0  0  0  0  0  0  0  0  0  0
    2.1436   -1.4815   -5.2304 C   0  0  0  0  0  0  0  0  0  0  0  0
    2.0823   -0.1061   -5.3779 C   0  0  0  0  0  0  0  0  0  0  0  0
    1.7059    2.6539   -6.0360 C   0  0  0  0  0  0  0  0  0  0  0  0
    1.3492    3.2803   -4.8441 C   0  0  0  0  0  0  0  0  0  0  0  0
    2.2329    0.6754   -9.5925 C   0  0  0  0  0  0  0  0  0  0  0  0
    0.9897    0.2708  -10.0512 C   0  0  0  0  0  0  0  0  0  0  0  0
   -0.3031    1.0497   -9.1493 S   0  0  0  0  0  0  0  0  0  0  0  0
    0.6115   -0.6699  -11.0280 C   0  0  0  0  0  0  0  0  0  0  0  0
    1.3079   -1.7692  -11.4533 C   0  0  0  0  0  0  0  0  0  0  0  0
    2.4837   -2.3783  -10.7891 C   0  0  0  0  0  0  0  0  0  0  0  0
    3.2126   -1.9026   -9.9429 O   0  0  0  0  0  0  0  0  0  0  0  0
    2.5649   -3.7554  -11.3173 C   0  0  0  0  0  0  0  0  0  0  0  0
    3.4579   -4.7475  -10.9175 C   0  0  0  0  0  0  0  0  0  0  0  0
    3.2820   -5.9501  -11.5579 C   0  0  0  0  0  0  0  0  0  0  0  0
    2.2913   -6.1538  -12.5277 C   0  0  0  0  0  0  0  0  0  0  0  0
    1.4125   -5.1809  -12.9412 C   0  0  0  0  0  0  0  0  0  0  0  0
    1.5739   -3.9494  -12.2989 C   0  0  0  0  0  0  0  0  0  0  0  0
    0.8312   -2.7025  -12.4544 C   0  0  0  0  0  0  0  0  0  0  0  0
   -0.0986   -2.4355  -13.4261 C   0  0  0  0  0  0  0  0  0  0  0  0
   -0.5267   -3.3650  -14.3952 C   0  0  0  0  0  0  0  0  0  0  0  0
   -0.9206   -4.0766  -15.2060 N   0  0  0  0  0  0  0  0  0  0  0  0
   -0.7164   -1.1820  -13.6202 C   0  0  0  0  0  0  0  0  0  0  0  0
   -1.2407   -0.1885  -13.8592 N   0  0  0  0  0  0  0  0  0  0  0  0
    2.6730   -7.5994  -12.7291 C   0  0  0  0  0  0  0  0  0  0  0  0
    1.7616   -8.6519  -12.0626 C   0  0  0  0  0  0  0  0  0  0  0  0
    2.6194   -9.8958  -12.0174 C   0  0  0  0  0  0  0  0  0  0  0  0
    3.5619   -9.7029  -11.1036 C   0  0  0  0  0  0  0  0  0  0  0  0
    3.3566   -8.3255  -10.5157 C   0  0  0  0  0  0  0  0  0  0  0  0
    1.8271   -8.2329  -10.5881 C   0  0  0  0  0  0  0  0  0  0  0  0
    3.7812   -7.3708  -11.6517 C   0  0  0  0  0  0  0  0  0  0  0  0
    0.1392   -1.0215   13.8126 H   0  0  0  0  0  0  0  0  0  0  0  0
    1.0536   -6.2179   13.2538 H   0  0  0  0  0  0  0  0  0  0  0  0
    1.7646   -4.2356    8.6442 H   0  0  0  0  0  0  0  0  0  0  0  0
    1.0984   -7.5997    8.4261 H   0  0  0  0  0  0  0  0  0  0  0  0
    3.7060   -7.2084    8.0453 H   0  0  0  0  0  0  0  0  0  0  0  0
    3.1967   -9.7687    7.7382 H   0  0  0  0  0  0  0  0  0  0  0  0
    2.8475  -10.8365   10.1456 H   0  0  0  0  0  0  0  0  0  0  0  0
    3.1437   -8.9356   11.9345 H   0  0  0  0  0  0  0  0  0  0  0  0
    3.9481   -6.7032   10.6721 H   0  0  0  0  0  0  0  0  0  0  0  0
    4.9588   -8.0894   10.2044 H   0  0  0  0  0  0  0  0  0  0  0  0
    0.7571   -8.6489   10.7856 H   0  0  0  0  0  0  0  0  0  0  0  0
   -0.2777    1.5390   13.6486 H   0  0  0  0  0  0  0  0  0  0  0  0
   -0.3574    4.1390   12.5022 H   0  0  0  0  0  0  0  0  0  0  0  0
   -1.7767    4.3084   11.4652 H   0  0  0  0  0  0  0  0  0  0  0  0
   -2.3714    4.8372   13.7886 H   0  0  0  0  0  0  0  0  0  0  0  0
   -3.1992    3.3567   13.3091 H   0  0  0  0  0  0  0  0  0  0  0  0
   -1.7729    3.2752   14.3463 H   0  0  0  0  0  0  0  0  0  0  0  0
   -4.2453    5.7172    9.8120 H   0  0  0  0  0  0  0  0  0  0  0  0
   -5.9956    6.0766   11.5042 H   0  0  0  0  0  0  0  0  0  0  0  0
   -6.7481    4.2122   12.9250 H   0  0  0  0  0  0  0  0  0  0  0  0
   -6.2237    1.9913   13.8525 H   0  0  0  0  0  0  0  0  0  0  0  0
   -5.1103    0.9060   13.0067 H   0  0  0  0  0  0  0  0  0  0  0  0
   -7.4560    0.1120   12.7922 H   0  0  0  0  0  0  0  0  0  0  0  0
   -7.9195    1.6489   12.0533 H   0  0  0  0  0  0  0  0  0  0  0  0
   -6.8104    0.5670   11.2114 H   0  0  0  0  0  0  0  0  0  0  0  0
   -4.0170    1.6034   10.9454 H   0  0  0  0  0  0  0  0  0  0  0  0
   -4.5308    4.2038   -3.9157 H   0  0  0  0  0  0  0  0  0  0  0  0
   -5.9237    4.9144   -5.8194 H   0  0  0  0  0  0  0  0  0  0  0  0
   -4.9363    6.2225   -7.6554 H   0  0  0  0  0  0  0  0  0  0  0  0
   -2.8706    6.8903   -8.8306 H   0  0  0  0  0  0  0  0  0  0  0  0
   -1.3232    6.9168   -7.9735 H   0  0  0  0  0  0  0  0  0  0  0  0
   -2.1109    8.8686   -6.6262 H   0  0  0  0  0  0  0  0  0  0  0  0
   -2.1568    9.2261   -8.3562 H   0  0  0  0  0  0  0  0  0  0  0  0
   -3.6481    8.8439   -7.4890 H   0  0  0  0  0  0  0  0  0  0  0  0
   -1.1657    6.1703   -5.6640 H   0  0  0  0  0  0  0  0  0  0  0  0
   -0.4237    2.3510    5.3506 H   0  0  0  0  0  0  0  0  0  0  0  0
    0.2073    3.1002    3.8956 H   0  0  0  0  0  0  0  0  0  0  0  0
   -0.4986    0.7624    3.4286 H   0  0  0  0  0  0  0  0  0  0  0  0
   -2.1064    1.0916    4.0785 H   0  0  0  0  0  0  0  0  0  0  0  0
   -1.6020    1.8474    2.5694 H   0  0  0  0  0  0  0  0  0  0  0  0
    0.2926    3.1060    1.9741 H   0  0  0  0  0  0  0  0  0  0  0  0
    0.5615    4.0278    0.5059 H   0  0  0  0  0  0  0  0  0  0  0  0
    0.2574    5.3374    3.2575 H   0  0  0  0  0  0  0  0  0  0  0  0
    0.6318    6.1479    1.7399 H   0  0  0  0  0  0  0  0  0  0  0  0
    1.7957    5.0217    2.4435 H   0  0  0  0  0  0  0  0  0  0  0  0
    4.4241    4.1111   -7.4851 H   0  0  0  0  0  0  0  0  0  0  0  0
    6.2149    5.4420   -6.4435 H   0  0  0  0  0  0  0  0  0  0  0  0
    7.3247    6.1490   -4.3819 H   0  0  0  0  0  0  0  0  0  0  0  0
    7.1684    5.1936   -2.9004 H   0  0  0  0  0  0  0  0  0  0  0  0
    8.6646    3.4481   -3.8739 H   0  0  0  0  0  0  0  0  0  0  0  0
    8.8228    4.4039   -5.3470 H   0  0  0  0  0  0  0  0  0  0  0  0
    9.4690    5.0208   -3.8224 H   0  0  0  0  0  0  0  0  0  0  0  0
    5.9124    3.0733   -2.9101 H   0  0  0  0  0  0  0  0  0  0  0  0
    4.1379    1.7346   -3.9573 H   0  0  0  0  0  0  0  0  0  0  0  0
    4.9974    0.3806   -6.9937 H   0  0  0  0  0  0  0  0  0  0  0  0
    5.1024   -2.0634   -6.7310 H   0  0  0  0  0  0  0  0  0  0  0  0
    4.2463   -4.0702   -5.5860 H   0  0  0  0  0  0  0  0  0  0  0  0
    2.6346   -4.0722   -4.8526 H   0  0  0  0  0  0  0  0  0  0  0  0
    2.7057   -5.3317   -7.0402 H   0  0  0  0  0  0  0  0  0  0  0  0
    1.5869   -3.9641   -7.0908 H   0  0  0  0  0  0  0  0  0  0  0  0
    3.1656   -3.8267   -7.8538 H   0  0  0  0  0  0  0  0  0  0  0  0
    1.3320   -1.9978   -4.7372 H   0  0  0  0  0  0  0  0  0  0  0  0
    1.2269    0.4321   -4.9953 H   0  0  0  0  0  0  0  0  0  0  0  0
    2.0322    3.4666   -4.0342 H   0  0  0  0  0  0  0  0  0  0  0  0
    3.1606    0.3526  -10.0224 H   0  0  0  0  0  0  0  0  0  0  0  0
   -0.3992   -0.5481  -11.4017 H   0  0  0  0  0  0  0  0  0  0  0  0
    4.2095   -4.5495  -10.1694 H   0  0  0  0  0  0  0  0  0  0  0  0
    0.6557   -5.3503  -13.6889 H   0  0  0  0  0  0  0  0  0  0  0  0
    2.9746   -7.8756  -13.7375 H   0  0  0  0  0  0  0  0  0  0  0  0
    0.7775   -8.7519  -12.5122 H   0  0  0  0  0  0  0  0  0  0  0  0
    2.4909  -10.7373  -12.6725 H   0  0  0  0  0  0  0  0  0  0  0  0
    4.3781  -10.3512  -10.8431 H   0  0  0  0  0  0  0  0  0  0  0  0
    3.8259   -8.1284   -9.5554 H   0  0  0  0  0  0  0  0  0  0  0  0
    1.4331   -7.2376  -10.3908 H   0  0  0  0  0  0  0  0  0  0  0  0
    1.3395   -8.9539   -9.9338 H   0  0  0  0  0  0  0  0  0  0  0  0
    4.8229   -7.4917  -11.9432 H   0  0  0  0  0  0  0  0  0  0  0  0
  1  2  2  0  0  0  0
  2  3  1  0  0  0  0
  3  4  2  0  0  0  0
  3  5  1  0  0  0  0
  5  6  2  0  0  0  0
  6  7  1  0  0  0  0
  7  8  2  0  0  0  0
  8  9  1  0  0  0  0
  9 10  2  0  0  0  0
 10 11  1  0  0  0  0
 11 12  2  0  0  0  0
 12 13  1  0  0  0  0
 13 14  3  0  0  0  0
 12 15  1  0  0  0  0
 15 16  3  0  0  0  0
  8 17  1  0  0  0  0
 17 18  1  0  0  0  0
 18 19  1  0  0  0  0
 19 20  2  0  0  0  0
 20 21  1  0  0  0  0
 21 22  1  0  0  0  0
 21 23  1  0  0  0  0
  1 24  1  0  0  0  0
 24 25  2  0  0  0  0
 25 26  1  0  0  0  0
 26 27  1  0  0  0  0
 27 28  1  0  0  0  0
 26 29  2  0  0  0  0
 29 30  1  0  0  0  0
 29 31  1  0  0  0  0
 31 32  2  0  0  0  0
 32 33  1  0  0  0  0
 33 34  2  0  0  0  0
 34 35  1  0  0  0  0
 35 36  2  0  0  0  0
 36 37  1  0  0  0  0
 37 38  1  0  0  0  0
 38 39  1  0  0  0  0
 37 40  2  0  0  0  0
 32 41  1  0  0  0  0
 41 42  1  0  0  0  0
 42 43  1  0  0  0  0
 43 44  1  0  0  0  0
 44 45  1  0  0  0  0
 45 46  1  0  0  0  0
 46 47  2  0  0  0  0
 47 48  1  0  0  0  0
 48 49  1  0  0  0  0
 46 50  1  0  0  0  0
 50 51  1  0  0  0  0
 51 52  1  0  0  0  0
 52 53  1  0  0  0  0
 53 54  1  0  0  0  0
 54 55  1  0  0  0  0
 55 56  2  0  0  0  0
 56 57  1  0  0  0  0
 57 58  2  0  0  0  0
 58 59  1  0  0  0  0
 59 60  1  0  0  0  0
 60 61  1  0  0  0  0
 59 62  2  0  0  0  0
 54 63  2  0  0  0  0
 63 64  1  0  0  0  0
 64 65  1  0  0  0  0
 65 66  1  0  0  0  0
 66 67  1  0  0  0  0
 67 68  1  0  0  0  0
 68 69  1  0  0  0  0
 69 70  1  0  0  0  0
 70 71  1  0  0  0  0
 71 72  1  0  0  0  0
 72 73  1  0  0  0  0
 70 74  1  0  0  0  0
 74 75  1  0  0  0  0
 67 76  1  0  0  0  0
 76 77  1  0  0  0  0
 63 78  1  0  0  0  0
 78 79  1  0  0  0  0
 79 80  1  0  0  0  0
 80 81  1  0  0  0  0
 81 82  2  0  0  0  0
 82 83  1  0  0  0  0
 83 84  1  0  0  0  0
 84 85  1  0  0  0  0
 85 86  2  0  0  0  0
 86 87  1  0  0  0  0
 87 88  2  0  0  0  0
 88 89  1  0  0  0  0
 89 90  1  0  0  0  0
 88 91  1  0  0  0  0
 91 92  2  0  0  0  0
 84 93  1  0  0  0  0
 93 94  2  0  0  0  0
 94 95  1  0  0  0  0
 95 96  2  0  0  0  0
 96 97  1  0  0  0  0
 97 98  1  0  0  0  0
 96 99  1  0  0  0  0
 99100  2  0  0  0  0
 84101  1  0  0  0  0
101102  1  0  0  0  0
 82103  1  0  0  0  0
103104  2  0  0  0  0
104105  1  0  0  0  0
104106  1  0  0  0  0
106107  2  0  0  0  0
107108  1  0  0  0  0
108109  2  0  0  0  0
108110  1  0  0  0  0
110111  2  0  0  0  0
111112  1  0  0  0  0
112113  2  0  0  0  0
113114  1  0  0  0  0
114115  2  0  0  0  0
115116  1  0  0  0  0
116117  2  0  0  0  0
117118  1  0  0  0  0
118119  3  0  0  0  0
117120  1  0  0  0  0
120121  3  0  0  0  0
113122  1  0  0  0  0
122123  1  0  0  0  0
123124  1  0  0  0  0
124125  2  0  0  0  0
125126  1  0  0  0  0
126127  1  0  0  0  0
126128  1  0  0  0  0
 11  2  1  0  0  0  0
 23 17  1  0  0  0  0
 30 24  1  0  0  0  0
 73 31  1  0  0  0  0
102 78  2  0  0  0  0
116107  1  0  0  0  0
128122  1  0  0  0  0
 10  5  1  0  0  0  0
 22 18  1  0  0  0  0
 40 33  1  0  0  0  0
 72 41  2  0  0  0  0
101 80  2  0  0  0  0
115110  1  0  0  0  0
127123  1  0  0  0  0
 23  7  1  0  0  0  0
 71 43  2  0  0  0  0
105 81  1  0  0  0  0
128112  1  0  0  0  0
 69 44  2  0  0  0  0
 92 85  1  0  0  0  0
100 93  1  0  0  0  0
 49 45  2  0  0  0  0
 68 50  2  0  0  0  0
 66 51  2  0  0  0  0
 65 53  2  0  0  0  0
 62 55  1  0  0  0  0
  1129  1  0  0  0  0
  6130  1  0  0  0  0
  9131  1  0  0  0  0
 17132  1  0  0  0  0
 18133  1  0  0  0  0
 19134  1  0  0  0  0
 20135  1  0  0  0  0
 21136  1  0  0  0  0
 22137  1  0  0  0  0
 22138  1  0  0  0  0
 23139  1  0  0  0  0
 25140  1  0  0  0  0
 27141  1  0  0  0  0
 27142  1  0  0  0  0
 28143  1  0  0  0  0
 28144  1  0  0  0  0
 28145  1  0  0  0  0
 34146  1  0  0  0  0
 35147  1  0  0  0  0
 36148  1  0  0  0  0
 38149  1  0  0  0  0
 38150  1  0  0  0  0
 39151  1  0  0  0  0
 39152  1  0  0  0  0
 39153  1  0  0  0  0
 40154  1  0  0  0  0
 56155  1  0  0  0  0
 57156  1  0  0  0  0
 58157  1  0  0  0  0
 60158  1  0  0  0  0
 60159  1  0  0  0  0
 61160  1  0  0  0  0
 61161  1  0  0  0  0
 61162  1  0  0  0  0
 62163  1  0  0  0  0
 74164  1  0  0  0  0
 74165  1  0  0  0  0
 75166  1  0  0  0  0
 75167  1  0  0  0  0
 75168  1  0  0  0  0
 76169  1  0  0  0  0
 76170  1  0  0  0  0
 77171  1  0  0  0  0
 77172  1  0  0  0  0
 77173  1  0  0  0  0
 86174  1  0  0  0  0
 87175  1  0  0  0  0
 89176  1  0  0  0  0
 89177  1  0  0  0  0
 90178  1  0  0  0  0
 90179  1  0  0  0  0
 90180  1  0  0  0  0
 91181  1  0  0  0  0
 92182  1  0  0  0  0
 94183  1  0  0  0  0
 95184  1  0  0  0  0
 97185  1  0  0  0  0
 97186  1  0  0  0  0
 98187  1  0  0  0  0
 98188  1  0  0  0  0
 98189  1  0  0  0  0
 99190  1  0  0  0  0
100191  1  0  0  0  0
102192  1  0  0  0  0
103193  1  0  0  0  0
106194  1  0  0  0  0
111195  1  0  0  0  0
114196  1  0  0  0  0
122197  1  0  0  0  0
123198  1  0  0  0  0
124199  1  0  0  0  0
125200  1  0  0  0  0
126201  1  0  0  0  0
127202  1  0  0  0  0
127203  1  0  0  0  0
128204  1  0  0  0  0
M  END
