
  xtb     02152201043D
 energy: -246.984765932416 gnorm: 0.000713583090 xtb: 6.4.1 (unknown)
150166  0     0  0            999 V2000
   -4.7706   -8.9463   -0.1382 C   0  0  0  0  0  0  0  0  0  0  0  0
   -3.4596   -9.3289   -0.2575 C   0  0  0  0  0  0  0  0  0  0  0  0
   -2.3449   -8.6565    0.4844 C   0  0  0  0  0  0  0  0  0  0  0  0
   -2.4378   -7.8511    1.3902 O   0  0  0  0  0  0  0  0  0  0  0  0
   -1.1165   -9.3487    0.0541 C   0  0  0  0  0  0  0  0  0  0  0  0
    0.1892   -9.0251    0.4136 C   0  0  0  0  0  0  0  0  0  0  0  0
    1.1431   -9.8341   -0.1544 C   0  0  0  0  0  0  0  0  0  0  0  0
    0.8210  -10.8980   -1.0084 C   0  0  0  0  0  0  0  0  0  0  0  0
   -0.4638  -11.2411   -1.3533 C   0  0  0  0  0  0  0  0  0  0  0  0
   -1.4510  -10.4272   -0.7881 C   0  0  0  0  0  0  0  0  0  0  0  0
   -2.9032  -10.4782   -0.9367 C   0  0  0  0  0  0  0  0  0  0  0  0
   -3.6055  -11.4102   -1.6588 C   0  0  0  0  0  0  0  0  0  0  0  0
   -5.0064  -11.4102   -1.8139 C   0  0  0  0  0  0  0  0  0  0  0  0
   -6.1401  -11.4658   -1.9903 N   0  0  0  0  0  0  0  0  0  0  0  0
   -3.0272  -12.5031   -2.3348 C   0  0  0  0  0  0  0  0  0  0  0  0
   -2.6264  -13.4167   -2.9040 N   0  0  0  0  0  0  0  0  0  0  0  0
    2.2671  -11.2776   -1.2107 C   0  0  0  0  0  0  0  0  0  0  0  0
    2.8048  -12.5091   -0.4414 C   0  0  0  0  0  0  0  0  0  0  0  0
    1.9580  -12.6426    0.8000 C   0  0  0  0  0  0  0  0  0  0  0  0
    2.2623  -11.6357    1.6079 C   0  0  0  0  0  0  0  0  0  0  0  0
    3.3206  -10.8032    0.9274 C   0  0  0  0  0  0  0  0  0  0  0  0
    4.0797  -11.9007    0.1647 C   0  0  0  0  0  0  0  0  0  0  0  0
    2.6259  -10.0920   -0.2600 C   0  0  0  0  0  0  0  0  0  0  0  0
   -5.0865   -7.6038    0.1939 C   0  0  0  0  0  0  0  0  0  0  0  0
   -4.3034   -6.6010   -0.2634 C   0  0  0  0  0  0  0  0  0  0  0  0
   -4.1356   -5.2077   -0.0484 C   0  0  0  0  0  0  0  0  0  0  0  0
   -4.9016   -4.3400    0.8868 C   0  0  0  0  0  0  0  0  0  0  0  0
   -4.2653   -4.3720    2.2799 C   0  0  0  0  0  0  0  0  0  0  0  0
   -3.0063   -4.9526   -0.8072 C   0  0  0  0  0  0  0  0  0  0  0  0
   -2.7989   -6.7420   -1.5351 Se  0  0  0  0  0  2  0  0  0  0  0  0
   -2.1660   -3.8474   -0.9920 C   0  0  0  0  0  0  0  0  0  0  0  0
   -1.0327   -3.7765   -1.7941 C   0  0  0  0  0  0  0  0  0  0  0  0
   -0.4766   -4.9155   -2.5374 C   0  0  0  0  0  0  0  0  0  0  0  0
    0.1132   -5.9800   -1.8582 C   0  0  0  0  0  0  0  0  0  0  0  0
    0.6510   -7.0352   -2.5743 C   0  0  0  0  0  0  0  0  0  0  0  0
    0.5911   -7.0408   -3.9557 C   0  0  0  0  0  0  0  0  0  0  0  0
    0.0135   -5.9822   -4.6467 C   0  0  0  0  0  0  0  0  0  0  0  0
   -0.1015   -6.0166   -6.1427 C   0  0  0  0  0  0  0  0  0  0  0  0
   -1.3885   -6.7358   -6.5524 C   0  0  0  0  0  0  0  0  0  0  0  0
   -0.5096   -4.9186   -3.9265 C   0  0  0  0  0  0  0  0  0  0  0  0
   -0.4833   -2.4898   -1.8021 C   0  0  0  0  0  0  0  0  0  0  0  0
    0.9236   -1.8184   -2.5923 S   0  0  0  0  0  0  0  0  0  0  0  0
    0.5832   -0.2972   -1.8387 C   0  0  0  0  0  0  0  0  0  0  0  0
    1.1540    0.9791   -1.7225 C   0  0  0  0  0  0  0  0  0  0  0  0
    2.3896    1.4908   -2.1759 C   0  0  0  0  0  0  0  0  0  0  0  0
    2.8028    2.7931   -1.7364 C   0  0  0  0  0  0  0  0  0  0  0  0
    4.0093    3.1155   -2.1757 N   0  0  0  0  0  0  0  0  0  0  0  0
    4.5735    1.8907   -3.0712 S   0  0  0  0  0  0  0  0  0  0  0  0
    3.3020    0.8988   -2.9303 N   0  0  0  0  0  0  0  0  0  0  0  0
    1.9034    3.5759   -0.9797 C   0  0  0  0  0  0  0  0  0  0  0  0
    1.9807    4.9069   -0.5378 C   0  0  0  0  0  0  0  0  0  0  0  0
    3.1089    6.2189   -0.5177 S   0  0  0  0  0  0  0  0  0  0  0  0
    1.8930    7.2193    0.2407 C   0  0  0  0  0  0  0  0  0  0  0  0
    1.8894    8.5718    0.6376 C   0  0  0  0  0  0  0  0  0  0  0  0
    3.0277    9.4661    0.4132 C   0  0  0  0  0  0  0  0  0  0  0  0
    2.8529   10.6996   -0.2097 C   0  0  0  0  0  0  0  0  0  0  0  0
    3.9444   11.5142   -0.4394 C   0  0  0  0  0  0  0  0  0  0  0  0
    5.2122   11.1085   -0.0579 C   0  0  0  0  0  0  0  0  0  0  0  0
    5.4066    9.8737    0.5476 C   0  0  0  0  0  0  0  0  0  0  0  0
    6.7737    9.4392    0.9907 C   0  0  0  0  0  0  0  0  0  0  0  0
    7.0252    9.8582    2.4407 C   0  0  0  0  0  0  0  0  0  0  0  0
    4.3065    9.0602    0.7771 C   0  0  0  0  0  0  0  0  0  0  0  0
    0.6672    8.9307    1.1775 C   0  0  0  0  0  0  0  0  0  0  0  0
   -0.4878    7.6043    1.1669 S   0  0  0  0  0  0  0  0  0  0  0  0
    0.6835    6.5535    0.4518 C   0  0  0  0  0  0  0  0  0  0  0  0
    0.7394    5.2237    0.0181 C   0  0  0  0  0  0  0  0  0  0  0  0
   -0.0920    4.1332   -0.0202 N   0  0  0  0  0  0  0  0  0  0  0  0
    0.6116    3.0989   -0.6238 C   0  0  0  0  0  0  0  0  0  0  0  0
    0.2929    1.7407   -0.8816 C   0  0  0  0  0  0  0  0  0  0  0  0
   -0.7396    0.9241   -0.4614 N   0  0  0  0  0  0  0  0  0  0  0  0
   -0.5649   -0.3056   -1.0387 C   0  0  0  0  0  0  0  0  0  0  0  0
   -1.1705   -1.5656   -1.0036 C   0  0  0  0  0  0  0  0  0  0  0  0
   -2.5275   -2.2987   -0.2264 S   0  0  0  0  0  0  0  0  0  0  0  0
   -1.6555    1.0737    0.6457 C   0  0  0  0  0  0  0  0  0  0  0  0
   -3.1037    1.2148    0.1798 C   0  0  0  0  0  0  0  0  0  0  0  0
   -1.5215    4.3607    0.0037 C   0  0  0  0  0  0  0  0  0  0  0  0
   -2.0744    4.5106   -1.4119 C   0  0  0  0  0  0  0  0  0  0  0  0
    0.2367   10.1624    1.7432 C   0  0  0  0  0  0  0  0  0  0  0  0
    1.0212   11.1788    2.2520 C   0  0  0  0  0  0  0  0  0  0  0  0
    0.3326   12.2876    2.7432 C   0  0  0  0  0  0  0  0  0  0  0  0
    1.0934   13.4685    3.2648 C   0  0  0  0  0  0  0  0  0  0  0  0
    1.3105   14.4992    2.1535 C   0  0  0  0  0  0  0  0  0  0  0  0
   -1.0651   12.2161    2.6482 C   0  0  0  0  0  0  0  0  0  0  0  0
   -1.5797   10.5719    1.8842 Se  0  0  0  0  0  2  0  0  0  0  0  0
   -1.9130   13.2587    3.0654 C   0  0  0  0  0  0  0  0  0  0  0  0
   -3.2695   13.4513    3.0639 C   0  0  0  0  0  0  0  0  0  0  0  0
   -3.7003   14.6979    3.5801 C   0  0  0  0  0  0  0  0  0  0  0  0
   -3.9946   15.7215    4.0051 N   0  0  0  0  0  0  0  0  0  0  0  0
   -4.3757   12.6028    2.6196 C   0  0  0  0  0  0  0  0  0  0  0  0
   -5.5358   12.9380    2.6598 O   0  0  0  0  0  0  0  0  0  0  0  0
   -4.0074   11.3864    2.1538 O   0  0  0  0  0  0  0  0  0  0  0  0
   -5.0948   10.5595    1.7311 C   0  0  0  0  0  0  0  0  0  0  0  0
   -4.5591    9.2463    1.1980 C   0  0  0  0  0  0  0  0  0  0  0  0
   -5.5797   -9.6428   -0.3111 H   0  0  0  0  0  0  0  0  0  0  0  0
    0.3918   -8.1958    1.0733 H   0  0  0  0  0  0  0  0  0  0  0  0
   -0.6954  -12.0671   -2.0049 H   0  0  0  0  0  0  0  0  0  0  0  0
    2.6318  -11.2374   -2.2354 H   0  0  0  0  0  0  0  0  0  0  0  0
    2.9153  -13.4056   -1.0455 H   0  0  0  0  0  0  0  0  0  0  0  0
    1.2069  -13.3988    0.9335 H   0  0  0  0  0  0  0  0  0  0  0  0
    1.8158  -11.3823    2.5516 H   0  0  0  0  0  0  0  0  0  0  0  0
    3.9019  -10.1464    1.5696 H   0  0  0  0  0  0  0  0  0  0  0  0
    4.7719  -11.5116   -0.5810 H   0  0  0  0  0  0  0  0  0  0  0  0
    4.6018  -12.5897    0.8269 H   0  0  0  0  0  0  0  0  0  0  0  0
    3.2269   -9.2786   -0.6635 H   0  0  0  0  0  0  0  0  0  0  0  0
   -5.9888   -7.3802    0.7475 H   0  0  0  0  0  0  0  0  0  0  0  0
   -5.9291   -4.7051    0.9475 H   0  0  0  0  0  0  0  0  0  0  0  0
   -4.9212   -3.3127    0.5146 H   0  0  0  0  0  0  0  0  0  0  0  0
   -3.2683   -3.9393    2.2491 H   0  0  0  0  0  0  0  0  0  0  0  0
   -4.1798   -5.3986    2.6274 H   0  0  0  0  0  0  0  0  0  0  0  0
   -4.8695   -3.8064    2.9848 H   0  0  0  0  0  0  0  0  0  0  0  0
    0.1675   -5.9642   -0.7788 H   0  0  0  0  0  0  0  0  0  0  0  0
    1.1106   -7.8592   -2.0492 H   0  0  0  0  0  0  0  0  0  0  0  0
    1.0004   -7.8749   -4.5073 H   0  0  0  0  0  0  0  0  0  0  0  0
    0.7560   -6.5404   -6.5694 H   0  0  0  0  0  0  0  0  0  0  0  0
   -0.1138   -4.9993   -6.5382 H   0  0  0  0  0  0  0  0  0  0  0  0
   -1.3865   -7.7573   -6.1787 H   0  0  0  0  0  0  0  0  0  0  0  0
   -2.2550   -6.2250   -6.1382 H   0  0  0  0  0  0  0  0  0  0  0  0
   -1.4829   -6.7612   -7.6353 H   0  0  0  0  0  0  0  0  0  0  0  0
   -0.9593   -4.0850   -4.4475 H   0  0  0  0  0  0  0  0  0  0  0  0
    1.8650   11.0078   -0.5192 H   0  0  0  0  0  0  0  0  0  0  0  0
    3.8077   12.4697   -0.9246 H   0  0  0  0  0  0  0  0  0  0  0  0
    6.0602   11.7524   -0.2410 H   0  0  0  0  0  0  0  0  0  0  0  0
    6.8590    8.3541    0.9090 H   0  0  0  0  0  0  0  0  0  0  0  0
    7.5315    9.8919    0.3486 H   0  0  0  0  0  0  0  0  0  0  0  0
    6.9557   10.9393    2.5406 H   0  0  0  0  0  0  0  0  0  0  0  0
    6.2877    9.4052    3.0997 H   0  0  0  0  0  0  0  0  0  0  0  0
    8.0156    9.5436    2.7605 H   0  0  0  0  0  0  0  0  0  0  0  0
    4.4428    8.1005    1.2543 H   0  0  0  0  0  0  0  0  0  0  0  0
   -1.5769    0.1714    1.2631 H   0  0  0  0  0  0  0  0  0  0  0  0
   -1.3330    1.9167    1.2579 H   0  0  0  0  0  0  0  0  0  0  0  0
   -3.2189    2.0327   -0.5257 H   0  0  0  0  0  0  0  0  0  0  0  0
   -3.7501    1.3905    1.0353 H   0  0  0  0  0  0  0  0  0  0  0  0
   -3.4248    0.2986   -0.3083 H   0  0  0  0  0  0  0  0  0  0  0  0
   -2.0404    3.5643    0.5295 H   0  0  0  0  0  0  0  0  0  0  0  0
   -1.6810    5.2869    0.5617 H   0  0  0  0  0  0  0  0  0  0  0  0
   -3.1427    4.7059   -1.3756 H   0  0  0  0  0  0  0  0  0  0  0  0
   -1.8984    3.6051   -1.9893 H   0  0  0  0  0  0  0  0  0  0  0  0
   -1.5873    5.3398   -1.9199 H   0  0  0  0  0  0  0  0  0  0  0  0
    2.0956   11.1137    2.2851 H   0  0  0  0  0  0  0  0  0  0  0  0
    0.5763   13.9341    4.1052 H   0  0  0  0  0  0  0  0  0  0  0  0
    2.0657   13.1241    3.6228 H   0  0  0  0  0  0  0  0  0  0  0  0
    1.8554   14.0487    1.3267 H   0  0  0  0  0  0  0  0  0  0  0  0
    1.8848   15.3420    2.5300 H   0  0  0  0  0  0  0  0  0  0  0  0
    0.3587   14.8682    1.7778 H   0  0  0  0  0  0  0  0  0  0  0  0
   -1.3695   14.1072    3.4715 H   0  0  0  0  0  0  0  0  0  0  0  0
   -5.7588   10.3986    2.5880 H   0  0  0  0  0  0  0  0  0  0  0  0
   -5.6608   11.0990    0.9631 H   0  0  0  0  0  0  0  0  0  0  0  0
   -3.9917    8.7287    1.9688 H   0  0  0  0  0  0  0  0  0  0  0  0
   -5.3907    8.6213    0.8855 H   0  0  0  0  0  0  0  0  0  0  0  0
   -3.9053    9.4230    0.3465 H   0  0  0  0  0  0  0  0  0  0  0  0
  1  2  2  0  0  0  0
  2  3  1  0  0  0  0
  3  4  2  0  0  0  0
  3  5  1  0  0  0  0
  5  6  2  0  0  0  0
  6  7  1  0  0  0  0
  7  8  2  0  0  0  0
  8  9  1  0  0  0  0
  9 10  2  0  0  0  0
 10 11  1  0  0  0  0
 11 12  2  0  0  0  0
 12 13  1  0  0  0  0
 13 14  3  0  0  0  0
 12 15  1  0  0  0  0
 15 16  3  0  0  0  0
  8 17  1  0  0  0  0
 17 18  1  0  0  0  0
 18 19  1  0  0  0  0
 19 20  2  0  0  0  0
 20 21  1  0  0  0  0
 21 22  1  0  0  0  0
 21 23  1  0  0  0  0
  1 24  1  0  0  0  0
 24 25  2  0  0  0  0
 25 26  1  0  0  0  0
 26 27  1  0  0  0  0
 27 28  1  0  0  0  0
 26 29  2  0  0  0  0
 29 30  1  0  0  0  0
 29 31  1  0  0  0  0
 31 32  2  0  0  0  0
 32 33  1  0  0  0  0
 33 34  2  0  0  0  0
 34 35  1  0  0  0  0
 35 36  2  0  0  0  0
 36 37  1  0  0  0  0
 37 38  1  0  0  0  0
 38 39  1  0  0  0  0
 37 40  2  0  0  0  0
 32 41  1  0  0  0  0
 41 42  1  0  0  0  0
 42 43  1  0  0  0  0
 43 44  1  0  0  0  0
 44 45  1  0  0  0  0
 45 46  1  0  0  0  0
 46 47  2  0  0  0  0
 47 48  1  0  0  0  0
 48 49  1  0  0  0  0
 46 50  1  0  0  0  0
 50 51  1  0  0  0  0
 51 52  1  0  0  0  0
 52 53  1  0  0  0  0
 53 54  1  0  0  0  0
 54 55  1  0  0  0  0
 55 56  2  0  0  0  0
 56 57  1  0  0  0  0
 57 58  2  0  0  0  0
 58 59  1  0  0  0  0
 59 60  1  0  0  0  0
 60 61  1  0  0  0  0
 59 62  2  0  0  0  0
 54 63  2  0  0  0  0
 63 64  1  0  0  0  0
 64 65  1  0  0  0  0
 65 66  1  0  0  0  0
 66 67  1  0  0  0  0
 67 68  1  0  0  0  0
 68 69  1  0  0  0  0
 69 70  1  0  0  0  0
 70 71  1  0  0  0  0
 71 72  1  0  0  0  0
 72 73  1  0  0  0  0
 70 74  1  0  0  0  0
 74 75  1  0  0  0  0
 67 76  1  0  0  0  0
 76 77  1  0  0  0  0
 63 78  1  0  0  0  0
 78 79  2  0  0  0  0
 79 80  1  0  0  0  0
 80 81  1  0  0  0  0
 81 82  1  0  0  0  0
 80 83  2  0  0  0  0
 83 84  1  0  0  0  0
 83 85  1  0  0  0  0
 85 86  2  0  0  0  0
 86 87  1  0  0  0  0
 87 88  3  0  0  0  0
 86 89  1  0  0  0  0
 89 90  2  0  0  0  0
 89 91  1  0  0  0  0
 91 92  1  0  0  0  0
 92 93  1  0  0  0  0
 11  2  1  0  0  0  0
 23 17  1  0  0  0  0
 30 24  1  0  0  0  0
 73 31  1  0  0  0  0
 84 78  1  0  0  0  0
 10  5  1  0  0  0  0
 22 18  1  0  0  0  0
 40 33  1  0  0  0  0
 72 41  2  0  0  0  0
 23  7  1  0  0  0  0
 71 43  2  0  0  0  0
 69 44  2  0  0  0  0
 49 45  2  0  0  0  0
 68 50  2  0  0  0  0
 66 51  2  0  0  0  0
 65 53  2  0  0  0  0
 62 55  1  0  0  0  0
  1 94  1  0  0  0  0
  6 95  1  0  0  0  0
  9 96  1  0  0  0  0
 17 97  1  0  0  0  0
 18 98  1  0  0  0  0
 19 99  1  0  0  0  0
 20100  1  0  0  0  0
 21101  1  0  0  0  0
 22102  1  0  0  0  0
 22103  1  0  0  0  0
 23104  1  0  0  0  0
 25105  1  0  0  0  0
 27106  1  0  0  0  0
 27107  1  0  0  0  0
 28108  1  0  0  0  0
 28109  1  0  0  0  0
 28110  1  0  0  0  0
 34111  1  0  0  0  0
 35112  1  0  0  0  0
 36113  1  0  0  0  0
 38114  1  0  0  0  0
 38115  1  0  0  0  0
 39116  1  0  0  0  0
 39117  1  0  0  0  0
 39118  1  0  0  0  0
 40119  1  0  0  0  0
 56120  1  0  0  0  0
 57121  1  0  0  0  0
 58122  1  0  0  0  0
 60123  1  0  0  0  0
 60124  1  0  0  0  0
 61125  1  0  0  0  0
 61126  1  0  0  0  0
 61127  1  0  0  0  0
 62128  1  0  0  0  0
 74129  1  0  0  0  0
 74130  1  0  0  0  0
 75131  1  0  0  0  0
 75132  1  0  0  0  0
 75133  1  0  0  0  0
 76134  1  0  0  0  0
 76135  1  0  0  0  0
 77136  1  0  0  0  0
 77137  1  0  0  0  0
 77138  1  0  0  0  0
 79139  1  0  0  0  0
 81140  1  0  0  0  0
 81141  1  0  0  0  0
 82142  1  0  0  0  0
 82143  1  0  0  0  0
 82144  1  0  0  0  0
 85145  1  0  0  0  0
 92146  1  0  0  0  0
 92147  1  0  0  0  0
 93148  1  0  0  0  0
 93149  1  0  0  0  0
 93150  1  0  0  0  0
M  END
