
  xtb     02222213143D
 energy: -364.735834234258 gnorm: 0.000680151760 xtb: 6.4.1 (unknown)
219245  0     0  0            999 V2000
    0.6321   11.9634   -3.8443 C   0  0  0  0  0  0  0  0  0  0  0  0
    1.5862   12.1810   -4.8026 C   0  0  0  0  0  0  0  0  0  0  0  0
    2.3145   11.1630   -5.5928 C   0  0  0  0  0  0  0  0  0  0  0  0
    2.0946    9.9716   -5.6890 O   0  0  0  0  0  0  0  0  0  0  0  0
    3.4450   11.8753   -6.2181 C   0  0  0  0  0  0  0  0  0  0  0  0
    4.4368   11.3142   -7.0202 C   0  0  0  0  0  0  0  0  0  0  0  0
    5.3773   12.2147   -7.4580 C   0  0  0  0  0  0  0  0  0  0  0  0
    5.3392   13.5738   -7.1185 C   0  0  0  0  0  0  0  0  0  0  0  0
    4.3635   14.1409   -6.3337 C   0  0  0  0  0  0  0  0  0  0  0  0
    3.3928   13.2415   -5.8812 C   0  0  0  0  0  0  0  0  0  0  0  0
    2.2130   13.4655   -5.0509 C   0  0  0  0  0  0  0  0  0  0  0  0
    1.7400   14.6899   -4.6527 C   0  0  0  0  0  0  0  0  0  0  0  0
    2.3813   15.9171   -4.9180 C   0  0  0  0  0  0  0  0  0  0  0  0
    2.8526   16.9505   -5.0887 N   0  0  0  0  0  0  0  0  0  0  0  0
    0.5283   14.9104   -3.9643 C   0  0  0  0  0  0  0  0  0  0  0  0
   -0.4536   15.1849   -3.4349 N   0  0  0  0  0  0  0  0  0  0  0  0
    6.5999   13.8832   -7.8874 C   0  0  0  0  0  0  0  0  0  0  0  0
    7.8897   14.0582   -7.0579 C   0  0  0  0  0  0  0  0  0  0  0  0
    8.9977   13.8703   -8.0690 C   0  0  0  0  0  0  0  0  0  0  0  0
    9.0314   12.5849   -8.3966 C   0  0  0  0  0  0  0  0  0  0  0  0
    7.9471   11.8823   -7.6119 C   0  0  0  0  0  0  0  0  0  0  0  0
    7.9733   12.7140   -6.3230 C   0  0  0  0  0  0  0  0  0  0  0  0
    6.6390   12.3690   -8.2706 C   0  0  0  0  0  0  0  0  0  0  0  0
   -0.0754   10.7834   -3.5500 C   0  0  0  0  0  0  0  0  0  0  0  0
   -0.3194    9.6443   -4.2953 C   0  0  0  0  0  0  0  0  0  0  0  0
   -1.0582    8.6742   -3.6222 C   0  0  0  0  0  0  0  0  0  0  0  0
   -1.4167    7.3747   -4.2172 C   0  0  0  0  0  0  0  0  0  0  0  0
   -0.4080    6.4391   -4.4675 C   0  0  0  0  0  0  0  0  0  0  0  0
   -0.7517    5.2185   -5.0255 C   0  0  0  0  0  0  0  0  0  0  0  0
   -2.0663    4.9114   -5.3467 C   0  0  0  0  0  0  0  0  0  0  0  0
   -2.4147    3.5933   -5.9689 C   0  0  0  0  0  0  0  0  0  0  0  0
   -3.0494    5.8595   -5.1041 C   0  0  0  0  0  0  0  0  0  0  0  0
   -2.7445    7.0904   -4.5449 C   0  0  0  0  0  0  0  0  0  0  0  0
   -3.8309    8.0917   -4.2866 C   0  0  0  0  0  0  0  0  0  0  0  0
    1.0155    6.7436   -4.1133 C   0  0  0  0  0  0  0  0  0  0  0  0
   -1.4176    9.0643   -2.3341 C   0  0  0  0  0  0  0  0  0  0  0  0
   -0.8477   10.6630   -1.9780 S   0  0  0  0  0  0  0  0  0  0  0  0
   -2.0505    8.2560   -1.3501 C   0  0  0  0  0  0  0  0  0  0  0  0
   -2.7001    8.6414   -0.1881 C   0  0  0  0  0  0  0  0  0  0  0  0
   -3.0684   10.0161    0.1531 C   0  0  0  0  0  0  0  0  0  0  0  0
   -3.6915   10.8378   -0.7834 C   0  0  0  0  0  0  0  0  0  0  0  0
   -4.0541   12.1242   -0.4361 C   0  0  0  0  0  0  0  0  0  0  0  0
   -3.8079   12.5977    0.8411 C   0  0  0  0  0  0  0  0  0  0  0  0
   -3.2005   11.7871    1.7913 C   0  0  0  0  0  0  0  0  0  0  0  0
   -2.9896   12.2704    3.1967 C   0  0  0  0  0  0  0  0  0  0  0  0
   -4.1818   11.8801    4.0728 C   0  0  0  0  0  0  0  0  0  0  0  0
   -2.8384   10.4962    1.4371 C   0  0  0  0  0  0  0  0  0  0  0  0
   -3.0230    7.5285    0.6111 C   0  0  0  0  0  0  0  0  0  0  0  0
   -3.8164    7.3668    2.1622 S   0  0  0  0  0  0  0  0  0  0  0  0
   -3.6063    5.6494    2.0659 C   0  0  0  0  0  0  0  0  0  0  0  0
   -3.8201    4.4998    2.8435 C   0  0  0  0  0  0  0  0  0  0  0  0
   -4.3074    4.3498    4.1600 C   0  0  0  0  0  0  0  0  0  0  0  0
   -4.2671    3.0526    4.7715 C   0  0  0  0  0  0  0  0  0  0  0  0
   -4.6969    3.0695    6.0237 N   0  0  0  0  0  0  0  0  0  0  0  0
   -5.1227    4.5863    6.3985 S   0  0  0  0  0  0  0  0  0  0  0  0
   -4.7705    5.2810    4.9792 N   0  0  0  0  0  0  0  0  0  0  0  0
   -3.8304    1.9495    4.0065 C   0  0  0  0  0  0  0  0  0  0  0  0
   -3.7347    0.5845    4.3242 C   0  0  0  0  0  0  0  0  0  0  0  0
   -3.9441   -0.4740    5.6800 S   0  0  0  0  0  0  0  0  0  0  0  0
   -3.4440   -1.8174    4.6787 C   0  0  0  0  0  0  0  0  0  0  0  0
   -3.2528   -3.1878    4.9455 C   0  0  0  0  0  0  0  0  0  0  0  0
   -3.5350   -3.7938    6.2497 C   0  0  0  0  0  0  0  0  0  0  0  0
   -4.3976   -4.8814    6.3572 C   0  0  0  0  0  0  0  0  0  0  0  0
   -4.6666   -5.4237    7.5990 C   0  0  0  0  0  0  0  0  0  0  0  0
   -4.0908   -4.8835    8.7356 C   0  0  0  0  0  0  0  0  0  0  0  0
   -3.2430   -3.7870    8.6472 C   0  0  0  0  0  0  0  0  0  0  0  0
   -2.6724   -3.1471    9.8796 C   0  0  0  0  0  0  0  0  0  0  0  0
   -3.5511   -1.9731   10.3166 C   0  0  0  0  0  0  0  0  0  0  0  0
   -2.9743   -3.2483    7.3978 C   0  0  0  0  0  0  0  0  0  0  0  0
   -2.7826   -3.8571    3.8314 C   0  0  0  0  0  0  0  0  0  0  0  0
   -2.6330   -2.8003    2.4294 S   0  0  0  0  0  0  0  0  0  0  0  0
   -3.1566   -1.4466    3.3647 C   0  0  0  0  0  0  0  0  0  0  0  0
   -3.3229   -0.0717    3.1631 C   0  0  0  0  0  0  0  0  0  0  0  0
   -3.1464    0.8270    2.1462 N   0  0  0  0  0  0  0  0  0  0  0  0
   -3.4330    2.0885    2.6461 C   0  0  0  0  0  0  0  0  0  0  0  0
   -3.3338    3.3920    2.0911 C   0  0  0  0  0  0  0  0  0  0  0  0
   -2.8226    3.8715    0.8961 N   0  0  0  0  0  0  0  0  0  0  0  0
   -2.9765    5.2307    0.8923 C   0  0  0  0  0  0  0  0  0  0  0  0
   -2.6389    6.3042    0.0600 C   0  0  0  0  0  0  0  0  0  0  0  0
   -1.8758    6.5073   -1.4749 S   0  0  0  0  0  0  0  0  0  0  0  0
   -1.9177    3.2614   -0.0515 C   0  0  0  0  0  0  0  0  0  0  0  0
   -0.6147    2.8287    0.6163 C   0  0  0  0  0  0  0  0  0  0  0  0
   -3.1133    0.3478    0.7819 C   0  0  0  0  0  0  0  0  0  0  0  0
   -4.3924    0.7089    0.0310 C   0  0  0  0  0  0  0  0  0  0  0  0
   -2.2736   -5.1802    3.7031 C   0  0  0  0  0  0  0  0  0  0  0  0
   -1.7776   -5.7385    2.5570 C   0  0  0  0  0  0  0  0  0  0  0  0
   -1.1999   -7.0147    2.7449 C   0  0  0  0  0  0  0  0  0  0  0  0
   -0.5744   -7.8296    1.7859 C   0  0  0  0  0  0  0  0  0  0  0  0
   -0.5422   -7.4532    0.3679 C   0  0  0  0  0  0  0  0  0  0  0  0
   -1.7144   -7.1035   -0.3014 C   0  0  0  0  0  0  0  0  0  0  0  0
   -1.6879   -6.7801   -1.6406 C   0  0  0  0  0  0  0  0  0  0  0  0
   -0.4956   -6.7783   -2.3620 C   0  0  0  0  0  0  0  0  0  0  0  0
   -0.5787   -6.3044   -4.0644 S   0  0  0  0  0  0  0  0  0  0  0  0
    0.5853   -7.4438   -4.9003 C   0  0  0  0  0  0  0  0  0  0  0  0
    0.2259   -8.8966   -4.6622 C   0  0  0  0  0  0  0  0  0  0  0  0
    0.6709   -7.0984   -1.6735 C   0  0  0  0  0  0  0  0  0  0  0  0
    1.8680   -7.0733   -2.2959 F   0  0  0  0  0  0  0  0  0  0  0  0
    0.6560   -7.4463   -0.3379 C   0  0  0  0  0  0  0  0  0  0  0  0
    0.0095   -8.9946    2.2528 C   0  0  0  0  0  0  0  0  0  0  0  0
   -0.0565   -9.4145    3.6062 C   0  0  0  0  0  0  0  0  0  0  0  0
   -0.7239   -8.6198    4.5564 C   0  0  0  0  0  0  0  0  0  0  0  0
   -0.8767   -9.0372    5.9535 C   0  0  0  0  0  0  0  0  0  0  0  0
   -0.5803   -8.1699    7.0006 C   0  0  0  0  0  0  0  0  0  0  0  0
   -0.7754   -8.5411    8.3166 C   0  0  0  0  0  0  0  0  0  0  0  0
   -1.2834   -9.7963    8.6334 C   0  0  0  0  0  0  0  0  0  0  0  0
   -1.6013  -10.3889   10.2566 S   0  0  0  0  0  0  0  0  0  0  0  0
   -1.2544   -8.9352   11.3160 C   0  0  0  0  0  0  0  0  0  0  0  0
   -1.5944   -9.2908   12.7512 C   0  0  0  0  0  0  0  0  0  0  0  0
   -1.5645  -10.6616    7.5728 C   0  0  0  0  0  0  0  0  0  0  0  0
   -1.3689  -10.3062    6.2585 C   0  0  0  0  0  0  0  0  0  0  0  0
   -2.0565  -11.8877    7.8439 F   0  0  0  0  0  0  0  0  0  0  0  0
   -1.2483   -7.4206    4.1015 C   0  0  0  0  0  0  0  0  0  0  0  0
   -2.0652   -6.2339    5.0882 S   0  0  0  0  0  0  0  0  0  0  0  0
    0.6499  -10.6215    3.8184 C   0  0  0  0  0  0  0  0  0  0  0  0
    1.2643  -11.1073    2.6976 C   0  0  0  0  0  0  0  0  0  0  0  0
    0.9021  -10.1308    1.2817 S   0  0  0  0  0  0  0  0  0  0  0  0
    2.0868  -12.2663    2.6075 C   0  0  0  0  0  0  0  0  0  0  0  0
    3.0809  -12.5070    1.7191 C   0  0  0  0  0  0  0  0  0  0  0  0
    3.5725  -13.8951    1.4835 C   0  0  0  0  0  0  0  0  0  0  0  0
    3.3673  -14.8618    2.1804 O   0  0  0  0  0  0  0  0  0  0  0  0
    4.3015  -13.8342    0.2022 C   0  0  0  0  0  0  0  0  0  0  0  0
    4.8438  -14.9012   -0.5132 C   0  0  0  0  0  0  0  0  0  0  0  0
    5.4523  -14.5360   -1.6899 C   0  0  0  0  0  0  0  0  0  0  0  0
    5.5056  -13.2086   -2.1389 C   0  0  0  0  0  0  0  0  0  0  0  0
    4.9795  -12.1454   -1.4454 C   0  0  0  0  0  0  0  0  0  0  0  0
    4.3736  -12.4941   -0.2353 C   0  0  0  0  0  0  0  0  0  0  0  0
    3.7717  -11.6404    0.7829 C   0  0  0  0  0  0  0  0  0  0  0  0
    4.0530  -10.3143    0.9724 C   0  0  0  0  0  0  0  0  0  0  0  0
    4.8261   -9.5360    0.0865 C   0  0  0  0  0  0  0  0  0  0  0  0
    5.4433   -8.8525   -0.5987 N   0  0  0  0  0  0  0  0  0  0  0  0
    3.6955   -9.5982    2.1350 C   0  0  0  0  0  0  0  0  0  0  0  0
    3.4815   -8.9878    3.0836 N   0  0  0  0  0  0  0  0  0  0  0  0
    6.2588  -13.5778   -3.3919 C   0  0  0  0  0  0  0  0  0  0  0  0
    7.7713  -13.2699   -3.3974 C   0  0  0  0  0  0  0  0  0  0  0  0
    8.3158  -14.1501   -4.4991 C   0  0  0  0  0  0  0  0  0  0  0  0
    8.2720  -15.4053   -4.0713 C   0  0  0  0  0  0  0  0  0  0  0  0
    7.6972  -15.3947   -2.6730 C   0  0  0  0  0  0  0  0  0  0  0  0
    8.2521  -14.0556   -2.1706 C   0  0  0  0  0  0  0  0  0  0  0  0
    6.2065  -15.0561   -2.8887 C   0  0  0  0  0  0  0  0  0  0  0  0
    0.4149   12.7860   -3.1724 H   0  0  0  0  0  0  0  0  0  0  0  0
    4.4278   10.2615   -7.2564 H   0  0  0  0  0  0  0  0  0  0  0  0
    4.3472   15.1882   -6.0823 H   0  0  0  0  0  0  0  0  0  0  0  0
    6.5022   14.6202   -8.6822 H   0  0  0  0  0  0  0  0  0  0  0  0
    7.9245   14.9619   -6.4558 H   0  0  0  0  0  0  0  0  0  0  0  0
    9.5859   14.6744   -8.4707 H   0  0  0  0  0  0  0  0  0  0  0  0
    9.6533   12.1008   -9.1267 H   0  0  0  0  0  0  0  0  0  0  0  0
    8.0345   10.8035   -7.5144 H   0  0  0  0  0  0  0  0  0  0  0  0
    8.9092   12.6000   -5.7784 H   0  0  0  0  0  0  0  0  0  0  0  0
    7.1368   12.5212   -5.6538 H   0  0  0  0  0  0  0  0  0  0  0  0
    6.5639   12.0965   -9.3218 H   0  0  0  0  0  0  0  0  0  0  0  0
    0.0133    9.5261   -5.3085 H   0  0  0  0  0  0  0  0  0  0  0  0
    0.0233    4.4887   -5.2138 H   0  0  0  0  0  0  0  0  0  0  0  0
   -1.7016    2.8252   -5.6787 H   0  0  0  0  0  0  0  0  0  0  0  0
   -3.4142    3.2781   -5.6778 H   0  0  0  0  0  0  0  0  0  0  0  0
   -2.3931    3.6793   -7.0558 H   0  0  0  0  0  0  0  0  0  0  0  0
   -4.0764    5.6359   -5.3573 H   0  0  0  0  0  0  0  0  0  0  0  0
   -3.4914    9.1019   -4.5088 H   0  0  0  0  0  0  0  0  0  0  0  0
   -4.1334    8.0607   -3.2384 H   0  0  0  0  0  0  0  0  0  0  0  0
   -4.7049    7.8728   -4.8952 H   0  0  0  0  0  0  0  0  0  0  0  0
    1.0881    7.0885   -3.0824 H   0  0  0  0  0  0  0  0  0  0  0  0
    1.6363    5.8589   -4.2303 H   0  0  0  0  0  0  0  0  0  0  0  0
    1.4126    7.5315   -4.7519 H   0  0  0  0  0  0  0  0  0  0  0  0
   -3.9000   10.4609   -1.7742 H   0  0  0  0  0  0  0  0  0  0  0  0
   -4.5334   12.7612   -1.1643 H   0  0  0  0  0  0  0  0  0  0  0  0
   -4.0920   13.6063    1.1036 H   0  0  0  0  0  0  0  0  0  0  0  0
   -2.0808   11.8270    3.6085 H   0  0  0  0  0  0  0  0  0  0  0  0
   -2.8749   13.3559    3.2030 H   0  0  0  0  0  0  0  0  0  0  0  0
   -4.0321   12.2231    5.0938 H   0  0  0  0  0  0  0  0  0  0  0  0
   -4.3060   10.7995    4.0824 H   0  0  0  0  0  0  0  0  0  0  0  0
   -5.0958   12.3260    3.6869 H   0  0  0  0  0  0  0  0  0  0  0  0
   -2.3564    9.8580    2.1636 H   0  0  0  0  0  0  0  0  0  0  0  0
   -4.8616   -5.2876    5.4706 H   0  0  0  0  0  0  0  0  0  0  0  0
   -5.3329   -6.2696    7.6814 H   0  0  0  0  0  0  0  0  0  0  0  0
   -4.3083   -5.3126    9.7034 H   0  0  0  0  0  0  0  0  0  0  0  0
   -2.6164   -3.8783   10.6885 H   0  0  0  0  0  0  0  0  0  0  0  0
   -1.6632   -2.7836    9.6752 H   0  0  0  0  0  0  0  0  0  0  0  0
   -3.6161   -1.2333    9.5221 H   0  0  0  0  0  0  0  0  0  0  0  0
   -3.1384   -1.4978   11.2032 H   0  0  0  0  0  0  0  0  0  0  0  0
   -4.5572   -2.3189   10.5435 H   0  0  0  0  0  0  0  0  0  0  0  0
   -2.3107   -2.3998    7.3123 H   0  0  0  0  0  0  0  0  0  0  0  0
   -2.4025    2.4331   -0.5680 H   0  0  0  0  0  0  0  0  0  0  0  0
   -1.6989    4.0213   -0.8059 H   0  0  0  0  0  0  0  0  0  0  0  0
   -0.1049    3.6964    1.0284 H   0  0  0  0  0  0  0  0  0  0  0  0
   -0.7997    2.1282    1.4272 H   0  0  0  0  0  0  0  0  0  0  0  0
    0.0383    2.3590   -0.1143 H   0  0  0  0  0  0  0  0  0  0  0  0
   -3.0250   -0.7399    0.8390 H   0  0  0  0  0  0  0  0  0  0  0  0
   -2.2259    0.7109    0.2634 H   0  0  0  0  0  0  0  0  0  0  0  0
   -4.5477    1.7851    0.0105 H   0  0  0  0  0  0  0  0  0  0  0  0
   -4.3389    0.3407   -0.9900 H   0  0  0  0  0  0  0  0  0  0  0  0
   -5.2505    0.2529    0.5195 H   0  0  0  0  0  0  0  0  0  0  0  0
   -1.7939   -5.2307    1.6086 H   0  0  0  0  0  0  0  0  0  0  0  0
   -2.6547   -7.1180    0.2283 H   0  0  0  0  0  0  0  0  0  0  0  0
   -2.5985   -6.5241   -2.1597 H   0  0  0  0  0  0  0  0  0  0  0  0
    1.5986   -7.2157   -4.5776 H   0  0  0  0  0  0  0  0  0  0  0  0
    0.4786   -7.1792   -5.9524 H   0  0  0  0  0  0  0  0  0  0  0  0
    0.3347   -9.1570   -3.6108 H   0  0  0  0  0  0  0  0  0  0  0  0
   -0.8022   -9.0903   -4.9617 H   0  0  0  0  0  0  0  0  0  0  0  0
    0.8865   -9.5365   -5.2437 H   0  0  0  0  0  0  0  0  0  0  0  0
    1.5930   -7.6705    0.1481 H   0  0  0  0  0  0  0  0  0  0  0  0
   -0.1686   -7.1959    6.7879 H   0  0  0  0  0  0  0  0  0  0  0  0
   -0.5265   -7.8400    9.0956 H   0  0  0  0  0  0  0  0  0  0  0  0
   -0.1973   -8.6878   11.2171 H   0  0  0  0  0  0  0  0  0  0  0  0
   -1.8703   -8.1089   10.9607 H   0  0  0  0  0  0  0  0  0  0  0  0
   -1.3935   -8.4414   13.4006 H   0  0  0  0  0  0  0  0  0  0  0  0
   -0.9964  -10.1351   13.0858 H   0  0  0  0  0  0  0  0  0  0  0  0
   -2.6450   -9.5577   12.8387 H   0  0  0  0  0  0  0  0  0  0  0  0
   -1.6319  -11.0049    5.4797 H   0  0  0  0  0  0  0  0  0  0  0  0
    0.7660  -11.0783    4.7849 H   0  0  0  0  0  0  0  0  0  0  0  0
    1.8544  -13.0745    3.2939 H   0  0  0  0  0  0  0  0  0  0  0  0
    4.7735  -15.9111   -0.1408 H   0  0  0  0  0  0  0  0  0  0  0  0
    5.0142  -11.1287   -1.8014 H   0  0  0  0  0  0  0  0  0  0  0  0
    5.7697  -13.3294   -4.3318 H   0  0  0  0  0  0  0  0  0  0  0  0
    8.0198  -12.2133   -3.4452 H   0  0  0  0  0  0  0  0  0  0  0  0
    8.6155  -13.7868   -5.4646 H   0  0  0  0  0  0  0  0  0  0  0  0
    8.5278  -16.3001   -4.6079 H   0  0  0  0  0  0  0  0  0  0  0  0
    7.8806  -16.2745   -2.0621 H   0  0  0  0  0  0  0  0  0  0  0  0
    9.3376  -14.0653   -2.0881 H   0  0  0  0  0  0  0  0  0  0  0  0
    7.8192  -13.7192   -1.2303 H   0  0  0  0  0  0  0  0  0  0  0  0
    5.6858  -15.7956   -3.4943 H   0  0  0  0  0  0  0  0  0  0  0  0
  1  2  2  0  0  0  0
  2  3  1  0  0  0  0
  3  4  2  0  0  0  0
  3  5  1  0  0  0  0
  5  6  2  0  0  0  0
  6  7  1  0  0  0  0
  7  8  2  0  0  0  0
  8  9  1  0  0  0  0
  9 10  2  0  0  0  0
 10 11  1  0  0  0  0
 11 12  2  0  0  0  0
 12 13  1  0  0  0  0
 13 14  3  0  0  0  0
 12 15  1  0  0  0  0
 15 16  3  0  0  0  0
  8 17  1  0  0  0  0
 17 18  1  0  0  0  0
 18 19  1  0  0  0  0
 19 20  2  0  0  0  0
 20 21  1  0  0  0  0
 21 22  1  0  0  0  0
 21 23  1  0  0  0  0
  1 24  1  0  0  0  0
 24 25  2  0  0  0  0
 25 26  1  0  0  0  0
 26 27  1  0  0  0  0
 27 28  2  0  0  0  0
 28 29  1  0  0  0  0
 29 30  2  0  0  0  0
 30 31  1  0  0  0  0
 30 32  1  0  0  0  0
 32 33  2  0  0  0  0
 33 34  1  0  0  0  0
 28 35  1  0  0  0  0
 26 36  2  0  0  0  0
 36 37  1  0  0  0  0
 36 38  1  0  0  0  0
 38 39  2  0  0  0  0
 39 40  1  0  0  0  0
 40 41  2  0  0  0  0
 41 42  1  0  0  0  0
 42 43  2  0  0  0  0
 43 44  1  0  0  0  0
 44 45  1  0  0  0  0
 45 46  1  0  0  0  0
 44 47  2  0  0  0  0
 39 48  1  0  0  0  0
 48 49  1  0  0  0  0
 49 50  1  0  0  0  0
 50 51  1  0  0  0  0
 51 52  1  0  0  0  0
 52 53  1  0  0  0  0
 53 54  2  0  0  0  0
 54 55  1  0  0  0  0
 55 56  1  0  0  0  0
 53 57  1  0  0  0  0
 57 58  1  0  0  0  0
 58 59  1  0  0  0  0
 59 60  1  0  0  0  0
 60 61  1  0  0  0  0
 61 62  1  0  0  0  0
 62 63  2  0  0  0  0
 63 64  1  0  0  0  0
 64 65  2  0  0  0  0
 65 66  1  0  0  0  0
 66 67  1  0  0  0  0
 67 68  1  0  0  0  0
 66 69  2  0  0  0  0
 61 70  2  0  0  0  0
 70 71  1  0  0  0  0
 71 72  1  0  0  0  0
 72 73  1  0  0  0  0
 73 74  1  0  0  0  0
 74 75  1  0  0  0  0
 75 76  1  0  0  0  0
 76 77  1  0  0  0  0
 77 78  1  0  0  0  0
 78 79  1  0  0  0  0
 79 80  1  0  0  0  0
 77 81  1  0  0  0  0
 81 82  1  0  0  0  0
 74 83  1  0  0  0  0
 83 84  1  0  0  0  0
 70 85  1  0  0  0  0
 85 86  2  0  0  0  0
 86 87  1  0  0  0  0
 87 88  2  0  0  0  0
 88 89  1  0  0  0  0
 89 90  2  0  0  0  0
 90 91  1  0  0  0  0
 91 92  2  0  0  0  0
 92 93  1  0  0  0  0
 93 94  1  0  0  0  0
 94 95  1  0  0  0  0
 92 96  1  0  0  0  0
 96 97  1  0  0  0  0
 96 98  2  0  0  0  0
 88 99  1  0  0  0  0
 99100  2  0  0  0  0
100101  1  0  0  0  0
101102  1  0  0  0  0
102103  2  0  0  0  0
103104  1  0  0  0  0
104105  2  0  0  0  0
105106  1  0  0  0  0
106107  1  0  0  0  0
107108  1  0  0  0  0
105109  1  0  0  0  0
109110  2  0  0  0  0
109111  1  0  0  0  0
101112  2  0  0  0  0
112113  1  0  0  0  0
100114  1  0  0  0  0
114115  2  0  0  0  0
115116  1  0  0  0  0
115117  1  0  0  0  0
117118  2  0  0  0  0
118119  1  0  0  0  0
119120  2  0  0  0  0
119121  1  0  0  0  0
121122  2  0  0  0  0
122123  1  0  0  0  0
123124  2  0  0  0  0
124125  1  0  0  0  0
125126  2  0  0  0  0
126127  1  0  0  0  0
127128  2  0  0  0  0
128129  1  0  0  0  0
129130  3  0  0  0  0
128131  1  0  0  0  0
131132  3  0  0  0  0
124133  1  0  0  0  0
133134  1  0  0  0  0
134135  1  0  0  0  0
135136  2  0  0  0  0
136137  1  0  0  0  0
137138  1  0  0  0  0
137139  1  0  0  0  0
 11  2  1  0  0  0  0
 23 17  1  0  0  0  0
 37 24  1  0  0  0  0
 80 38  1  0  0  0  0
113 85  1  0  0  0  0
127118  1  0  0  0  0
139133  1  0  0  0  0
 10  5  1  0  0  0  0
 22 18  1  0  0  0  0
 33 27  1  0  0  0  0
 47 40  1  0  0  0  0
 79 48  2  0  0  0  0
112 87  1  0  0  0  0
126121  1  0  0  0  0
138134  1  0  0  0  0
 23  7  1  0  0  0  0
 78 50  2  0  0  0  0
 98 89  1  0  0  0  0
116 99  1  0  0  0  0
139123  1  0  0  0  0
 76 51  2  0  0  0  0
110102  1  0  0  0  0
 56 52  2  0  0  0  0
 75 57  2  0  0  0  0
 73 58  2  0  0  0  0
 72 60  2  0  0  0  0
 69 62  1  0  0  0  0
  1140  1  0  0  0  0
  6141  1  0  0  0  0
  9142  1  0  0  0  0
 17143  1  0  0  0  0
 18144  1  0  0  0  0
 19145  1  0  0  0  0
 20146  1  0  0  0  0
 21147  1  0  0  0  0
 22148  1  0  0  0  0
 22149  1  0  0  0  0
 23150  1  0  0  0  0
 25151  1  0  0  0  0
 29152  1  0  0  0  0
 31153  1  0  0  0  0
 31154  1  0  0  0  0
 31155  1  0  0  0  0
 32156  1  0  0  0  0
 34157  1  0  0  0  0
 34158  1  0  0  0  0
 34159  1  0  0  0  0
 35160  1  0  0  0  0
 35161  1  0  0  0  0
 35162  1  0  0  0  0
 41163  1  0  0  0  0
 42164  1  0  0  0  0
 43165  1  0  0  0  0
 45166  1  0  0  0  0
 45167  1  0  0  0  0
 46168  1  0  0  0  0
 46169  1  0  0  0  0
 46170  1  0  0  0  0
 47171  1  0  0  0  0
 63172  1  0  0  0  0
 64173  1  0  0  0  0
 65174  1  0  0  0  0
 67175  1  0  0  0  0
 67176  1  0  0  0  0
 68177  1  0  0  0  0
 68178  1  0  0  0  0
 68179  1  0  0  0  0
 69180  1  0  0  0  0
 81181  1  0  0  0  0
 81182  1  0  0  0  0
 82183  1  0  0  0  0
 82184  1  0  0  0  0
 82185  1  0  0  0  0
 83186  1  0  0  0  0
 83187  1  0  0  0  0
 84188  1  0  0  0  0
 84189  1  0  0  0  0
 84190  1  0  0  0  0
 86191  1  0  0  0  0
 90192  1  0  0  0  0
 91193  1  0  0  0  0
 94194  1  0  0  0  0
 94195  1  0  0  0  0
 95196  1  0  0  0  0
 95197  1  0  0  0  0
 95198  1  0  0  0  0
 98199  1  0  0  0  0
103200  1  0  0  0  0
104201  1  0  0  0  0
107202  1  0  0  0  0
107203  1  0  0  0  0
108204  1  0  0  0  0
108205  1  0  0  0  0
108206  1  0  0  0  0
110207  1  0  0  0  0
114208  1  0  0  0  0
117209  1  0  0  0  0
122210  1  0  0  0  0
125211  1  0  0  0  0
133212  1  0  0  0  0
134213  1  0  0  0  0
135214  1  0  0  0  0
136215  1  0  0  0  0
137216  1  0  0  0  0
138217  1  0  0  0  0
138218  1  0  0  0  0
139219  1  0  0  0  0
M  END
