
  xtb     02202206393D
 energy: -450.677405903455 gnorm: 0.000555957320 xtb: 6.4.1 (unknown)
275307  0     0  0            999 V2000
   -7.7987   11.8964   -2.9241 C   0  0  0  0  0  0  0  0  0  0  0  0
   -6.9002   12.9257   -2.8830 C   0  0  0  0  0  0  0  0  0  0  0  0
   -5.4216   12.8283   -2.9071 C   0  0  0  0  0  0  0  0  0  0  0  0
   -4.7223   11.8440   -2.7734 O   0  0  0  0  0  0  0  0  0  0  0  0
   -4.9359   14.1889   -3.2014 C   0  0  0  0  0  0  0  0  0  0  0  0
   -3.6088   14.5743   -3.3831 C   0  0  0  0  0  0  0  0  0  0  0  0
   -3.4470   15.9108   -3.6560 C   0  0  0  0  0  0  0  0  0  0  0  0
   -4.5270   16.7990   -3.7523 C   0  0  0  0  0  0  0  0  0  0  0  0
   -5.8401   16.4321   -3.5781 C   0  0  0  0  0  0  0  0  0  0  0  0
   -6.0260   15.0763   -3.2892 C   0  0  0  0  0  0  0  0  0  0  0  0
   -7.2521   14.3265   -3.0354 C   0  0  0  0  0  0  0  0  0  0  0  0
   -8.5006   14.8699   -2.8778 C   0  0  0  0  0  0  0  0  0  0  0  0
   -8.7930   16.2435   -3.0071 C   0  0  0  0  0  0  0  0  0  0  0  0
   -9.0997   17.3462   -3.1014 N   0  0  0  0  0  0  0  0  0  0  0  0
   -9.6616   14.1532   -2.5168 C   0  0  0  0  0  0  0  0  0  0  0  0
  -10.6463   13.6534   -2.2007 N   0  0  0  0  0  0  0  0  0  0  0  0
   -3.6342   17.9778   -4.0501 C   0  0  0  0  0  0  0  0  0  0  0  0
   -3.3793   18.9591   -2.8865 C   0  0  0  0  0  0  0  0  0  0  0  0
   -2.1329   19.7034   -3.3078 C   0  0  0  0  0  0  0  0  0  0  0  0
   -1.1100   18.8635   -3.2135 C   0  0  0  0  0  0  0  0  0  0  0  0
   -1.6480   17.5372   -2.7270 C   0  0  0  0  0  0  0  0  0  0  0  0
   -2.7839   18.0296   -1.8211 C   0  0  0  0  0  0  0  0  0  0  0  0
   -2.4301   16.9883   -3.9394 C   0  0  0  0  0  0  0  0  0  0  0  0
   -7.5786   10.5169   -2.7179 C   0  0  0  0  0  0  0  0  0  0  0  0
   -6.5685    9.8534   -2.0650 C   0  0  0  0  0  0  0  0  0  0  0  0
   -6.7120    8.4541   -2.0588 C   0  0  0  0  0  0  0  0  0  0  0  0
   -5.8228    7.4986   -1.5053 C   0  0  0  0  0  0  0  0  0  0  0  0
   -4.5411    7.8845   -0.9733 C   0  0  0  0  0  0  0  0  0  0  0  0
   -3.7020    8.8868   -1.4079 C   0  0  0  0  0  0  0  0  0  0  0  0
   -2.5080    8.9636   -0.6887 C   0  0  0  0  0  0  0  0  0  0  0  0
   -2.4013    8.0240    0.3145 C   0  0  0  0  0  0  0  0  0  0  0  0
   -1.3138    7.8316    1.2083 C   0  0  0  0  0  0  0  0  0  0  0  0
   -1.2557    6.8592    2.1444 C   0  0  0  0  0  0  0  0  0  0  0  0
   -0.1731    6.6423    3.0361 C   0  0  0  0  0  0  0  0  0  0  0  0
   -0.0638    5.6695    4.0025 C   0  0  0  0  0  0  0  0  0  0  0  0
    1.1453    5.7026    4.7077 C   0  0  0  0  0  0  0  0  0  0  0  0
    1.9794    6.7051    4.2894 C   0  0  0  0  0  0  0  0  0  0  0  0
    3.5272    7.0703    5.0033 S   0  0  0  0  0  0  0  0  0  0  0  0
    4.3188    8.0886    3.7077 C   0  0  0  0  0  0  0  0  0  0  0  0
    4.7331    7.2640    2.5054 C   0  0  0  0  0  0  0  0  0  0  0  0
    1.2620    7.6397    3.0117 S   0  0  0  0  0  0  0  0  0  0  0  0
   -3.8216    7.0188    0.3573 S   0  0  0  0  0  0  0  0  0  0  0  0
   -6.2517    6.1756   -1.5477 C   0  0  0  0  0  0  0  0  0  0  0  0
   -7.4455    5.7561   -2.1863 C   0  0  0  0  0  0  0  0  0  0  0  0
   -8.3054    6.7039   -2.7872 C   0  0  0  0  0  0  0  0  0  0  0  0
   -9.5208    6.3162   -3.4649 C   0  0  0  0  0  0  0  0  0  0  0  0
  -10.7404    6.9497   -3.4793 C   0  0  0  0  0  0  0  0  0  0  0  0
  -11.6998    6.2824   -4.2428 C   0  0  0  0  0  0  0  0  0  0  0  0
  -11.2436    5.1221   -4.8399 C   0  0  0  0  0  0  0  0  0  0  0  0
  -12.0461    4.2817   -5.6634 C   0  0  0  0  0  0  0  0  0  0  0  0
  -11.8604    3.0683   -6.2375 C   0  0  0  0  0  0  0  0  0  0  0  0
  -10.8175    2.0991   -6.2331 C   0  0  0  0  0  0  0  0  0  0  0  0
  -10.8901    0.9123   -6.9366 C   0  0  0  0  0  0  0  0  0  0  0  0
   -9.7776    0.0803   -6.7910 C   0  0  0  0  0  0  0  0  0  0  0  0
   -8.8291    0.6181   -5.9604 C   0  0  0  0  0  0  0  0  0  0  0  0
   -7.3392   -0.1474   -5.4850 S   0  0  0  0  0  0  0  0  0  0  0  0
   -6.4763    1.2465   -4.6686 C   0  0  0  0  0  0  0  0  0  0  0  0
   -5.1324    0.7794   -4.1481 C   0  0  0  0  0  0  0  0  0  0  0  0
   -9.3125    2.1682   -5.3551 S   0  0  0  0  0  0  0  0  0  0  0  0
   -9.5712    4.8843   -4.4500 S   0  0  0  0  0  0  0  0  0  0  0  0
   -7.9194    8.0366   -2.6791 C   0  0  0  0  0  0  0  0  0  0  0  0
   -8.8058    9.3966   -3.3003 S   0  0  0  0  0  0  0  0  0  0  0  0
   -7.6351    4.3587   -2.0902 C   0  0  0  0  0  0  0  0  0  0  0  0
   -6.6492    3.7100   -1.4029 C   0  0  0  0  0  0  0  0  0  0  0  0
   -5.3972    4.8177   -0.8721 S   0  0  0  0  0  0  0  0  0  0  0  0
   -6.5061    2.3262   -1.0930 C   0  0  0  0  0  0  0  0  0  0  0  0
   -7.3898    1.2639   -1.2137 C   0  0  0  0  0  0  0  0  0  0  0  0
   -8.8051    1.3289   -1.5888 C   0  0  0  0  0  0  0  0  0  0  0  0
   -9.6510    2.3042   -1.0646 C   0  0  0  0  0  0  0  0  0  0  0  0
  -10.9798    2.3402   -1.4407 C   0  0  0  0  0  0  0  0  0  0  0  0
  -11.4870    1.3912   -2.3116 C   0  0  0  0  0  0  0  0  0  0  0  0
  -10.6718    0.3803   -2.8032 C   0  0  0  0  0  0  0  0  0  0  0  0
  -11.2359   -0.7156   -3.6587 C   0  0  0  0  0  0  0  0  0  0  0  0
  -11.7387   -1.8599   -2.7764 C   0  0  0  0  0  0  0  0  0  0  0  0
   -9.3332    0.3635   -2.4408 C   0  0  0  0  0  0  0  0  0  0  0  0
   -6.7620    0.0449   -0.8752 C   0  0  0  0  0  0  0  0  0  0  0  0
   -7.3299   -1.6101   -0.8284 S   0  0  0  0  0  0  0  0  0  0  0  0
   -5.7745   -2.1080   -0.2528 C   0  0  0  0  0  0  0  0  0  0  0  0
   -5.1096   -3.2735    0.1627 C   0  0  0  0  0  0  0  0  0  0  0  0
   -5.5736   -4.5967    0.3223 C   0  0  0  0  0  0  0  0  0  0  0  0
   -4.6949   -5.5752    0.8959 C   0  0  0  0  0  0  0  0  0  0  0  0
   -5.2737   -6.7586    1.0301 N   0  0  0  0  0  0  0  0  0  0  0  0
   -6.7935   -6.6505    0.4800 S   0  0  0  0  0  0  0  0  0  0  0  0
   -6.7716   -5.0897    0.0492 N   0  0  0  0  0  0  0  0  0  0  0  0
   -3.3662   -5.2071    1.1966 C   0  0  0  0  0  0  0  0  0  0  0  0
   -2.2856   -5.9644    1.6789 C   0  0  0  0  0  0  0  0  0  0  0  0
   -1.9337   -7.5751    2.2093 S   0  0  0  0  0  0  0  0  0  0  0  0
   -0.2589   -7.1216    2.4204 C   0  0  0  0  0  0  0  0  0  0  0  0
    0.8882   -7.8476    2.8233 C   0  0  0  0  0  0  0  0  0  0  0  0
    0.8311   -9.2584    3.2058 C   0  0  0  0  0  0  0  0  0  0  0  0
    1.5006   -9.7354    4.3284 C   0  0  0  0  0  0  0  0  0  0  0  0
    1.4017  -11.0695    4.6757 C   0  0  0  0  0  0  0  0  0  0  0  0
    0.6281  -11.9347    3.9216 C   0  0  0  0  0  0  0  0  0  0  0  0
   -0.0635  -11.4715    2.8095 C   0  0  0  0  0  0  0  0  0  0  0  0
   -0.9638  -12.3760    2.0179 C   0  0  0  0  0  0  0  0  0  0  0  0
   -2.4197  -12.1790    2.4444 C   0  0  0  0  0  0  0  0  0  0  0  0
    0.0440  -10.1337    2.4644 C   0  0  0  0  0  0  0  0  0  0  0  0
    2.0169   -7.0629    2.7567 C   0  0  0  0  0  0  0  0  0  0  0  0
    1.6553   -5.4009    2.2876 S   0  0  0  0  0  0  0  0  0  0  0  0
   -0.0117   -5.7916    2.0963 C   0  0  0  0  0  0  0  0  0  0  0  0
   -1.1719   -5.1260    1.6781 C   0  0  0  0  0  0  0  0  0  0  0  0
   -1.5198   -3.8760    1.2452 N   0  0  0  0  0  0  0  0  0  0  0  0
   -2.8753   -3.8932    0.9525 C   0  0  0  0  0  0  0  0  0  0  0  0
   -3.7864   -2.8911    0.5239 C   0  0  0  0  0  0  0  0  0  0  0  0
   -3.6684   -1.5210    0.3504 N   0  0  0  0  0  0  0  0  0  0  0  0
   -4.8702   -1.0550   -0.1104 C   0  0  0  0  0  0  0  0  0  0  0  0
   -5.4344    0.1757   -0.4654 C   0  0  0  0  0  0  0  0  0  0  0  0
   -4.9208    1.8209   -0.5228 S   0  0  0  0  0  0  0  0  0  0  0  0
   -2.7173   -0.5869    0.9094 C   0  0  0  0  0  0  0  0  0  0  0  0
   -2.6679   -0.6807    2.4324 C   0  0  0  0  0  0  0  0  0  0  0  0
   -0.4823   -2.9616    0.8235 C   0  0  0  0  0  0  0  0  0  0  0  0
   -0.4607   -2.7968   -0.6938 C   0  0  0  0  0  0  0  0  0  0  0  0
    3.4209   -7.3741    2.8069 C   0  0  0  0  0  0  0  0  0  0  0  0
    4.2917   -7.0793    1.7679 C   0  0  0  0  0  0  0  0  0  0  0  0
    3.9050   -6.6361    0.5140 N   0  0  0  0  0  0  0  0  0  0  0  0
    4.6722   -5.6441   -0.1153 C   0  0  0  0  0  0  0  0  0  0  0  0
    5.2487   -4.6209    0.6332 C   0  0  0  0  0  0  0  0  0  0  0  0
    6.0151   -3.6556    0.0121 C   0  0  0  0  0  0  0  0  0  0  0  0
    6.2304   -3.6825   -1.3609 C   0  0  0  0  0  0  0  0  0  0  0  0
    7.0521   -2.6208   -2.0237 C   0  0  0  0  0  0  0  0  0  0  0  0
    5.6455   -4.7046   -2.0995 C   0  0  0  0  0  0  0  0  0  0  0  0
    4.8758   -5.6765   -1.4917 C   0  0  0  0  0  0  0  0  0  0  0  0
    2.7380   -7.1355   -0.0803 C   0  0  0  0  0  0  0  0  0  0  0  0
    1.8848   -6.2922   -0.7904 C   0  0  0  0  0  0  0  0  0  0  0  0
    0.6952   -6.7761   -1.2949 C   0  0  0  0  0  0  0  0  0  0  0  0
    0.3268   -8.1063   -1.1264 C   0  0  0  0  0  0  0  0  0  0  0  0
   -0.9997   -8.6004   -1.6158 C   0  0  0  0  0  0  0  0  0  0  0  0
    1.2086   -8.9509   -0.4652 C   0  0  0  0  0  0  0  0  0  0  0  0
    2.3938   -8.4767    0.0606 C   0  0  0  0  0  0  0  0  0  0  0  0
    5.6325   -7.3182    2.1425 C   0  0  0  0  0  0  0  0  0  0  0  0
    7.1464   -7.1594    1.3345 S   0  0  0  0  0  0  0  0  0  0  0  0
    8.0022   -7.7357    2.7716 C   0  0  0  0  0  0  0  0  0  0  0  0
    7.1154   -8.0915    3.8001 C   0  0  0  0  0  0  0  0  0  0  0  0
    7.4566   -8.5600    5.0387 N   0  0  0  0  0  0  0  0  0  0  0  0
    6.7054   -8.1358    6.1539 C   0  0  0  0  0  0  0  0  0  0  0  0
    6.3403   -9.0446    7.1406 C   0  0  0  0  0  0  0  0  0  0  0  0
    5.6015   -8.6199    8.2278 C   0  0  0  0  0  0  0  0  0  0  0  0
    5.2091   -7.2930    8.3535 C   0  0  0  0  0  0  0  0  0  0  0  0
    4.3833   -6.8394    9.5177 C   0  0  0  0  0  0  0  0  0  0  0  0
    5.5875   -6.3927    7.3631 C   0  0  0  0  0  0  0  0  0  0  0  0
    6.3318   -6.7996    6.2746 C   0  0  0  0  0  0  0  0  0  0  0  0
    8.5301   -9.4421    5.2283 C   0  0  0  0  0  0  0  0  0  0  0  0
    9.3661   -9.3064    6.3326 C   0  0  0  0  0  0  0  0  0  0  0  0
   10.4256  -10.1747    6.5073 C   0  0  0  0  0  0  0  0  0  0  0  0
   10.6807  -11.1916    5.5948 C   0  0  0  0  0  0  0  0  0  0  0  0
   11.8578  -12.1005    5.7595 C   0  0  0  0  0  0  0  0  0  0  0  0
    9.8302  -11.3292    4.5031 C   0  0  0  0  0  0  0  0  0  0  0  0
    8.7644  -10.4722    4.3188 C   0  0  0  0  0  0  0  0  0  0  0  0
    5.7806   -7.7993    3.4320 C   0  0  0  0  0  0  0  0  0  0  0  0
    4.2518   -7.9951    4.2171 S   0  0  0  0  0  0  0  0  0  0  0  0
    9.4061   -7.7764    2.7779 C   0  0  0  0  0  0  0  0  0  0  0  0
   10.2650   -7.0245    2.0239 C   0  0  0  0  0  0  0  0  0  0  0  0
   11.6500   -7.4934    1.7907 C   0  0  0  0  0  0  0  0  0  0  0  0
   12.2140   -8.4081    2.3539 O   0  0  0  0  0  0  0  0  0  0  0  0
   12.1724   -6.6440    0.6988 C   0  0  0  0  0  0  0  0  0  0  0  0
   13.3875   -6.7729    0.0302 C   0  0  0  0  0  0  0  0  0  0  0  0
   13.5774   -5.8496   -0.9706 C   0  0  0  0  0  0  0  0  0  0  0  0
   12.6245   -4.8763   -1.2971 C   0  0  0  0  0  0  0  0  0  0  0  0
   11.4228   -4.7341   -0.6443 C   0  0  0  0  0  0  0  0  0  0  0  0
   11.2197   -5.6523    0.3878 C   0  0  0  0  0  0  0  0  0  0  0  0
   10.0952   -5.7845    1.3129 C   0  0  0  0  0  0  0  0  0  0  0  0
    9.2259   -4.7715    1.6426 C   0  0  0  0  0  0  0  0  0  0  0  0
    8.3343   -4.8353    2.7300 C   0  0  0  0  0  0  0  0  0  0  0  0
    7.6374   -4.8197    3.6441 N   0  0  0  0  0  0  0  0  0  0  0  0
    9.2324   -3.5076    1.0282 C   0  0  0  0  0  0  0  0  0  0  0  0
    9.2037   -2.4528    0.5722 N   0  0  0  0  0  0  0  0  0  0  0  0
   13.4732   -4.3004   -2.4034 C   0  0  0  0  0  0  0  0  0  0  0  0
   14.2057   -2.9785   -2.0904 C   0  0  0  0  0  0  0  0  0  0  0  0
   15.2999   -2.9161   -3.1313 C   0  0  0  0  0  0  0  0  0  0  0  0
   16.2050   -3.8352   -2.8206 C   0  0  0  0  0  0  0  0  0  0  0  0
   15.7378   -4.5340   -1.5641 C   0  0  0  0  0  0  0  0  0  0  0  0
   15.0343   -3.3671   -0.8592 C   0  0  0  0  0  0  0  0  0  0  0  0
   14.5385   -5.3827   -2.0366 C   0  0  0  0  0  0  0  0  0  0  0  0
   -8.8195   12.1429   -3.1928 H   0  0  0  0  0  0  0  0  0  0  0  0
   -2.8086   13.8545   -3.3084 H   0  0  0  0  0  0  0  0  0  0  0  0
   -6.6597   17.1252   -3.6665 H   0  0  0  0  0  0  0  0  0  0  0  0
   -3.8110   18.4795   -4.9996 H   0  0  0  0  0  0  0  0  0  0  0  0
   -4.2379   19.5616   -2.6033 H   0  0  0  0  0  0  0  0  0  0  0  0
   -2.1319   20.7139   -3.6721 H   0  0  0  0  0  0  0  0  0  0  0  0
   -0.0840   19.0323   -3.4834 H   0  0  0  0  0  0  0  0  0  0  0  0
   -0.9283   16.8451   -2.2977 H   0  0  0  0  0  0  0  0  0  0  0  0
   -2.4127   18.5786   -0.9572 H   0  0  0  0  0  0  0  0  0  0  0  0
   -3.4601   17.2438   -1.4896 H   0  0  0  0  0  0  0  0  0  0  0  0
   -1.8024   16.8311   -4.8148 H   0  0  0  0  0  0  0  0  0  0  0  0
   -5.7747   10.3691   -1.5626 H   0  0  0  0  0  0  0  0  0  0  0  0
   -3.9196    9.5218   -2.2470 H   0  0  0  0  0  0  0  0  0  0  0  0
   -1.7348    9.6814   -0.8973 H   0  0  0  0  0  0  0  0  0  0  0  0
   -0.4864    8.5224    1.1010 H   0  0  0  0  0  0  0  0  0  0  0  0
   -2.0860    6.1711    2.2453 H   0  0  0  0  0  0  0  0  0  0  0  0
   -0.8401    4.9482    4.1860 H   0  0  0  0  0  0  0  0  0  0  0  0
    1.4115    5.0193    5.4932 H   0  0  0  0  0  0  0  0  0  0  0  0
    5.1842    8.5274    4.2033 H   0  0  0  0  0  0  0  0  0  0  0  0
    3.6180    8.8788    3.4386 H   0  0  0  0  0  0  0  0  0  0  0  0
    5.4137    6.4706    2.8053 H   0  0  0  0  0  0  0  0  0  0  0  0
    5.2353    7.9006    1.7801 H   0  0  0  0  0  0  0  0  0  0  0  0
    3.8649    6.8157    2.0274 H   0  0  0  0  0  0  0  0  0  0  0  0
  -10.9482    7.8448   -2.9214 H   0  0  0  0  0  0  0  0  0  0  0  0
  -12.7133    6.6267   -4.3500 H   0  0  0  0  0  0  0  0  0  0  0  0
  -13.0152    4.7310   -5.8533 H   0  0  0  0  0  0  0  0  0  0  0  0
  -12.6976    2.7212   -6.8350 H   0  0  0  0  0  0  0  0  0  0  0  0
  -11.7366    0.6590   -7.5504 H   0  0  0  0  0  0  0  0  0  0  0  0
   -9.6624   -0.8744   -7.2707 H   0  0  0  0  0  0  0  0  0  0  0  0
   -7.1166    1.5950   -3.8579 H   0  0  0  0  0  0  0  0  0  0  0  0
   -6.3659    2.0392   -5.4090 H   0  0  0  0  0  0  0  0  0  0  0  0
   -4.5048    0.4311   -4.9651 H   0  0  0  0  0  0  0  0  0  0  0  0
   -5.2615   -0.0372   -3.4410 H   0  0  0  0  0  0  0  0  0  0  0  0
   -4.6279    1.6016   -3.6452 H   0  0  0  0  0  0  0  0  0  0  0  0
   -8.4775    3.8422   -2.5067 H   0  0  0  0  0  0  0  0  0  0  0  0
   -9.2666    3.0234   -0.3569 H   0  0  0  0  0  0  0  0  0  0  0  0
  -11.6263    3.1106   -1.0463 H   0  0  0  0  0  0  0  0  0  0  0  0
  -12.5267    1.4287   -2.6037 H   0  0  0  0  0  0  0  0  0  0  0  0
  -10.4671   -1.0967   -4.3328 H   0  0  0  0  0  0  0  0  0  0  0  0
  -12.0605   -0.3299   -4.2623 H   0  0  0  0  0  0  0  0  0  0  0  0
  -10.9216   -2.2629   -2.1824 H   0  0  0  0  0  0  0  0  0  0  0  0
  -12.5132   -1.5057   -2.0995 H   0  0  0  0  0  0  0  0  0  0  0  0
  -12.1504   -2.6582   -3.3893 H   0  0  0  0  0  0  0  0  0  0  0  0
   -8.6906   -0.4068   -2.8413 H   0  0  0  0  0  0  0  0  0  0  0  0
    2.0714   -9.0568    4.9435 H   0  0  0  0  0  0  0  0  0  0  0  0
    1.9248  -11.4337    5.5477 H   0  0  0  0  0  0  0  0  0  0  0  0
    0.5529  -12.9753    4.2032 H   0  0  0  0  0  0  0  0  0  0  0  0
   -0.6767  -13.4177    2.1735 H   0  0  0  0  0  0  0  0  0  0  0  0
   -0.8707  -12.1511    0.9531 H   0  0  0  0  0  0  0  0  0  0  0  0
   -3.0762  -12.8271    1.8685 H   0  0  0  0  0  0  0  0  0  0  0  0
   -2.5382  -12.4137    3.4998 H   0  0  0  0  0  0  0  0  0  0  0  0
   -2.7235  -11.1465    2.2881 H   0  0  0  0  0  0  0  0  0  0  0  0
   -0.4856   -9.7654    1.5993 H   0  0  0  0  0  0  0  0  0  0  0  0
   -3.0577    0.4110    0.6221 H   0  0  0  0  0  0  0  0  0  0  0  0
   -1.7318   -0.7269    0.4652 H   0  0  0  0  0  0  0  0  0  0  0  0
   -1.9390    0.0240    2.8238 H   0  0  0  0  0  0  0  0  0  0  0  0
   -3.6426   -0.4391    2.8500 H   0  0  0  0  0  0  0  0  0  0  0  0
   -2.3995   -1.6833    2.7570 H   0  0  0  0  0  0  0  0  0  0  0  0
   -0.5811   -2.0022    1.3322 H   0  0  0  0  0  0  0  0  0  0  0  0
    0.4650   -3.3989    1.1486 H   0  0  0  0  0  0  0  0  0  0  0  0
    0.3189   -2.0954   -0.9793 H   0  0  0  0  0  0  0  0  0  0  0  0
   -0.2534   -3.7548   -1.1640 H   0  0  0  0  0  0  0  0  0  0  0  0
   -1.4161   -2.4349   -1.0667 H   0  0  0  0  0  0  0  0  0  0  0  0
    5.0887   -4.5810    1.7011 H   0  0  0  0  0  0  0  0  0  0  0  0
    6.4513   -2.8639    0.6030 H   0  0  0  0  0  0  0  0  0  0  0  0
    6.4263   -1.7617   -2.2684 H   0  0  0  0  0  0  0  0  0  0  0  0
    7.8423   -2.2802   -1.3581 H   0  0  0  0  0  0  0  0  0  0  0  0
    7.4939   -2.9905   -2.9464 H   0  0  0  0  0  0  0  0  0  0  0  0
    5.8013   -4.7460   -3.1683 H   0  0  0  0  0  0  0  0  0  0  0  0
    4.4326   -6.4696   -2.0761 H   0  0  0  0  0  0  0  0  0  0  0  0
    2.1547   -5.2539   -0.9188 H   0  0  0  0  0  0  0  0  0  0  0  0
    0.0290   -6.1085   -1.8236 H   0  0  0  0  0  0  0  0  0  0  0  0
   -1.2639   -8.1354   -2.5633 H   0  0  0  0  0  0  0  0  0  0  0  0
   -1.7784   -8.3504   -0.8931 H   0  0  0  0  0  0  0  0  0  0  0  0
   -0.9902   -9.6802   -1.7431 H   0  0  0  0  0  0  0  0  0  0  0  0
    0.9682   -9.9980   -0.3536 H   0  0  0  0  0  0  0  0  0  0  0  0
    3.0554   -9.1457    0.5915 H   0  0  0  0  0  0  0  0  0  0  0  0
    6.6352  -10.0797    7.0487 H   0  0  0  0  0  0  0  0  0  0  0  0
    5.3202   -9.3343    8.9879 H   0  0  0  0  0  0  0  0  0  0  0  0
    3.3342   -6.7765    9.2269 H   0  0  0  0  0  0  0  0  0  0  0  0
    4.4638   -7.5359   10.3486 H   0  0  0  0  0  0  0  0  0  0  0  0
    4.6960   -5.8524    9.8517 H   0  0  0  0  0  0  0  0  0  0  0  0
    5.3025   -5.3545    7.4503 H   0  0  0  0  0  0  0  0  0  0  0  0
    6.6366   -6.0878    5.5216 H   0  0  0  0  0  0  0  0  0  0  0  0
    9.1863   -8.5115    7.0411 H   0  0  0  0  0  0  0  0  0  0  0  0
   11.0740  -10.0515    7.3624 H   0  0  0  0  0  0  0  0  0  0  0  0
   12.2018  -12.1122    6.7907 H   0  0  0  0  0  0  0  0  0  0  0  0
   12.6777  -11.7526    5.1304 H   0  0  0  0  0  0  0  0  0  0  0  0
   11.6105  -13.1154    5.4553 H   0  0  0  0  0  0  0  0  0  0  0  0
   10.0065  -12.1181    3.7869 H   0  0  0  0  0  0  0  0  0  0  0  0
    8.1080  -10.5904    3.4686 H   0  0  0  0  0  0  0  0  0  0  0  0
    9.8837   -8.5292    3.3960 H   0  0  0  0  0  0  0  0  0  0  0  0
   14.0919   -7.5434    0.3020 H   0  0  0  0  0  0  0  0  0  0  0  0
   10.6869   -3.9933   -0.9109 H   0  0  0  0  0  0  0  0  0  0  0  0
   13.0344   -4.3187   -3.3993 H   0  0  0  0  0  0  0  0  0  0  0  0
   13.5592   -2.1094   -2.0050 H   0  0  0  0  0  0  0  0  0  0  0  0
   15.2762   -2.2701   -3.9895 H   0  0  0  0  0  0  0  0  0  0  0  0
   17.0880   -4.1103   -3.3673 H   0  0  0  0  0  0  0  0  0  0  0  0
   16.4892   -5.0806   -1.0004 H   0  0  0  0  0  0  0  0  0  0  0  0
   15.7306   -2.5825   -0.5673 H   0  0  0  0  0  0  0  0  0  0  0  0
   14.4374   -3.6629    0.0013 H   0  0  0  0  0  0  0  0  0  0  0  0
   14.8101   -6.1216   -2.7886 H   0  0  0  0  0  0  0  0  0  0  0  0
  1  2  2  0  0  0  0
  2  3  1  0  0  0  0
  3  4  2  0  0  0  0
  3  5  1  0  0  0  0
  5  6  2  0  0  0  0
  6  7  1  0  0  0  0
  7  8  2  0  0  0  0
  8  9  1  0  0  0  0
  9 10  2  0  0  0  0
 10 11  1  0  0  0  0
 11 12  2  0  0  0  0
 12 13  1  0  0  0  0
 13 14  3  0  0  0  0
 12 15  1  0  0  0  0
 15 16  3  0  0  0  0
  8 17  1  0  0  0  0
 17 18  1  0  0  0  0
 18 19  1  0  0  0  0
 19 20  2  0  0  0  0
 20 21  1  0  0  0  0
 21 22  1  0  0  0  0
 21 23  1  0  0  0  0
  1 24  1  0  0  0  0
 24 25  2  0  0  0  0
 25 26  1  0  0  0  0
 26 27  2  0  0  0  0
 27 28  1  0  0  0  0
 28 29  2  0  0  0  0
 29 30  1  0  0  0  0
 30 31  2  0  0  0  0
 31 32  1  0  0  0  0
 32 33  2  0  0  0  0
 33 34  1  0  0  0  0
 34 35  2  0  0  0  0
 35 36  1  0  0  0  0
 36 37  2  0  0  0  0
 37 38  1  0  0  0  0
 38 39  1  0  0  0  0
 39 40  1  0  0  0  0
 37 41  1  0  0  0  0
 31 42  1  0  0  0  0
 27 43  1  0  0  0  0
 43 44  2  0  0  0  0
 44 45  1  0  0  0  0
 45 46  1  0  0  0  0
 46 47  2  0  0  0  0
 47 48  1  0  0  0  0
 48 49  2  0  0  0  0
 49 50  1  0  0  0  0
 50 51  2  0  0  0  0
 51 52  1  0  0  0  0
 52 53  2  0  0  0  0
 53 54  1  0  0  0  0
 54 55  2  0  0  0  0
 55 56  1  0  0  0  0
 56 57  1  0  0  0  0
 57 58  1  0  0  0  0
 55 59  1  0  0  0  0
 49 60  1  0  0  0  0
 45 61  2  0  0  0  0
 61 62  1  0  0  0  0
 44 63  1  0  0  0  0
 63 64  2  0  0  0  0
 64 65  1  0  0  0  0
 64 66  1  0  0  0  0
 66 67  2  0  0  0  0
 67 68  1  0  0  0  0
 68 69  2  0  0  0  0
 69 70  1  0  0  0  0
 70 71  2  0  0  0  0
 71 72  1  0  0  0  0
 72 73  1  0  0  0  0
 73 74  1  0  0  0  0
 72 75  2  0  0  0  0
 67 76  1  0  0  0  0
 76 77  1  0  0  0  0
 77 78  1  0  0  0  0
 78 79  1  0  0  0  0
 79 80  1  0  0  0  0
 80 81  1  0  0  0  0
 81 82  2  0  0  0  0
 82 83  1  0  0  0  0
 83 84  1  0  0  0  0
 81 85  1  0  0  0  0
 85 86  1  0  0  0  0
 86 87  1  0  0  0  0
 87 88  1  0  0  0  0
 88 89  1  0  0  0  0
 89 90  1  0  0  0  0
 90 91  2  0  0  0  0
 91 92  1  0  0  0  0
 92 93  2  0  0  0  0
 93 94  1  0  0  0  0
 94 95  1  0  0  0  0
 95 96  1  0  0  0  0
 94 97  2  0  0  0  0
 89 98  2  0  0  0  0
 98 99  1  0  0  0  0
 99100  1  0  0  0  0
100101  1  0  0  0  0
101102  1  0  0  0  0
102103  1  0  0  0  0
103104  1  0  0  0  0
104105  1  0  0  0  0
105106  1  0  0  0  0
106107  1  0  0  0  0
107108  1  0  0  0  0
105109  1  0  0  0  0
109110  1  0  0  0  0
102111  1  0  0  0  0
111112  1  0  0  0  0
 98113  1  0  0  0  0
113114  2  0  0  0  0
114115  1  0  0  0  0
115116  1  0  0  0  0
116117  2  0  0  0  0
117118  1  0  0  0  0
118119  2  0  0  0  0
119120  1  0  0  0  0
119121  1  0  0  0  0
121122  2  0  0  0  0
115123  1  0  0  0  0
123124  2  0  0  0  0
124125  1  0  0  0  0
125126  2  0  0  0  0
126127  1  0  0  0  0
126128  1  0  0  0  0
128129  2  0  0  0  0
114130  1  0  0  0  0
130131  1  0  0  0  0
131132  1  0  0  0  0
132133  2  0  0  0  0
133134  1  0  0  0  0
134135  1  0  0  0  0
135136  2  0  0  0  0
136137  1  0  0  0  0
137138  2  0  0  0  0
138139  1  0  0  0  0
138140  1  0  0  0  0
140141  2  0  0  0  0
134142  1  0  0  0  0
142143  2  0  0  0  0
143144  1  0  0  0  0
144145  2  0  0  0  0
145146  1  0  0  0  0
145147  1  0  0  0  0
147148  2  0  0  0  0
133149  1  0  0  0  0
149150  1  0  0  0  0
132151  1  0  0  0  0
151152  2  0  0  0  0
152153  1  0  0  0  0
153154  2  0  0  0  0
153155  1  0  0  0  0
155156  2  0  0  0  0
156157  1  0  0  0  0
157158  2  0  0  0  0
158159  1  0  0  0  0
159160  2  0  0  0  0
160161  1  0  0  0  0
161162  2  0  0  0  0
162163  1  0  0  0  0
163164  3  0  0  0  0
162165  1  0  0  0  0
165166  3  0  0  0  0
158167  1  0  0  0  0
167168  1  0  0  0  0
168169  1  0  0  0  0
169170  2  0  0  0  0
170171  1  0  0  0  0
171172  1  0  0  0  0
171173  1  0  0  0  0
 11  2  1  0  0  0  0
 23 17  1  0  0  0  0
 62 24  1  0  0  0  0
108 66  1  0  0  0  0
150113  1  0  0  0  0
161152  1  0  0  0  0
173167  1  0  0  0  0
 10  5  1  0  0  0  0
 22 18  1  0  0  0  0
 61 26  1  0  0  0  0
 75 68  1  0  0  0  0
107 76  2  0  0  0  0
122116  1  0  0  0  0
129123  1  0  0  0  0
149130  2  0  0  0  0
160155  1  0  0  0  0
172168  1  0  0  0  0
 23  7  1  0  0  0  0
 42 28  1  0  0  0  0
 65 43  1  0  0  0  0
106 78  2  0  0  0  0
141135  1  0  0  0  0
148142  1  0  0  0  0
173157  1  0  0  0  0
 41 34  1  0  0  0  0
 60 46  1  0  0  0  0
104 79  2  0  0  0  0
 59 52  1  0  0  0  0
 84 80  2  0  0  0  0
103 85  2  0  0  0  0
101 86  2  0  0  0  0
100 88  2  0  0  0  0
 97 90  1  0  0  0  0
  1174  1  0  0  0  0
  6175  1  0  0  0  0
  9176  1  0  0  0  0
 17177  1  0  0  0  0
 18178  1  0  0  0  0
 19179  1  0  0  0  0
 20180  1  0  0  0  0
 21181  1  0  0  0  0
 22182  1  0  0  0  0
 22183  1  0  0  0  0
 23184  1  0  0  0  0
 25185  1  0  0  0  0
 29186  1  0  0  0  0
 30187  1  0  0  0  0
 32188  1  0  0  0  0
 33189  1  0  0  0  0
 35190  1  0  0  0  0
 36191  1  0  0  0  0
 39192  1  0  0  0  0
 39193  1  0  0  0  0
 40194  1  0  0  0  0
 40195  1  0  0  0  0
 40196  1  0  0  0  0
 47197  1  0  0  0  0
 48198  1  0  0  0  0
 50199  1  0  0  0  0
 51200  1  0  0  0  0
 53201  1  0  0  0  0
 54202  1  0  0  0  0
 57203  1  0  0  0  0
 57204  1  0  0  0  0
 58205  1  0  0  0  0
 58206  1  0  0  0  0
 58207  1  0  0  0  0
 63208  1  0  0  0  0
 69209  1  0  0  0  0
 70210  1  0  0  0  0
 71211  1  0  0  0  0
 73212  1  0  0  0  0
 73213  1  0  0  0  0
 74214  1  0  0  0  0
 74215  1  0  0  0  0
 74216  1  0  0  0  0
 75217  1  0  0  0  0
 91218  1  0  0  0  0
 92219  1  0  0  0  0
 93220  1  0  0  0  0
 95221  1  0  0  0  0
 95222  1  0  0  0  0
 96223  1  0  0  0  0
 96224  1  0  0  0  0
 96225  1  0  0  0  0
 97226  1  0  0  0  0
109227  1  0  0  0  0
109228  1  0  0  0  0
110229  1  0  0  0  0
110230  1  0  0  0  0
110231  1  0  0  0  0
111232  1  0  0  0  0
111233  1  0  0  0  0
112234  1  0  0  0  0
112235  1  0  0  0  0
112236  1  0  0  0  0
117237  1  0  0  0  0
118238  1  0  0  0  0
120239  1  0  0  0  0
120240  1  0  0  0  0
120241  1  0  0  0  0
121242  1  0  0  0  0
122243  1  0  0  0  0
124244  1  0  0  0  0
125245  1  0  0  0  0
127246  1  0  0  0  0
127247  1  0  0  0  0
127248  1  0  0  0  0
128249  1  0  0  0  0
129250  1  0  0  0  0
136251  1  0  0  0  0
137252  1  0  0  0  0
139253  1  0  0  0  0
139254  1  0  0  0  0
139255  1  0  0  0  0
140256  1  0  0  0  0
141257  1  0  0  0  0
143258  1  0  0  0  0
144259  1  0  0  0  0
146260  1  0  0  0  0
146261  1  0  0  0  0
146262  1  0  0  0  0
147263  1  0  0  0  0
148264  1  0  0  0  0
151265  1  0  0  0  0
156266  1  0  0  0  0
159267  1  0  0  0  0
167268  1  0  0  0  0
168269  1  0  0  0  0
169270  1  0  0  0  0
170271  1  0  0  0  0
171272  1  0  0  0  0
172273  1  0  0  0  0
172274  1  0  0  0  0
173275  1  0  0  0  0
M  END
