
  xtb     02152207043D
 energy: -294.923437824275 gnorm: 0.000497722178 xtb: 6.4.1 (unknown)
180201  0     0  0            999 V2000
   -2.4483    1.1239  -10.9602 C   0  0  0  0  0  0  0  0  0  0  0  0
   -1.6131    1.2878  -12.0342 C   0  0  0  0  0  0  0  0  0  0  0  0
   -0.2990    0.6623  -12.2879 C   0  0  0  0  0  0  0  0  0  0  0  0
    0.2726   -0.2008  -11.6500 O   0  0  0  0  0  0  0  0  0  0  0  0
    0.2250    1.3029  -13.5095 C   0  0  0  0  0  0  0  0  0  0  0  0
    1.4585    1.0587  -14.1095 C   0  0  0  0  0  0  0  0  0  0  0  0
    1.6935    1.8146  -15.2322 C   0  0  0  0  0  0  0  0  0  0  0  0
    0.7673    2.7438  -15.7238 C   0  0  0  0  0  0  0  0  0  0  0  0
   -0.4553    2.9882  -15.1457 C   0  0  0  0  0  0  0  0  0  0  0  0
   -0.7143    2.2300  -13.9990 C   0  0  0  0  0  0  0  0  0  0  0  0
   -1.8812    2.2161  -13.1189 C   0  0  0  0  0  0  0  0  0  0  0  0
   -3.0245    2.9489  -13.3229 C   0  0  0  0  0  0  0  0  0  0  0  0
   -4.1843    2.9502  -12.5192 C   0  0  0  0  0  0  0  0  0  0  0  0
   -5.1758    3.0277  -11.9418 N   0  0  0  0  0  0  0  0  0  0  0  0
   -3.2257    3.8271  -14.4084 C   0  0  0  0  0  0  0  0  0  0  0  0
   -3.4687    4.5628  -15.2565 N   0  0  0  0  0  0  0  0  0  0  0  0
    1.6640    3.1543  -16.8655 C   0  0  0  0  0  0  0  0  0  0  0  0
    2.4107    4.4957  -16.7069 C   0  0  0  0  0  0  0  0  0  0  0  0
    3.5401    4.4015  -17.7071 C   0  0  0  0  0  0  0  0  0  0  0  0
    4.4171    3.5203  -17.2436 C   0  0  0  0  0  0  0  0  0  0  0  0
    3.8954    3.0045  -15.9219 C   0  0  0  0  0  0  0  0  0  0  0  0
    3.1910    4.2659  -15.4060 C   0  0  0  0  0  0  0  0  0  0  0  0
    2.6963    2.1170  -16.3182 C   0  0  0  0  0  0  0  0  0  0  0  0
   -2.3664    0.3266   -9.8049 C   0  0  0  0  0  0  0  0  0  0  0  0
   -1.4846   -0.6526   -9.3852 C   0  0  0  0  0  0  0  0  0  0  0  0
   -1.7194   -1.2046   -8.1241 C   0  0  0  0  0  0  0  0  0  0  0  0
   -0.7983   -2.2682   -7.6068 C   0  0  0  0  0  0  0  0  0  0  0  0
    0.4716   -1.6526   -7.0162 C   0  0  0  0  0  0  0  0  0  0  0  0
   -2.8294   -0.6907   -7.4494 C   0  0  0  0  0  0  0  0  0  0  0  0
   -3.7115    0.5952   -8.5038 Se  0  0  0  0  0  2  0  0  0  0  0  0
   -3.2805   -0.9599   -6.1248 C   0  0  0  0  0  0  0  0  0  0  0  0
   -4.5232   -0.6570   -5.5859 C   0  0  0  0  0  0  0  0  0  0  0  0
   -5.6326   -0.1045   -6.3795 C   0  0  0  0  0  0  0  0  0  0  0  0
   -6.4254   -0.9447   -7.1540 C   0  0  0  0  0  0  0  0  0  0  0  0
   -7.4280   -0.4055   -7.9391 C   0  0  0  0  0  0  0  0  0  0  0  0
   -7.6240    0.9638   -7.9769 C   0  0  0  0  0  0  0  0  0  0  0  0
   -6.8458    1.8146   -7.2027 C   0  0  0  0  0  0  0  0  0  0  0  0
   -6.9801    3.3034   -7.3220 C   0  0  0  0  0  0  0  0  0  0  0  0
   -5.9939    3.8148   -8.3756 C   0  0  0  0  0  0  0  0  0  0  0  0
   -5.8650    1.2674   -6.3861 C   0  0  0  0  0  0  0  0  0  0  0  0
   -4.5934   -0.9416   -4.2163 C   0  0  0  0  0  0  0  0  0  0  0  0
   -5.8574   -0.7431   -3.0251 S   0  0  0  0  0  0  0  0  0  0  0  0
   -4.7716   -1.3367   -1.8117 C   0  0  0  0  0  0  0  0  0  0  0  0
   -4.7444   -1.5698   -0.4245 C   0  0  0  0  0  0  0  0  0  0  0  0
   -5.7390   -1.4875    0.5749 C   0  0  0  0  0  0  0  0  0  0  0  0
   -5.3971   -1.8262    1.9303 C   0  0  0  0  0  0  0  0  0  0  0  0
   -6.4354   -1.7457    2.7471 N   0  0  0  0  0  0  0  0  0  0  0  0
   -7.7293   -1.2820    1.8909 S   0  0  0  0  0  0  0  0  0  0  0  0
   -7.0152   -1.1630    0.4428 N   0  0  0  0  0  0  0  0  0  0  0  0
   -4.0486   -2.1022    2.2491 C   0  0  0  0  0  0  0  0  0  0  0  0
   -3.3828   -2.2136    3.4816 C   0  0  0  0  0  0  0  0  0  0  0  0
   -3.7458   -2.1758    5.1735 S   0  0  0  0  0  0  0  0  0  0  0  0
   -2.0332   -2.1720    5.5245 C   0  0  0  0  0  0  0  0  0  0  0  0
   -1.2976   -2.1201    6.7325 C   0  0  0  0  0  0  0  0  0  0  0  0
   -1.9078   -2.1648    8.0591 C   0  0  0  0  0  0  0  0  0  0  0  0
   -1.3197   -2.8943    9.0904 C   0  0  0  0  0  0  0  0  0  0  0  0
   -1.9205   -2.9413   10.3328 C   0  0  0  0  0  0  0  0  0  0  0  0
   -3.1151   -2.2784   10.5588 C   0  0  0  0  0  0  0  0  0  0  0  0
   -3.7216   -1.5557    9.5400 C   0  0  0  0  0  0  0  0  0  0  0  0
   -5.0447   -0.8768    9.7506 C   0  0  0  0  0  0  0  0  0  0  0  0
   -6.1804   -1.7662    9.2408 C   0  0  0  0  0  0  0  0  0  0  0  0
   -3.1089   -1.5062    8.2966 C   0  0  0  0  0  0  0  0  0  0  0  0
    0.0582   -2.1088    6.4888 C   0  0  0  0  0  0  0  0  0  0  0  0
    0.4368   -2.2179    4.7787 S   0  0  0  0  0  0  0  0  0  0  0  0
   -1.2433   -2.2280    4.3773 C   0  0  0  0  0  0  0  0  0  0  0  0
   -2.0142   -2.2591    3.2062 C   0  0  0  0  0  0  0  0  0  0  0  0
   -1.8083   -2.2233    1.8526 N   0  0  0  0  0  0  0  0  0  0  0  0
   -3.0458   -2.1346    1.2425 C   0  0  0  0  0  0  0  0  0  0  0  0
   -3.4286   -2.0072   -0.1147 C   0  0  0  0  0  0  0  0  0  0  0  0
   -2.6981   -2.1075   -1.2878 N   0  0  0  0  0  0  0  0  0  0  0  0
   -3.5111   -1.6807   -2.3086 C   0  0  0  0  0  0  0  0  0  0  0  0
   -3.4085   -1.4597   -3.6846 C   0  0  0  0  0  0  0  0  0  0  0  0
   -2.1956   -1.6196   -4.8986 S   0  0  0  0  0  0  0  0  0  0  0  0
   -1.6225   -3.0315   -1.5780 C   0  0  0  0  0  0  0  0  0  0  0  0
   -2.1429   -4.2912   -2.2707 C   0  0  0  0  0  0  0  0  0  0  0  0
   -0.4950   -1.9344    1.3219 C   0  0  0  0  0  0  0  0  0  0  0  0
    0.4283   -3.1515    1.3745 C   0  0  0  0  0  0  0  0  0  0  0  0
    1.1741   -1.9393    7.3959 C   0  0  0  0  0  0  0  0  0  0  0  0
    2.3312   -2.6901    7.2012 C   0  0  0  0  0  0  0  0  0  0  0  0
    3.4555   -2.5178    7.9903 C   0  0  0  0  0  0  0  0  0  0  0  0
    4.6256   -3.1835    7.8268 O   0  0  0  0  0  0  0  0  0  0  0  0
    4.6620   -4.3864    7.0810 C   0  0  0  0  0  0  0  0  0  0  0  0
    3.9537   -5.5295    7.7990 C   0  0  0  0  0  0  0  0  0  0  0  0
    3.4320   -1.5314    9.0104 C   0  0  0  0  0  0  0  0  0  0  0  0
    2.2612   -0.7928    9.2109 C   0  0  0  0  0  0  0  0  0  0  0  0
    1.1410   -0.9663    8.4212 C   0  0  0  0  0  0  0  0  0  0  0  0
    0.0097   -0.2316    8.5280 O   0  0  0  0  0  0  0  0  0  0  0  0
   -0.0559    0.7814    9.5170 C   0  0  0  0  0  0  0  0  0  0  0  0
   -1.3883    1.4943    9.3535 C   0  0  0  0  0  0  0  0  0  0  0  0
    4.6077   -1.3922    9.8119 C   0  0  0  0  0  0  0  0  0  0  0  0
    5.0819   -0.3541   10.5545 C   0  0  0  0  0  0  0  0  0  0  0  0
    4.6468    1.0652   10.5684 C   0  0  0  0  0  0  0  0  0  0  0  0
    3.6114    1.5537   10.1638 O   0  0  0  0  0  0  0  0  0  0  0  0
    5.7689    1.8181   11.1625 C   0  0  0  0  0  0  0  0  0  0  0  0
    5.8684    3.2028   11.2791 C   0  0  0  0  0  0  0  0  0  0  0  0
    7.0398    3.6334   11.8529 C   0  0  0  0  0  0  0  0  0  0  0  0
    8.0449    2.7524   12.2757 C   0  0  0  0  0  0  0  0  0  0  0  0
    7.9587    1.3851   12.1695 C   0  0  0  0  0  0  0  0  0  0  0  0
    6.7700    0.9260   11.5938 C   0  0  0  0  0  0  0  0  0  0  0  0
    6.3252   -0.4327   11.3104 C   0  0  0  0  0  0  0  0  0  0  0  0
    6.9284   -1.5811   11.7496 C   0  0  0  0  0  0  0  0  0  0  0  0
    8.1177   -1.6127   12.5074 C   0  0  0  0  0  0  0  0  0  0  0  0
    9.0817   -1.7092   13.1237 N   0  0  0  0  0  0  0  0  0  0  0  0
    6.4289   -2.8887   11.5623 C   0  0  0  0  0  0  0  0  0  0  0  0
    6.0912   -3.9839   11.4839 N   0  0  0  0  0  0  0  0  0  0  0  0
    8.9391    3.8725   12.7456 C   0  0  0  0  0  0  0  0  0  0  0  0
    9.0197    4.1411   14.2685 C   0  0  0  0  0  0  0  0  0  0  0  0
    7.7168    3.6600   14.8574 C   0  0  0  0  0  0  0  0  0  0  0  0
    6.7625    4.4917   14.4619 C   0  0  0  0  0  0  0  0  0  0  0  0
    7.4029    5.5506   13.5988 C   0  0  0  0  0  0  0  0  0  0  0  0
    8.7774    5.6589   14.2779 C   0  0  0  0  0  0  0  0  0  0  0  0
    7.8173    4.8532   12.2794 C   0  0  0  0  0  0  0  0  0  0  0  0
   -3.3366    1.7489  -10.9646 H   0  0  0  0  0  0  0  0  0  0  0  0
    2.1402    0.3319  -13.6959 H   0  0  0  0  0  0  0  0  0  0  0  0
   -1.1549    3.7054  -15.5403 H   0  0  0  0  0  0  0  0  0  0  0  0
    1.2581    3.0087  -17.8647 H   0  0  0  0  0  0  0  0  0  0  0  0
    1.7786    5.3777  -16.7633 H   0  0  0  0  0  0  0  0  0  0  0  0
    3.5566    4.9260  -18.6445 H   0  0  0  0  0  0  0  0  0  0  0  0
    5.3125    3.1614  -17.7165 H   0  0  0  0  0  0  0  0  0  0  0  0
    4.6170    2.5284  -15.2632 H   0  0  0  0  0  0  0  0  0  0  0  0
    2.5611    4.0975  -14.5345 H   0  0  0  0  0  0  0  0  0  0  0  0
    3.8918    5.0730  -15.1983 H   0  0  0  0  0  0  0  0  0  0  0  0
    2.9783    1.2787  -16.9528 H   0  0  0  0  0  0  0  0  0  0  0  0
   -0.6602   -0.9687  -10.0005 H   0  0  0  0  0  0  0  0  0  0  0  0
   -0.5195   -2.9136   -8.4427 H   0  0  0  0  0  0  0  0  0  0  0  0
   -1.2957   -2.8853   -6.8578 H   0  0  0  0  0  0  0  0  0  0  0  0
    0.2293   -0.9918   -6.1871 H   0  0  0  0  0  0  0  0  0  0  0  0
    1.1342   -2.4343   -6.6532 H   0  0  0  0  0  0  0  0  0  0  0  0
    0.9943   -1.0759   -7.7754 H   0  0  0  0  0  0  0  0  0  0  0  0
   -6.2516   -2.0109   -7.1368 H   0  0  0  0  0  0  0  0  0  0  0  0
   -8.0478   -1.0561   -8.5384 H   0  0  0  0  0  0  0  0  0  0  0  0
   -8.3865    1.3794   -8.6191 H   0  0  0  0  0  0  0  0  0  0  0  0
   -7.9965    3.5682   -7.6176 H   0  0  0  0  0  0  0  0  0  0  0  0
   -6.7649    3.7776   -6.3622 H   0  0  0  0  0  0  0  0  0  0  0  0
   -6.2050    3.3720   -9.3462 H   0  0  0  0  0  0  0  0  0  0  0  0
   -4.9745    3.5476   -8.0970 H   0  0  0  0  0  0  0  0  0  0  0  0
   -6.0580    4.8964   -8.4661 H   0  0  0  0  0  0  0  0  0  0  0  0
   -5.2594    1.9111   -5.7625 H   0  0  0  0  0  0  0  0  0  0  0  0
   -0.3979   -3.4285    8.9132 H   0  0  0  0  0  0  0  0  0  0  0  0
   -1.4579   -3.5042   11.1306 H   0  0  0  0  0  0  0  0  0  0  0  0
   -3.5803   -2.3236   11.5332 H   0  0  0  0  0  0  0  0  0  0  0  0
   -5.0648    0.0726    9.2107 H   0  0  0  0  0  0  0  0  0  0  0  0
   -5.1935   -0.6705   10.8124 H   0  0  0  0  0  0  0  0  0  0  0  0
   -6.0530   -1.9702    8.1801 H   0  0  0  0  0  0  0  0  0  0  0  0
   -7.1413   -1.2791    9.3891 H   0  0  0  0  0  0  0  0  0  0  0  0
   -6.1853   -2.7146    9.7737 H   0  0  0  0  0  0  0  0  0  0  0  0
   -3.5640   -0.9263    7.5075 H   0  0  0  0  0  0  0  0  0  0  0  0
   -1.1460   -3.3243   -0.6490 H   0  0  0  0  0  0  0  0  0  0  0  0
   -0.8942   -2.5283   -2.2226 H   0  0  0  0  0  0  0  0  0  0  0  0
   -2.5820   -4.0541   -3.2355 H   0  0  0  0  0  0  0  0  0  0  0  0
   -2.8979   -4.7743   -1.6538 H   0  0  0  0  0  0  0  0  0  0  0  0
   -1.3217   -4.9853   -2.4275 H   0  0  0  0  0  0  0  0  0  0  0  0
   -0.0541   -1.1410    1.9368 H   0  0  0  0  0  0  0  0  0  0  0  0
   -0.5984   -1.5478    0.3078 H   0  0  0  0  0  0  0  0  0  0  0  0
   -0.0191   -4.0191    0.8944 H   0  0  0  0  0  0  0  0  0  0  0  0
    0.6395   -3.4134    2.4075 H   0  0  0  0  0  0  0  0  0  0  0  0
    1.3670   -2.9211    0.8788 H   0  0  0  0  0  0  0  0  0  0  0  0
    2.3237   -3.4178    6.4039 H   0  0  0  0  0  0  0  0  0  0  0  0
    4.2537   -4.2353    6.0744 H   0  0  0  0  0  0  0  0  0  0  0  0
    5.7289   -4.6060    6.9897 H   0  0  0  0  0  0  0  0  0  0  0  0
    4.0826   -6.4512    7.2389 H   0  0  0  0  0  0  0  0  0  0  0  0
    4.3784   -5.6549    8.7920 H   0  0  0  0  0  0  0  0  0  0  0  0
    2.8906   -5.3235    7.9012 H   0  0  0  0  0  0  0  0  0  0  0  0
    2.2566   -0.0641   10.0000 H   0  0  0  0  0  0  0  0  0  0  0  0
    0.7761    1.4858    9.3911 H   0  0  0  0  0  0  0  0  0  0  0  0
    0.0107    0.3287   10.5154 H   0  0  0  0  0  0  0  0  0  0  0  0
   -1.4685    2.2940   10.0841 H   0  0  0  0  0  0  0  0  0  0  0  0
   -2.2037    0.7909    9.4976 H   0  0  0  0  0  0  0  0  0  0  0  0
   -1.4634    1.9145    8.3543 H   0  0  0  0  0  0  0  0  0  0  0  0
    5.2513   -2.2626    9.7511 H   0  0  0  0  0  0  0  0  0  0  0  0
    5.0745    3.8463   10.9329 H   0  0  0  0  0  0  0  0  0  0  0  0
    8.7429    0.7195   12.4899 H   0  0  0  0  0  0  0  0  0  0  0  0
    9.9104    3.9416   12.2598 H   0  0  0  0  0  0  0  0  0  0  0  0
    9.9256    3.7750   14.7440 H   0  0  0  0  0  0  0  0  0  0  0  0
    7.6175    2.7596   15.4347 H   0  0  0  0  0  0  0  0  0  0  0  0
    5.7056    4.4252   14.6430 H   0  0  0  0  0  0  0  0  0  0  0  0
    6.8365    6.4687   13.4653 H   0  0  0  0  0  0  0  0  0  0  0  0
    9.5070    6.2185   13.6939 H   0  0  0  0  0  0  0  0  0  0  0  0
    8.7187    6.0699   15.2845 H   0  0  0  0  0  0  0  0  0  0  0  0
    8.0573    5.5654   11.4920 H   0  0  0  0  0  0  0  0  0  0  0  0
  1  2  2  0  0  0  0
  2  3  1  0  0  0  0
  3  4  2  0  0  0  0
  3  5  1  0  0  0  0
  5  6  2  0  0  0  0
  6  7  1  0  0  0  0
  7  8  2  0  0  0  0
  8  9  1  0  0  0  0
  9 10  2  0  0  0  0
 10 11  1  0  0  0  0
 11 12  2  0  0  0  0
 12 13  1  0  0  0  0
 13 14  3  0  0  0  0
 12 15  1  0  0  0  0
 15 16  3  0  0  0  0
  8 17  1  0  0  0  0
 17 18  1  0  0  0  0
 18 19  1  0  0  0  0
 19 20  2  0  0  0  0
 20 21  1  0  0  0  0
 21 22  1  0  0  0  0
 21 23  1  0  0  0  0
  1 24  1  0  0  0  0
 24 25  2  0  0  0  0
 25 26  1  0  0  0  0
 26 27  1  0  0  0  0
 27 28  1  0  0  0  0
 26 29  2  0  0  0  0
 29 30  1  0  0  0  0
 29 31  1  0  0  0  0
 31 32  2  0  0  0  0
 32 33  1  0  0  0  0
 33 34  2  0  0  0  0
 34 35  1  0  0  0  0
 35 36  2  0  0  0  0
 36 37  1  0  0  0  0
 37 38  1  0  0  0  0
 38 39  1  0  0  0  0
 37 40  2  0  0  0  0
 32 41  1  0  0  0  0
 41 42  1  0  0  0  0
 42 43  1  0  0  0  0
 43 44  1  0  0  0  0
 44 45  1  0  0  0  0
 45 46  1  0  0  0  0
 46 47  2  0  0  0  0
 47 48  1  0  0  0  0
 48 49  1  0  0  0  0
 46 50  1  0  0  0  0
 50 51  1  0  0  0  0
 51 52  1  0  0  0  0
 52 53  1  0  0  0  0
 53 54  1  0  0  0  0
 54 55  1  0  0  0  0
 55 56  2  0  0  0  0
 56 57  1  0  0  0  0
 57 58  2  0  0  0  0
 58 59  1  0  0  0  0
 59 60  1  0  0  0  0
 60 61  1  0  0  0  0
 59 62  2  0  0  0  0
 54 63  2  0  0  0  0
 63 64  1  0  0  0  0
 64 65  1  0  0  0  0
 65 66  1  0  0  0  0
 66 67  1  0  0  0  0
 67 68  1  0  0  0  0
 68 69  1  0  0  0  0
 69 70  1  0  0  0  0
 70 71  1  0  0  0  0
 71 72  1  0  0  0  0
 72 73  1  0  0  0  0
 70 74  1  0  0  0  0
 74 75  1  0  0  0  0
 67 76  1  0  0  0  0
 76 77  1  0  0  0  0
 63 78  1  0  0  0  0
 78 79  2  0  0  0  0
 79 80  1  0  0  0  0
 80 81  1  0  0  0  0
 81 82  1  0  0  0  0
 82 83  1  0  0  0  0
 80 84  2  0  0  0  0
 84 85  1  0  0  0  0
 85 86  2  0  0  0  0
 86 87  1  0  0  0  0
 87 88  1  0  0  0  0
 88 89  1  0  0  0  0
 84 90  1  0  0  0  0
 90 91  2  0  0  0  0
 91 92  1  0  0  0  0
 92 93  2  0  0  0  0
 92 94  1  0  0  0  0
 94 95  2  0  0  0  0
 95 96  1  0  0  0  0
 96 97  2  0  0  0  0
 97 98  1  0  0  0  0
 98 99  2  0  0  0  0
 99100  1  0  0  0  0
100101  2  0  0  0  0
101102  1  0  0  0  0
102103  3  0  0  0  0
101104  1  0  0  0  0
104105  3  0  0  0  0
 97106  1  0  0  0  0
106107  1  0  0  0  0
107108  1  0  0  0  0
108109  2  0  0  0  0
109110  1  0  0  0  0
110111  1  0  0  0  0
110112  1  0  0  0  0
 11  2  1  0  0  0  0
 23 17  1  0  0  0  0
 30 24  1  0  0  0  0
 73 31  1  0  0  0  0
 86 78  1  0  0  0  0
100 91  1  0  0  0  0
112106  1  0  0  0  0
 10  5  1  0  0  0  0
 22 18  1  0  0  0  0
 40 33  1  0  0  0  0
 72 41  2  0  0  0  0
 99 94  1  0  0  0  0
111107  1  0  0  0  0
 23  7  1  0  0  0  0
 71 43  2  0  0  0  0
112 96  1  0  0  0  0
 69 44  2  0  0  0  0
 49 45  2  0  0  0  0
 68 50  2  0  0  0  0
 66 51  2  0  0  0  0
 65 53  2  0  0  0  0
 62 55  1  0  0  0  0
  1113  1  0  0  0  0
  6114  1  0  0  0  0
  9115  1  0  0  0  0
 17116  1  0  0  0  0
 18117  1  0  0  0  0
 19118  1  0  0  0  0
 20119  1  0  0  0  0
 21120  1  0  0  0  0
 22121  1  0  0  0  0
 22122  1  0  0  0  0
 23123  1  0  0  0  0
 25124  1  0  0  0  0
 27125  1  0  0  0  0
 27126  1  0  0  0  0
 28127  1  0  0  0  0
 28128  1  0  0  0  0
 28129  1  0  0  0  0
 34130  1  0  0  0  0
 35131  1  0  0  0  0
 36132  1  0  0  0  0
 38133  1  0  0  0  0
 38134  1  0  0  0  0
 39135  1  0  0  0  0
 39136  1  0  0  0  0
 39137  1  0  0  0  0
 40138  1  0  0  0  0
 56139  1  0  0  0  0
 57140  1  0  0  0  0
 58141  1  0  0  0  0
 60142  1  0  0  0  0
 60143  1  0  0  0  0
 61144  1  0  0  0  0
 61145  1  0  0  0  0
 61146  1  0  0  0  0
 62147  1  0  0  0  0
 74148  1  0  0  0  0
 74149  1  0  0  0  0
 75150  1  0  0  0  0
 75151  1  0  0  0  0
 75152  1  0  0  0  0
 76153  1  0  0  0  0
 76154  1  0  0  0  0
 77155  1  0  0  0  0
 77156  1  0  0  0  0
 77157  1  0  0  0  0
 79158  1  0  0  0  0
 82159  1  0  0  0  0
 82160  1  0  0  0  0
 83161  1  0  0  0  0
 83162  1  0  0  0  0
 83163  1  0  0  0  0
 85164  1  0  0  0  0
 88165  1  0  0  0  0
 88166  1  0  0  0  0
 89167  1  0  0  0  0
 89168  1  0  0  0  0
 89169  1  0  0  0  0
 90170  1  0  0  0  0
 95171  1  0  0  0  0
 98172  1  0  0  0  0
106173  1  0  0  0  0
107174  1  0  0  0  0
108175  1  0  0  0  0
109176  1  0  0  0  0
110177  1  0  0  0  0
111178  1  0  0  0  0
111179  1  0  0  0  0
112180  1  0  0  0  0
M  END
