170

C          0.24040        6.59910        7.65500
C          1.52230        6.86590        7.23690
C          2.29180        6.04090        6.31470
O          1.96070        4.96360        5.83130
C          3.55460        6.74920        6.06200
C          4.58770        6.35520        5.21440
C          5.63710        7.24130        5.16510
C          5.65950        8.42860        5.90800
C          4.65000        8.82440        6.75440
C          3.56920        7.94050        6.81650
C          2.32230        8.02450        7.57960
C          1.99960        9.02510        8.46000
C          0.80930        9.10640        9.21250
N         -0.12350        9.25010        9.86790
C          2.82490       10.13090        8.75260
N          3.43930       11.05660        9.04300
C          7.00240        8.84150        5.35840
C          6.99200        9.92930        4.26330
C          8.33920        9.78140        3.59360
C          8.31890        8.65640        2.89030
C          6.95750        8.02500        3.07300
C          6.09560        9.28820        3.19600
C          6.97770        7.51680        4.53040
C         -0.61440        5.53750        7.32850
C         -1.93210        5.50500        7.79150
C         -2.74060        4.44600        7.39290
C         -4.20370        4.42500        7.72020
C         -5.06680        4.52180        6.46190
C         -2.07040        3.52640        6.58570
Se        -0.29270        4.03080        6.24360
C         -2.55110        2.34930        5.93910
C         -3.44860        1.36740        6.32180
C         -4.01870        1.20980        7.65800
C         -3.22100        1.39480        8.78660
C         -3.75360        1.19630       10.04560
C         -5.07710        0.81700       10.19200
C         -5.88410        0.62110        9.07800
C         -7.33320        0.26050        9.23110
C         -8.19120        1.52690        9.26820
C         -5.34340        0.81550        7.81600
C         -3.63640        0.41810        5.29340
S         -4.64040       -1.00800        5.15990
C         -3.98260       -1.30470        3.58550
C         -4.07880       -2.24790        2.54450
C         -4.75760       -3.48060        2.41120
C         -4.51560       -4.29740        1.24820
N         -5.16270       -5.45070        1.30140
S         -6.00910       -5.50600        2.68000
N         -5.58120       -4.06080        3.26950
C         -3.70950       -3.79180        0.20290
C         -3.36730       -4.27180       -1.07540
S         -3.57350       -5.69120       -2.04720
C         -2.64920       -4.92710       -3.32030
C         -2.24760       -5.35890       -4.59600
C         -2.65100       -6.65810       -5.14770
C         -3.40270       -6.72860       -6.31810
C         -3.78710       -7.95960       -6.81510
C         -3.42770       -9.12200       -6.15400
C         -2.69600       -9.06770       -4.97490
C         -2.27270      -10.32360       -4.27010
C         -0.86640      -10.73550       -4.71060
C         -2.31790       -7.82810       -4.47780
C         -1.46250       -4.40360       -5.22660
S         -1.27550       -2.94590       -4.25990
C         -2.22200       -3.63690       -2.99400
C         -2.64120       -3.26040       -1.71460
N         -2.51380       -2.17160       -0.88760
C         -3.13180       -2.49990        0.30460
C         -3.19350       -1.80370        1.52920
N         -2.53720       -0.66130        1.95110
C         -3.03350       -0.35530        3.19420
C         -2.84340        0.63310        4.16560
S         -1.88130        2.05620        4.33660
C         -1.19080       -0.26220        1.58880
C         -0.16900       -0.76070        2.61040
C         -2.37660       -0.83950       -1.44420
C         -3.48780       -0.54020       -2.45000
C         -0.72470       -4.48420       -6.43750
C         -0.63530       -5.55420       -7.31010
C          0.23340       -5.31580       -8.36770
S          0.58290       -6.43220       -9.66420
C         -0.64090       -7.77030       -9.41980
C         -0.19600       -8.80780       -8.40620
C          0.85410       -4.04980       -8.31650
S          0.30060       -3.16560       -6.91230
C          1.77590       -3.61670       -9.26960
C          2.51420       -2.45770       -9.32560
C          2.50340       -1.39050       -8.32490
O          1.79590       -1.30310       -7.33360
C          3.53030       -0.41970       -8.73970
C          3.89950        0.74610       -8.07290
C          4.90590        1.44770       -8.69160
C          5.49740        1.02270       -9.88790
C          5.13650       -0.12210      -10.55900
C          4.11660       -0.85460       -9.94440
C          3.47890       -2.11040      -10.34590
C          3.75390       -2.80100      -11.49970
C          4.71210       -2.40720      -12.45590
N          5.47420       -2.15580      -13.27790
C          3.12700       -3.99120      -11.92430
N          2.66790       -4.94740      -12.36620
C          6.44410        2.19700       -9.93040
C          7.90340        1.92150       -9.51080
C          8.45240        3.29240       -9.18810
C          7.89210        3.69490       -8.05460
C          6.95470        2.60280       -7.59250
C          7.71990        1.37000       -8.09090
C          5.78390        2.67100       -8.59600
H         -0.21370        7.32200        8.32360
H          4.52910        5.43070        4.66190
H          4.68670        9.74020        7.31990
H          7.79350        8.98370        6.09200
H          6.72480       10.92310        4.61180
H          9.15950       10.45920        3.74000
H          9.11890        8.20660        2.33200
H          6.65890        7.28410        2.33610
H          5.07600        9.09960        3.52700
H          6.07770        9.86550        2.27300
H          7.75250        6.77440        4.71220
H         -2.30960        6.30060        8.41500
H         -4.42240        5.27520        8.36920
H         -4.46150        3.51550        8.26350
H         -4.82040        5.42050        5.90020
H         -4.91190        3.65950        5.81880
H         -6.11820        4.56150        6.73570
H         -2.18650        1.68250        8.66930
H         -3.13270        1.33630       10.91800
H         -5.48660        0.66530       11.18020
H         -7.48010       -0.30200       10.15490
H         -7.64850       -0.36520        8.39420
H         -7.89530        2.16060       10.10150
H         -8.06890        2.09350        8.34760
H         -9.24200        1.27180        9.38200
H         -5.96360        0.67400        6.94300
H         -3.68230       -5.81770       -6.82730
H         -4.37150       -8.01390       -7.72220
H         -3.72830      -10.08060       -6.55180
H         -2.27810      -10.15900       -3.19110
H         -2.97240      -11.12990       -4.49690
H         -0.15200       -9.94680       -4.48540
H         -0.84260      -10.92250       -5.78210
H         -0.55680      -11.64080       -4.19420
H         -1.74740       -7.76910       -3.56220
H         -1.15370        0.83030        1.52960
H         -0.94040       -0.69000        0.62040
H         -0.22920       -1.84310        2.70340
H          0.83100       -0.49250        2.28180
H         -0.33970       -0.31620        3.58660
H         -1.40180       -0.76060       -1.93660
H         -2.44180       -0.11150       -0.63760
H         -3.39230        0.48420       -2.79910
H         -4.46190       -0.66120       -1.98070
H         -3.42790       -1.20260       -3.30860
H         -1.17580       -6.46700       -7.16040
H         -1.59120       -7.31100       -9.15280
H         -0.73030       -8.21750      -10.41000
H         -0.04320       -8.36640       -7.42410
H         -0.95780       -9.58040       -8.32040
H          0.73640       -9.26860       -8.72370
H          1.93270       -4.33630      -10.06540
H          3.41350        1.03630       -7.15450
H          5.60140       -0.43110      -11.47990
H          6.36690        2.83830      -10.80640
H          8.47280        1.31880      -10.21310
H          9.12680        3.83400       -9.82520
H          8.00470        4.63990       -7.55600
H          6.66030        2.62080       -6.54650
H          8.66950        1.23820       -7.57460
H          7.14890        0.44460       -8.04480
H          5.26680        3.62880       -8.58260
