201

C         -0.68070       -1.45200      -12.71910
C          0.36140       -2.23280      -13.13240
C          1.52140       -2.73020      -12.35420
O          1.79040       -2.55070      -11.18250
C          2.33690       -3.51500      -13.29530
C          3.52520       -4.18100      -12.99930
C          4.07380       -4.84590      -14.06820
C          3.48180       -4.84940      -15.33900
C          2.31050       -4.19790      -15.64260
C          1.73480       -3.51060      -14.56790
C          0.50810       -2.72100      -14.49860
C         -0.34050       -2.50340      -15.55320
C         -1.54670       -1.76940      -15.53910
N         -2.54070       -1.20230      -15.64550
C         -0.13430       -2.99940      -16.85910
N         -0.04210       -3.35850      -17.94580
C          4.56950       -5.71110      -15.93060
C          5.62240       -4.99270      -16.80080
C          6.78530       -5.95820      -16.83180
C          7.34580       -5.95380      -15.62910
C          6.57100       -4.98540      -14.76470
C          6.17360       -3.94760      -15.82220
C          5.22930       -5.70640      -14.51420
C         -1.00490       -0.90510      -11.45740
C         -0.40420       -0.98310      -10.22580
C         -1.08520       -0.28260       -9.21380
C         -0.71330       -0.16760       -7.85400
C          0.54010       -0.71250       -7.38170
C          1.75440       -0.68780       -8.01310
C          2.77730       -1.30510       -7.26920
Cl         4.40160       -1.35060       -7.82390
C          2.35100       -1.83000       -6.07700
S          3.24420       -2.67810       -4.83650
C          3.96800       -4.06080       -5.80050
C          2.90150       -4.91180       -6.45810
S          0.65620       -1.53220       -5.85000
C         -1.61330        0.48320       -7.02350
C         -2.82160        1.07090       -7.48190
C         -3.15540        1.02460       -8.85340
C         -4.33520        1.68280       -9.36680
S         -5.25230        0.96110      -10.66470
C         -6.34220        2.30830      -10.72000
S         -7.69440        2.42130      -11.81010
C         -7.24520        1.17930      -13.07480
C         -6.09650        1.63540      -13.95130
C         -6.00870        3.23200       -9.76210
C         -4.88180        2.88190       -8.99640
Cl        -6.88880        4.68780       -9.55420
C         -2.28440        0.31830       -9.68020
S         -2.48100        0.05920      -11.38600
C         -3.57440        1.62400       -6.42100
C         -2.96520        1.51600       -5.20120
S         -1.41530        0.70530       -5.30970
C         -3.43990        1.91810       -3.92080
C         -4.47700        2.77400       -3.59470
C         -5.22900        3.61980       -4.52610
C         -6.61880        3.62960       -4.49660
C         -7.31760        4.47440       -5.33990
C         -6.64060        5.32320       -6.19580
C         -5.25010        5.33310       -6.23070
C         -4.51940        6.29820       -7.11990
C         -4.44850        7.67780       -6.46300
C         -4.55510        4.47430       -5.39430
C         -4.67920        2.81810       -2.20170
S         -5.79870        3.71080       -1.19990
C         -5.05240        3.02390        0.20400
C         -5.12920        3.11390        1.60440
C         -5.86470        3.96700        2.45840
C         -5.54460        4.00210        3.86070
N         -6.25040        4.90990        4.51600
S         -7.23880        5.64880        3.46850
N         -6.80080        4.84460        2.13400
C         -4.60030        3.08370        4.37080
C         -4.11020        2.83370        5.66580
S         -4.20750        3.51080        7.25620
C         -3.07860        2.30040        7.81490
C         -2.48440        2.06080        9.06790
C         -2.79040        2.84370       10.26810
C         -2.70500        4.23110       10.23320
C         -2.99880        4.96430       11.36770
C         -3.38120        4.32450       12.53280
C         -3.48790        2.93930       12.57980
C         -3.94930        2.24980       13.83070
C         -5.47760        2.21740       13.89290
C         -3.19880        2.20970       11.43760
C         -1.60390        0.99450        9.01170
S         -1.54720        0.25690        7.41110
C         -2.68190        1.41190        6.81250
C         -3.27180        1.71650        5.58160
N         -3.21830        1.26530        4.28590
C         -3.98950        2.12360        3.52240
C         -4.13720        2.23740        2.12040
N         -3.44740        1.66210        1.06470
C         -4.00260        2.14870       -0.09060
C         -3.78680        2.03240       -1.46840
S         -2.69190        1.19300       -2.50520
C         -2.09330        1.14280        1.04150
C         -1.10390        2.10680        1.68820
C         -2.94150       -0.12290        3.98590
C         -3.79370       -1.06450        4.83580
C         -0.68780        0.51640        9.98790
C          0.09460       -0.61180        9.87190
C          1.01080       -0.78560       10.91660
S          2.03400       -2.17940       11.09910
C          1.00600       -3.49770       10.33780
C         -0.31130       -3.69930       11.05970
C          0.94710        0.24110       11.86380
S         -0.31670        1.38450       11.44400
C          1.61470        0.43990       13.08090
C          2.87970        0.02420       13.41140
C          3.92900       -0.31480       12.44020
O          3.81310       -0.41130       11.23010
C          5.18240       -0.40480       13.21150
C          6.45410       -0.67620       12.71320
C          7.44170       -0.67290       13.66920
C          7.18630       -0.41310       15.02180
C          5.93610       -0.14550       15.52750
C          4.91610       -0.14680       14.57130
C          3.48270        0.08930       14.72480
C          2.81360        0.25460       15.91060
C          1.41250        0.36620       16.02770
N          0.27960        0.43760       16.20440
C          3.43060        0.29850       17.17690
N          3.86970        0.35010       18.23700
C          8.63880       -0.55370       15.40600
C          9.41750        0.75580       15.65220
C         10.86670        0.34370       15.52950
C         11.10850        0.09480       14.24880
C          9.82660        0.33450       13.48440
C          9.23580        1.48240       14.31320
C          8.92290       -0.84650       13.89780
H         -1.40860       -1.19210      -13.47800
H          3.94010       -4.15390      -12.00380
H          1.87040       -4.21810      -16.62500
H          4.24530       -6.66080      -16.35170
H          5.25460       -4.63790      -17.75950
H          7.03790       -6.56590      -17.68060
H          8.16010       -6.55700      -15.27250
H          7.06800       -4.62350      -13.86860
H          5.43400       -3.22580      -15.48030
H          7.03650       -3.42080      -16.22610
H          5.34620       -6.65340      -13.99030
H          0.48730       -1.55670      -10.05890
H          1.93530       -0.20490       -8.95520
H          4.65850       -3.64090       -6.52900
H          4.52740       -4.62580       -5.05570
H          3.36550       -5.76620       -6.94680
H          2.19160       -5.27520       -5.71820
H          2.35990       -4.33900       -7.20850
H         -7.01660        0.25020      -12.55310
H         -8.15840        1.05120      -13.65500
H         -5.88500        0.87550      -14.70000
H         -6.34870        2.56500      -14.45600
H         -5.19510        1.79030      -13.36290
H         -4.47180        3.52730       -8.24260
H         -4.55500        2.04280       -6.54270
H         -7.14490        2.96980       -3.82310
H         -8.39730        4.47430       -5.32330
H         -7.19230        5.98690       -6.84440
H         -5.03920        6.38230       -8.07620
H         -3.50540        5.93820       -7.30950
H         -3.92440        8.37890       -7.10830
H         -3.92180        7.61840       -5.51280
H         -5.44920        8.05980       -6.27530
H         -3.47360        4.47350       -5.40080
H         -2.39340        4.72700        9.32620
H         -2.92520        6.04140       11.34230
H         -3.60030        4.90410       13.41780
H         -3.56360        1.22910       13.85460
H         -3.56440        2.77820       14.70470
H         -5.80960        1.71280       14.79700
H         -5.88100        1.68940       13.03150
H         -5.87890        3.22840       13.89170
H         -3.29570        1.13300       11.45130
H         -2.03020        0.16300        1.51770
H         -1.83500        1.00680       -0.01140
H         -1.15050        3.07700        1.19890
H         -0.09570        1.71480        1.58800
H         -1.32270        2.24150        2.74410
H         -3.19200       -0.29640        2.94170
H         -1.87870       -0.32610        4.15410
H         -3.53520       -0.99030        5.88760
H         -3.62910       -2.08910        4.51330
H         -4.84850       -0.82600        4.71650
H          0.01330       -1.27280        9.02750
H          0.86580       -3.27380        9.28170
H          1.63540       -4.38300       10.42410
H         -0.13640       -3.91230       12.11150
H         -0.85000       -4.53650       10.61970
H         -0.93520       -2.81090       10.98680
H          1.06670        1.03110       13.80520
H          6.60690       -0.87110       11.66330
H          5.75370        0.05430       16.57030
H          8.86400       -1.32680       16.13830
H          9.13530        1.29040       16.55510
H         11.52980        0.22530       16.36630
H         12.01360       -0.27330       13.80210
H          9.91710        0.48570       12.41190
H          8.20060        1.71620       14.07200
H          9.83790        2.38750       14.25090
H          9.33690       -1.81550       13.62480
