
  xtb     02132205423D
 energy: -300.286507535301 gnorm: 0.000496110957 xtb: 6.4.1 (unknown)
175197  0     0  0            999 V2000
   -9.2481    0.6989   -7.4177 C   0  0  0  0  0  0  0  0  0  0  0  0
  -10.1779    1.0257   -6.4628 C   0  0  0  0  0  0  0  0  0  0  0  0
   -9.8717    1.4897   -5.1143 C   0  0  0  0  0  0  0  0  0  0  0  0
   -8.7613    1.6150   -4.6107 O   0  0  0  0  0  0  0  0  0  0  0  0
  -11.1557    1.7875   -4.4653 C   0  0  0  0  0  0  0  0  0  0  0  0
  -11.3555    2.2789   -3.1776 C   0  0  0  0  0  0  0  0  0  0  0  0
  -12.6769    2.4713   -2.8524 C   0  0  0  0  0  0  0  0  0  0  0  0
  -13.7227    2.1897   -3.7410 C   0  0  0  0  0  0  0  0  0  0  0  0
  -13.5387    1.6986   -5.0125 C   0  0  0  0  0  0  0  0  0  0  0  0
  -12.2020    1.5008   -5.3671 C   0  0  0  0  0  0  0  0  0  0  0  0
  -11.6201    1.0113   -6.6176 C   0  0  0  0  0  0  0  0  0  0  0  0
  -12.3314    0.6084   -7.7180 C   0  0  0  0  0  0  0  0  0  0  0  0
  -11.7809    0.1260   -8.9240 C   0  0  0  0  0  0  0  0  0  0  0  0
  -11.4218   -0.2788   -9.9377 N   0  0  0  0  0  0  0  0  0  0  0  0
  -13.7396    0.6125   -7.8069 C   0  0  0  0  0  0  0  0  0  0  0  0
  -14.8778    0.5858   -7.9556 N   0  0  0  0  0  0  0  0  0  0  0  0
  -14.7805    2.6336   -2.7623 C   0  0  0  0  0  0  0  0  0  0  0  0
  -15.4275    4.0234   -2.9834 C   0  0  0  0  0  0  0  0  0  0  0  0
  -14.4100    4.8580   -3.7209 C   0  0  0  0  0  0  0  0  0  0  0  0
  -13.4196    5.1254   -2.8802 C   0  0  0  0  0  0  0  0  0  0  0  0
  -13.7495    4.4762   -1.5588 C   0  0  0  0  0  0  0  0  0  0  0  0
  -15.2810    4.6059   -1.5685 C   0  0  0  0  0  0  0  0  0  0  0  0
  -13.6149    2.9479   -1.7721 C   0  0  0  0  0  0  0  0  0  0  0  0
   -7.8452    0.7059   -7.3626 C   0  0  0  0  0  0  0  0  0  0  0  0
   -7.0839    0.3573   -8.4785 C   0  0  0  0  0  0  0  0  0  0  0  0
   -5.6986    0.4274   -8.3583 C   0  0  0  0  0  0  0  0  0  0  0  0
   -4.7768    0.0100   -9.4652 C   0  0  0  0  0  0  0  0  0  0  0  0
   -5.0232    0.7820  -10.7599 C   0  0  0  0  0  0  0  0  0  0  0  0
   -5.2819    0.8332   -7.0964 C   0  0  0  0  0  0  0  0  0  0  0  0
   -6.7079    1.1517   -5.9239 Se  0  0  0  0  0  2  0  0  0  0  0  0
   -3.9283    1.0453   -6.6691 C   0  0  0  0  0  0  0  0  0  0  0  0
   -2.9654    1.8482   -7.2435 C   0  0  0  0  0  0  0  0  0  0  0  0
   -3.2259    2.7526   -8.3632 C   0  0  0  0  0  0  0  0  0  0  0  0
   -2.2888    2.9300   -9.3772 C   0  0  0  0  0  0  0  0  0  0  0  0
   -2.5633    3.7918  -10.4220 C   0  0  0  0  0  0  0  0  0  0  0  0
   -3.7639    4.4808  -10.4675 C   0  0  0  0  0  0  0  0  0  0  0  0
   -4.7019    4.3305   -9.4537 C   0  0  0  0  0  0  0  0  0  0  0  0
   -6.0263    5.0375   -9.4948 C   0  0  0  0  0  0  0  0  0  0  0  0
   -7.1384    4.0731   -9.9129 C   0  0  0  0  0  0  0  0  0  0  0  0
   -4.4172    3.4693   -8.4052 C   0  0  0  0  0  0  0  0  0  0  0  0
   -1.7455    1.7698   -6.5366 C   0  0  0  0  0  0  0  0  0  0  0  0
   -0.1947    2.5397   -6.7659 S   0  0  0  0  0  0  0  0  0  0  0  0
    0.3855    1.7339   -5.3484 C   0  0  0  0  0  0  0  0  0  0  0  0
    1.5712    1.6065   -4.6097 C   0  0  0  0  0  0  0  0  0  0  0  0
    2.8638    2.1192   -4.8514 C   0  0  0  0  0  0  0  0  0  0  0  0
    3.9363    1.7219   -3.9881 C   0  0  0  0  0  0  0  0  0  0  0  0
    5.1007    2.2319   -4.3581 N   0  0  0  0  0  0  0  0  0  0  0  0
    4.8648    3.1390   -5.6787 S   0  0  0  0  0  0  0  0  0  0  0  0
    3.2686    2.9138   -5.8300 N   0  0  0  0  0  0  0  0  0  0  0  0
    3.6442    0.9127   -2.8692 C   0  0  0  0  0  0  0  0  0  0  0  0
    4.4687    0.4596   -1.8301 C   0  0  0  0  0  0  0  0  0  0  0  0
    6.1360    0.5019   -1.3706 S   0  0  0  0  0  0  0  0  0  0  0  0
    5.7266   -0.3837    0.0797 C   0  0  0  0  0  0  0  0  0  0  0  0
    6.5039   -0.8781    1.1350 C   0  0  0  0  0  0  0  0  0  0  0  0
    7.9618   -0.7543    1.1782 C   0  0  0  0  0  0  0  0  0  0  0  0
    8.7642   -1.8756    1.3773 C   0  0  0  0  0  0  0  0  0  0  0  0
   10.1387   -1.7443    1.3751 C   0  0  0  0  0  0  0  0  0  0  0  0
   10.7216   -0.5039    1.1784 C   0  0  0  0  0  0  0  0  0  0  0  0
    9.9361    0.6216    0.9668 C   0  0  0  0  0  0  0  0  0  0  0  0
   10.5580    1.9770    0.7975 C   0  0  0  0  0  0  0  0  0  0  0  0
   10.6585    2.6837    2.1511 C   0  0  0  0  0  0  0  0  0  0  0  0
    8.5561    0.4833    0.9635 C   0  0  0  0  0  0  0  0  0  0  0  0
    5.7264   -1.5611    2.0660 C   0  0  0  0  0  0  0  0  0  0  0  0
    4.0270   -1.5863    1.6158 S   0  0  0  0  0  0  0  0  0  0  0  0
    4.3625   -0.6827    0.1857 C   0  0  0  0  0  0  0  0  0  0  0  0
    3.6451   -0.2054   -0.9170 C   0  0  0  0  0  0  0  0  0  0  0  0
    2.3512   -0.2056   -1.3662 N   0  0  0  0  0  0  0  0  0  0  0  0
    2.3220    0.4669   -2.5776 C   0  0  0  0  0  0  0  0  0  0  0  0
    1.2915    0.7340   -3.5194 C   0  0  0  0  0  0  0  0  0  0  0  0
   -0.0302    0.3250   -3.6239 N   0  0  0  0  0  0  0  0  0  0  0  0
   -0.5678    0.9230   -4.7310 C   0  0  0  0  0  0  0  0  0  0  0  0
   -1.7926    0.9419   -5.4149 C   0  0  0  0  0  0  0  0  0  0  0  0
   -3.3586    0.2305   -5.2245 S   0  0  0  0  0  0  0  0  0  0  0  0
   -0.7059   -0.8069   -3.0305 C   0  0  0  0  0  0  0  0  0  0  0  0
    0.0078   -2.1173   -3.3541 C   0  0  0  0  0  0  0  0  0  0  0  0
    1.2818   -0.5235   -0.4460 C   0  0  0  0  0  0  0  0  0  0  0  0
    0.4906    0.7222   -0.0554 C   0  0  0  0  0  0  0  0  0  0  0  0
    6.1537   -2.0336    3.3334 C   0  0  0  0  0  0  0  0  0  0  0  0
    7.4606   -1.2079    4.1333 S   0  0  0  0  0  0  0  0  0  0  0  0
    7.3173   -2.1564    5.6000 C   0  0  0  0  0  0  0  0  0  0  0  0
    6.3066   -3.0887    5.4243 C   0  0  0  0  0  0  0  0  0  0  0  0
    5.7487   -4.3876    6.4164 S   0  0  0  0  0  0  0  0  0  0  0  0
    4.6210   -4.8663    5.1757 C   0  0  0  0  0  0  0  0  0  0  0  0
    3.6930   -5.9459    5.5142 C   0  0  0  0  0  0  0  0  0  0  0  0
    2.8418   -6.4053    4.7950 O   0  0  0  0  0  0  0  0  0  0  0  0
    3.9133   -6.3224    6.7793 O   0  0  0  0  0  0  0  0  0  0  0  0
    3.0264   -7.2816    7.3530 C   0  0  0  0  0  0  0  0  0  0  0  0
    3.1649   -7.2017    8.8621 C   0  0  0  0  0  0  0  0  0  0  0  0
    4.6869   -4.0875    4.0511 C   0  0  0  0  0  0  0  0  0  0  0  0
    5.6500   -3.0416    4.1607 C   0  0  0  0  0  0  0  0  0  0  0  0
    3.7357   -4.4308    2.6831 Cl  0  0  0  0  0  0  0  0  0  0  0  0
    8.2340   -1.9340    6.6410 C   0  0  0  0  0  0  0  0  0  0  0  0
    8.2096   -2.3555    7.9411 C   0  0  0  0  0  0  0  0  0  0  0  0
    9.4876   -2.4098    8.7041 C   0  0  0  0  0  0  0  0  0  0  0  0
   10.5413   -1.9043    8.3889 O   0  0  0  0  0  0  0  0  0  0  0  0
    9.2011   -3.2491    9.8838 C   0  0  0  0  0  0  0  0  0  0  0  0
   10.1074   -3.6949   10.8434 C   0  0  0  0  0  0  0  0  0  0  0  0
    9.5480   -4.4897   11.8155 C   0  0  0  0  0  0  0  0  0  0  0  0
    8.1876   -4.8235   11.8332 C   0  0  0  0  0  0  0  0  0  0  0  0
    7.2803   -4.3871   10.8960 C   0  0  0  0  0  0  0  0  0  0  0  0
    7.8284   -3.5728    9.9027 C   0  0  0  0  0  0  0  0  0  0  0  0
    7.1781   -2.9024    8.7776 C   0  0  0  0  0  0  0  0  0  0  0  0
    5.8296   -2.6527    8.6634 C   0  0  0  0  0  0  0  0  0  0  0  0
    4.8397   -3.2217    9.4865 C   0  0  0  0  0  0  0  0  0  0  0  0
    3.9847   -3.6852   10.0978 N   0  0  0  0  0  0  0  0  0  0  0  0
    5.3062   -1.7158    7.7506 C   0  0  0  0  0  0  0  0  0  0  0  0
    4.8553   -0.9329    7.0421 N   0  0  0  0  0  0  0  0  0  0  0  0
    8.3248   -5.6506   13.0876 C   0  0  0  0  0  0  0  0  0  0  0  0
    7.8292   -5.0032   14.3981 C   0  0  0  0  0  0  0  0  0  0  0  0
    8.5139   -5.8069   15.4801 C   0  0  0  0  0  0  0  0  0  0  0  0
    9.8022   -5.4895   15.4644 C   0  0  0  0  0  0  0  0  0  0  0  0
   10.0099   -4.4661   14.3714 C   0  0  0  0  0  0  0  0  0  0  0  0
    8.6709   -3.7215   14.4491 C   0  0  0  0  0  0  0  0  0  0  0  0
    9.8418   -5.2768   13.0689 C   0  0  0  0  0  0  0  0  0  0  0  0
   -9.6315    0.4010   -8.3873 H   0  0  0  0  0  0  0  0  0  0  0  0
  -10.5203    2.4801   -2.5252 H   0  0  0  0  0  0  0  0  0  0  0  0
  -14.3562    1.4877   -5.6812 H   0  0  0  0  0  0  0  0  0  0  0  0
  -15.5082    1.8788   -2.4711 H   0  0  0  0  0  0  0  0  0  0  0  0
  -16.4253    3.9933   -3.4125 H   0  0  0  0  0  0  0  0  0  0  0  0
  -14.4854    5.1120   -4.7620 H   0  0  0  0  0  0  0  0  0  0  0  0
  -12.5017    5.6472   -3.0786 H   0  0  0  0  0  0  0  0  0  0  0  0
  -13.2200    4.8592   -0.6903 H   0  0  0  0  0  0  0  0  0  0  0  0
  -15.7720    4.0097   -0.8007 H   0  0  0  0  0  0  0  0  0  0  0  0
  -15.6164    5.6397   -1.5021 H   0  0  0  0  0  0  0  0  0  0  0  0
  -13.5814    2.3990   -0.8330 H   0  0  0  0  0  0  0  0  0  0  0  0
   -7.5641    0.0390   -9.3899 H   0  0  0  0  0  0  0  0  0  0  0  0
   -3.7412    0.1462   -9.1519 H   0  0  0  0  0  0  0  0  0  0  0  0
   -4.9323   -1.0571   -9.6538 H   0  0  0  0  0  0  0  0  0  0  0  0
   -4.8891    1.8476  -10.5984 H   0  0  0  0  0  0  0  0  0  0  0  0
   -4.3195    0.4582  -11.5228 H   0  0  0  0  0  0  0  0  0  0  0  0
   -6.0311    0.6107  -11.1287 H   0  0  0  0  0  0  0  0  0  0  0  0
   -1.3577    2.3845   -9.3507 H   0  0  0  0  0  0  0  0  0  0  0  0
   -1.8376    3.9245  -11.2106 H   0  0  0  0  0  0  0  0  0  0  0  0
   -3.9719    5.1456  -11.2935 H   0  0  0  0  0  0  0  0  0  0  0  0
   -6.2568    5.4393   -8.5054 H   0  0  0  0  0  0  0  0  0  0  0  0
   -5.9829    5.8694  -10.2000 H   0  0  0  0  0  0  0  0  0  0  0  0
   -6.9404    3.6729  -10.9050 H   0  0  0  0  0  0  0  0  0  0  0  0
   -7.2037    3.2406   -9.2148 H   0  0  0  0  0  0  0  0  0  0  0  0
   -8.0978    4.5848   -9.9315 H   0  0  0  0  0  0  0  0  0  0  0  0
   -5.1296    3.3668   -7.5976 H   0  0  0  0  0  0  0  0  0  0  0  0
    8.3058   -2.8437    1.5183 H   0  0  0  0  0  0  0  0  0  0  0  0
   10.7606   -2.6145    1.5244 H   0  0  0  0  0  0  0  0  0  0  0  0
   11.7978   -0.4100    1.1819 H   0  0  0  0  0  0  0  0  0  0  0  0
    9.9507    2.5796    0.1195 H   0  0  0  0  0  0  0  0  0  0  0  0
   11.5560    1.8771    0.3670 H   0  0  0  0  0  0  0  0  0  0  0  0
    9.6706    2.8028    2.5902 H   0  0  0  0  0  0  0  0  0  0  0  0
   11.1085    3.6667    2.0344 H   0  0  0  0  0  0  0  0  0  0  0  0
   11.2683    2.1011    2.8380 H   0  0  0  0  0  0  0  0  0  0  0  0
    7.9320    1.3504    0.8041 H   0  0  0  0  0  0  0  0  0  0  0  0
   -1.7102   -0.8288   -3.4607 H   0  0  0  0  0  0  0  0  0  0  0  0
   -0.8224   -0.6667   -1.9558 H   0  0  0  0  0  0  0  0  0  0  0  0
    1.0383   -2.1013   -3.0069 H   0  0  0  0  0  0  0  0  0  0  0  0
    0.0158   -2.2793   -4.4296 H   0  0  0  0  0  0  0  0  0  0  0  0
   -0.5102   -2.9483   -2.8831 H   0  0  0  0  0  0  0  0  0  0  0  0
    1.7550   -0.9428    0.4453 H   0  0  0  0  0  0  0  0  0  0  0  0
    0.6358   -1.2989   -0.8583 H   0  0  0  0  0  0  0  0  0  0  0  0
    1.1435    1.4347    0.4435 H   0  0  0  0  0  0  0  0  0  0  0  0
    0.0632    1.2090   -0.9289 H   0  0  0  0  0  0  0  0  0  0  0  0
   -0.3115    0.4527    0.6263 H   0  0  0  0  0  0  0  0  0  0  0  0
    2.0055   -7.0539    7.0272 H   0  0  0  0  0  0  0  0  0  0  0  0
    3.2932   -8.2765    6.9778 H   0  0  0  0  0  0  0  0  0  0  0  0
    2.9588   -6.1905    9.2044 H   0  0  0  0  0  0  0  0  0  0  0  0
    2.4663   -7.8886    9.3306 H   0  0  0  0  0  0  0  0  0  0  0  0
    4.1771   -7.4642    9.1582 H   0  0  0  0  0  0  0  0  0  0  0  0
    9.1398   -1.4084    6.3539 H   0  0  0  0  0  0  0  0  0  0  0  0
   11.1494   -3.4207   10.7924 H   0  0  0  0  0  0  0  0  0  0  0  0
    6.2370   -4.6567   10.9106 H   0  0  0  0  0  0  0  0  0  0  0  0
    8.0456   -6.6989   12.9987 H   0  0  0  0  0  0  0  0  0  0  0  0
    6.7505   -4.8979   14.4741 H   0  0  0  0  0  0  0  0  0  0  0  0
    8.0174   -6.5403   16.0881 H   0  0  0  0  0  0  0  0  0  0  0  0
   10.5966   -5.9047   16.0565 H   0  0  0  0  0  0  0  0  0  0  0  0
   10.9181   -3.8716   14.4240 H   0  0  0  0  0  0  0  0  0  0  0  0
    8.5510   -3.1877   15.3904 H   0  0  0  0  0  0  0  0  0  0  0  0
    8.4928   -3.0405   13.6190 H   0  0  0  0  0  0  0  0  0  0  0  0
   10.5738   -6.0761   12.9676 H   0  0  0  0  0  0  0  0  0  0  0  0
  1  2  2  0  0  0  0
  2  3  1  0  0  0  0
  3  4  2  0  0  0  0
  3  5  1  0  0  0  0
  5  6  2  0  0  0  0
  6  7  1  0  0  0  0
  7  8  2  0  0  0  0
  8  9  1  0  0  0  0
  9 10  2  0  0  0  0
 10 11  1  0  0  0  0
 11 12  2  0  0  0  0
 12 13  1  0  0  0  0
 13 14  3  0  0  0  0
 12 15  1  0  0  0  0
 15 16  3  0  0  0  0
  8 17  1  0  0  0  0
 17 18  1  0  0  0  0
 18 19  1  0  0  0  0
 19 20  2  0  0  0  0
 20 21  1  0  0  0  0
 21 22  1  0  0  0  0
 21 23  1  0  0  0  0
  1 24  1  0  0  0  0
 24 25  2  0  0  0  0
 25 26  1  0  0  0  0
 26 27  1  0  0  0  0
 27 28  1  0  0  0  0
 26 29  2  0  0  0  0
 29 30  1  0  0  0  0
 29 31  1  0  0  0  0
 31 32  2  0  0  0  0
 32 33  1  0  0  0  0
 33 34  2  0  0  0  0
 34 35  1  0  0  0  0
 35 36  2  0  0  0  0
 36 37  1  0  0  0  0
 37 38  1  0  0  0  0
 38 39  1  0  0  0  0
 37 40  2  0  0  0  0
 32 41  1  0  0  0  0
 41 42  1  0  0  0  0
 42 43  1  0  0  0  0
 43 44  1  0  0  0  0
 44 45  1  0  0  0  0
 45 46  1  0  0  0  0
 46 47  2  0  0  0  0
 47 48  1  0  0  0  0
 48 49  1  0  0  0  0
 46 50  1  0  0  0  0
 50 51  1  0  0  0  0
 51 52  1  0  0  0  0
 52 53  1  0  0  0  0
 53 54  1  0  0  0  0
 54 55  1  0  0  0  0
 55 56  2  0  0  0  0
 56 57  1  0  0  0  0
 57 58  2  0  0  0  0
 58 59  1  0  0  0  0
 59 60  1  0  0  0  0
 60 61  1  0  0  0  0
 59 62  2  0  0  0  0
 54 63  2  0  0  0  0
 63 64  1  0  0  0  0
 64 65  1  0  0  0  0
 65 66  1  0  0  0  0
 66 67  1  0  0  0  0
 67 68  1  0  0  0  0
 68 69  1  0  0  0  0
 69 70  1  0  0  0  0
 70 71  1  0  0  0  0
 71 72  1  0  0  0  0
 72 73  1  0  0  0  0
 70 74  1  0  0  0  0
 74 75  1  0  0  0  0
 67 76  1  0  0  0  0
 76 77  1  0  0  0  0
 63 78  1  0  0  0  0
 78 79  1  0  0  0  0
 79 80  1  0  0  0  0
 80 81  2  0  0  0  0
 81 82  1  0  0  0  0
 82 83  1  0  0  0  0
 83 84  1  0  0  0  0
 84 85  2  0  0  0  0
 84 86  1  0  0  0  0
 86 87  1  0  0  0  0
 87 88  1  0  0  0  0
 83 89  2  0  0  0  0
 89 90  1  0  0  0  0
 89 91  1  0  0  0  0
 80 92  1  0  0  0  0
 92 93  2  0  0  0  0
 93 94  1  0  0  0  0
 94 95  2  0  0  0  0
 94 96  1  0  0  0  0
 96 97  2  0  0  0  0
 97 98  1  0  0  0  0
 98 99  2  0  0  0  0
 99100  1  0  0  0  0
100101  2  0  0  0  0
101102  1  0  0  0  0
102103  2  0  0  0  0
103104  1  0  0  0  0
104105  3  0  0  0  0
103106  1  0  0  0  0
106107  3  0  0  0  0
 99108  1  0  0  0  0
108109  1  0  0  0  0
109110  1  0  0  0  0
110111  2  0  0  0  0
111112  1  0  0  0  0
112113  1  0  0  0  0
112114  1  0  0  0  0
 11  2  1  0  0  0  0
 23 17  1  0  0  0  0
 30 24  1  0  0  0  0
 73 31  1  0  0  0  0
 90 78  2  0  0  0  0
102 93  1  0  0  0  0
114108  1  0  0  0  0
 10  5  1  0  0  0  0
 22 18  1  0  0  0  0
 40 33  1  0  0  0  0
 72 41  2  0  0  0  0
 90 81  1  0  0  0  0
101 96  1  0  0  0  0
113109  1  0  0  0  0
 23  7  1  0  0  0  0
 71 43  2  0  0  0  0
114 98  1  0  0  0  0
 69 44  2  0  0  0  0
 49 45  2  0  0  0  0
 68 50  2  0  0  0  0
 66 51  2  0  0  0  0
 65 53  2  0  0  0  0
 62 55  1  0  0  0  0
  1115  1  0  0  0  0
  6116  1  0  0  0  0
  9117  1  0  0  0  0
 17118  1  0  0  0  0
 18119  1  0  0  0  0
 19120  1  0  0  0  0
 20121  1  0  0  0  0
 21122  1  0  0  0  0
 22123  1  0  0  0  0
 22124  1  0  0  0  0
 23125  1  0  0  0  0
 25126  1  0  0  0  0
 27127  1  0  0  0  0
 27128  1  0  0  0  0
 28129  1  0  0  0  0
 28130  1  0  0  0  0
 28131  1  0  0  0  0
 34132  1  0  0  0  0
 35133  1  0  0  0  0
 36134  1  0  0  0  0
 38135  1  0  0  0  0
 38136  1  0  0  0  0
 39137  1  0  0  0  0
 39138  1  0  0  0  0
 39139  1  0  0  0  0
 40140  1  0  0  0  0
 56141  1  0  0  0  0
 57142  1  0  0  0  0
 58143  1  0  0  0  0
 60144  1  0  0  0  0
 60145  1  0  0  0  0
 61146  1  0  0  0  0
 61147  1  0  0  0  0
 61148  1  0  0  0  0
 62149  1  0  0  0  0
 74150  1  0  0  0  0
 74151  1  0  0  0  0
 75152  1  0  0  0  0
 75153  1  0  0  0  0
 75154  1  0  0  0  0
 76155  1  0  0  0  0
 76156  1  0  0  0  0
 77157  1  0  0  0  0
 77158  1  0  0  0  0
 77159  1  0  0  0  0
 87160  1  0  0  0  0
 87161  1  0  0  0  0
 88162  1  0  0  0  0
 88163  1  0  0  0  0
 88164  1  0  0  0  0
 92165  1  0  0  0  0
 97166  1  0  0  0  0
100167  1  0  0  0  0
108168  1  0  0  0  0
109169  1  0  0  0  0
110170  1  0  0  0  0
111171  1  0  0  0  0
112172  1  0  0  0  0
113173  1  0  0  0  0
113174  1  0  0  0  0
114175  1  0  0  0  0
M  END
