169

C          4.73710       -8.23570        3.34930
C          5.80610       -7.69690        2.67340
C          5.73650       -6.56390        1.75990
O          4.72950       -5.96740        1.39390
C          7.11590       -6.25810        1.35470
C          7.54130       -5.22410        0.52360
C          8.90340       -5.17440        0.34770
C          9.77750       -6.08630        0.95280
C          9.36990       -7.11160        1.77440
C          7.98760       -7.18140        1.96800
C          7.19190       -8.10740        2.77660
C          7.69220       -9.17090        3.48350
C          9.05560       -9.52890        3.53200
N         10.14480       -9.88240        3.61950
C          6.93370      -10.07580        4.25490
N          6.39650      -10.85650        4.90490
C         10.99870       -5.44230        0.34470
C         11.63150       -6.16260       -0.86450
C         12.46980       -5.09160       -1.52450
C         11.64210       -4.22720       -2.09760
C         10.23030       -4.69950       -1.83460
C         10.45320       -6.21730       -1.84550
C         10.02350       -4.42480       -0.33000
C          3.38360       -7.87230        3.33890
C          2.46420       -8.49840        4.18430
C          1.14470       -8.06100        4.14640
C          0.09900       -8.55920        5.09870
C          0.61610       -8.67270        6.53200
C          0.93180       -7.06150        3.19740
Se         2.50950       -6.55260        2.31480
C         -0.26980       -6.37180        2.86450
C         -1.58920       -6.78400        2.78280
C         -2.06490       -8.16190        2.90140
C         -1.35220       -9.20910        2.32190
C         -1.84010      -10.49950        2.39870
C         -3.03280      -10.75850        3.05170
C         -3.76070       -9.72490        3.62830
C         -5.03180      -10.00240        4.37730
C         -4.73200      -10.25220        5.85680
C         -3.26910       -8.43180        3.54390
C         -2.43400       -5.71630        2.40850
S         -4.15780       -5.61400        2.13050
C         -3.96430       -3.95810        1.66420
C         -4.72930       -2.89840        1.15110
C         -6.08050       -2.83510        0.74740
C         -6.55020       -1.65460        0.07910
N         -7.81400       -1.75810       -0.30150
S         -8.36740       -3.21190        0.14740
N         -7.01510       -3.76780        0.84310
C         -5.68050       -0.55010       -0.05040
C         -5.88910        0.73950       -0.56780
S         -7.12650        1.65600       -1.35870
C         -6.05630        3.03940       -1.38000
C         -6.18620        4.33480       -1.91780
C         -7.36980        4.76090       -2.66690
C         -7.24600        5.36250       -3.91710
C         -8.37810        5.71760       -4.62440
C         -9.63590        5.47340       -4.09960
C         -9.77780        4.85890       -2.86200
C        -11.13730        4.61770       -2.27210
C        -11.55690        5.79910       -1.39520
C         -8.63760        4.50670       -2.15520
C         -5.03190        5.07640       -1.71910
S         -3.78170        4.16310       -0.88480
C         -4.81340        2.78150       -0.79570
C         -4.71960        1.46480       -0.33250
N         -3.78260        0.67510        0.28470
C         -4.35080       -0.58050        0.45490
C         -3.83760       -1.80600        0.95150
N         -2.56390       -2.21450        1.29940
C         -2.64330       -3.50990        1.73370
C         -1.76690       -4.51620        2.15730
S         -0.06810       -4.68120        2.42150
C         -1.27550       -1.65540        0.95990
C         -0.52790       -1.14110        2.18910
C         -2.76950        1.32860        1.08730
C         -3.24030        1.49070        2.53110
C         -4.71120        6.41190       -2.07430
C         -5.59170        7.45250       -2.32980
C         -5.00720        8.66060       -2.68290
C         -5.84930        9.87410       -2.93180
C         -5.88670       10.77800       -1.69640
C         -3.59610        8.65640       -2.72910
Se        -2.92780        6.94860       -2.24710
C         -2.85720        9.77670       -3.11810
C         -1.49820        9.96920       -3.23830
C         -0.46950        8.98160       -2.95110
O         -0.63280        7.83880       -2.53650
C          0.82390        9.61100       -3.25710
C          2.08820        9.03620       -3.15080
C          3.11390        9.87280       -3.52090
C          2.89760       11.18270       -3.96640
C          1.65410       11.76050       -4.07810
C          0.59560       10.92860       -3.70360
C         -0.84760       11.17950       -3.69300
C         -1.44560       12.36070       -4.05620
C         -2.83190       12.61760       -4.05760
N         -3.94180       12.91640       -4.08750
C         -0.75160       13.50990       -4.48750
N         -0.26140       14.48580       -4.84320
C          4.37020       11.44410       -4.16490
C          5.07270       12.29340       -3.08480
C          6.53910       11.97920       -3.27480
C          6.74410       10.73840       -2.85190
C          5.41940       10.19280       -2.36930
C          4.79050       11.47810       -1.81620
C          4.61150        9.98270       -3.66740
H          4.95280       -9.05840        4.02200
H          6.83290       -4.54000        0.08340
H         10.05830       -7.79830        2.23750
H         11.73720       -5.06670        1.05050
H         12.13040       -7.09810       -0.62700
H         13.54110       -5.04410       -1.46100
H         11.88380       -3.31350       -2.60840
H          9.45280       -4.30210       -2.48160
H         10.75150       -6.58230       -2.82690
H          9.60270       -6.79330       -1.48570
H         10.11220       -3.37060       -0.07350
H          2.79050       -9.27810        4.85300
H         -0.26050       -9.53690        4.76490
H         -0.75150       -7.87610        5.08040
H         -0.20580       -8.92240        7.19870
H          1.37090       -9.44890        6.62220
H          1.04990       -7.72920        6.85650
H         -0.42920       -9.00500        1.79930
H         -1.28790      -11.30850        1.94330
H         -3.40670      -11.77060        3.10820
H         -5.70770       -9.15030        4.28470
H         -5.52630      -10.87980        3.95650
H         -4.06620      -11.10520        5.96970
H         -4.25040       -9.38200        6.29730
H         -5.65050      -10.45420        6.40260
H         -3.82360       -7.62210        3.99570
H         -6.26480        5.53640       -4.33330
H         -8.27920        6.18250       -5.59430
H        -10.51600        5.75320       -4.66040
H        -11.86870        4.48450       -3.07140
H        -11.12000        3.70830       -1.66840
H        -11.59030        6.71420       -1.98270
H        -12.54160        5.62480       -0.96820
H        -10.84650        5.93950       -0.58340
H         -8.73460        4.03470       -1.18810
H         -1.41510       -0.88180        0.20410
H         -0.68010       -2.45420        0.50290
H         -0.28360       -1.97160        2.84610
H         -1.12480       -0.42840        2.75130
H          0.39930       -0.66470        1.88300
H         -2.60380        2.31210        0.64050
H         -1.82790        0.78910        1.05650
H         -3.44050        0.51940        2.97920
H         -2.47920        2.00060        3.11550
H         -4.15520        2.07800        2.56510
H         -6.65930        7.33590       -2.24370
H         -5.47770       10.44610       -3.78370
H         -6.86510        9.54970       -3.16620
H         -4.88760       11.12170       -1.43910
H         -6.50810       11.64740       -1.89260
H         -6.29560       10.23870       -0.84460
H         -3.46870       10.62890       -3.38340
H          2.20810        8.02020       -2.80870
H          1.50710       12.76780       -4.42950
H          4.67330       11.70670       -5.17670
H          4.79360       13.34340       -3.07870
H          7.24180       12.64970       -3.73380
H          7.65210       10.16520       -2.88720
H          5.45660        9.32920       -1.71060
H          5.33030       11.86160       -0.95190
H          3.73340       11.38620       -1.57390
H          5.07610        9.27120       -4.34780
