
  xtb     02122218123D
 energy: -405.909147291514 gnorm: 0.000677597619 xtb: 6.4.1 (unknown)
231260  0     0  0            999 V2000
   11.9584   -1.0027   -5.8165 C   0  0  0  0  0  0  0  0  0  0  0  0
   12.7675   -0.1360   -5.1381 C   0  0  0  0  0  0  0  0  0  0  0  0
   12.3470    1.0984   -4.4507 C   0  0  0  0  0  0  0  0  0  0  0  0
   11.2377    1.5984   -4.4291 O   0  0  0  0  0  0  0  0  0  0  0  0
   13.5483    1.6308   -3.7883 C   0  0  0  0  0  0  0  0  0  0  0  0
   13.6255    2.7698   -2.9900 C   0  0  0  0  0  0  0  0  0  0  0  0
   14.8795    3.0153   -2.4856 C   0  0  0  0  0  0  0  0  0  0  0  0
   15.9789    2.1906   -2.7609 C   0  0  0  0  0  0  0  0  0  0  0  0
   15.9178    1.0694   -3.5537 C   0  0  0  0  0  0  0  0  0  0  0  0
   14.6485    0.7970   -4.0733 C   0  0  0  0  0  0  0  0  0  0  0  0
   14.1982   -0.2942   -4.9347 C   0  0  0  0  0  0  0  0  0  0  0  0
   15.0035   -1.2747   -5.4534 C   0  0  0  0  0  0  0  0  0  0  0  0
   14.5938   -2.3223   -6.3055 C   0  0  0  0  0  0  0  0  0  0  0  0
   14.3572   -3.2062   -7.0003 N   0  0  0  0  0  0  0  0  0  0  0  0
   16.3915   -1.3771   -5.2197 C   0  0  0  0  0  0  0  0  0  0  0  0
   17.5197   -1.5338   -5.0751 N   0  0  0  0  0  0  0  0  0  0  0  0
   16.9146    3.0231   -1.9211 C   0  0  0  0  0  0  0  0  0  0  0  0
   17.2990    2.4849   -0.5205 C   0  0  0  0  0  0  0  0  0  0  0  0
   16.1612    1.6015   -0.0723 C   0  0  0  0  0  0  0  0  0  0  0  0
   15.1210    2.3820    0.1885 C   0  0  0  0  0  0  0  0  0  0  0  0
   15.5366    3.8075   -0.0791 C   0  0  0  0  0  0  0  0  0  0  0  0
   17.0181    3.7377    0.3247 C   0  0  0  0  0  0  0  0  0  0  0  0
   15.6900    3.9419   -1.6146 C   0  0  0  0  0  0  0  0  0  0  0  0
   10.5627   -0.9833   -6.0213 C   0  0  0  0  0  0  0  0  0  0  0  0
    9.9085   -1.9968   -6.6985 C   0  0  0  0  0  0  0  0  0  0  0  0
    8.5158   -1.8434   -6.7593 C   0  0  0  0  0  0  0  0  0  0  0  0
    7.5572   -2.7315   -7.3103 C   0  0  0  0  0  0  0  0  0  0  0  0
    7.9395   -3.8997   -8.0654 C   0  0  0  0  0  0  0  0  0  0  0  0
    8.9570   -4.0405   -8.9712 C   0  0  0  0  0  0  0  0  0  0  0  0
    8.9797   -5.3039   -9.5874 C   0  0  0  0  0  0  0  0  0  0  0  0
   10.1141   -5.7588  -10.7923 Cl  0  0  0  0  0  0  0  0  0  0  0  0
    7.9861   -6.1467   -9.1531 C   0  0  0  0  0  0  0  0  0  0  0  0
    7.6902   -7.7607   -9.7279 S   0  0  0  0  0  0  0  0  0  0  0  0
    6.1714   -8.1678   -8.7851 C   0  0  0  0  0  0  0  0  0  0  0  0
    5.6125   -9.4923   -9.2637 C   0  0  0  0  0  0  0  0  0  0  0  0
    7.0051   -5.3708   -7.9545 S   0  0  0  0  0  0  0  0  0  0  0  0
    6.2256   -2.4020   -7.0991 C   0  0  0  0  0  0  0  0  0  0  0  0
    5.8034   -1.2195   -6.4406 C   0  0  0  0  0  0  0  0  0  0  0  0
    6.7571   -0.3324   -5.9012 C   0  0  0  0  0  0  0  0  0  0  0  0
    6.3558    0.8379   -5.1543 C   0  0  0  0  0  0  0  0  0  0  0  0
    7.2474    2.3301   -5.2874 S   0  0  0  0  0  0  0  0  0  0  0  0
    6.2053    3.1187   -4.1489 C   0  0  0  0  0  0  0  0  0  0  0  0
    6.4010    4.7631   -3.6077 S   0  0  0  0  0  0  0  0  0  0  0  0
    7.8932    5.2848   -4.5232 C   0  0  0  0  0  0  0  0  0  0  0  0
    7.5837    5.6770   -5.9545 C   0  0  0  0  0  0  0  0  0  0  0  0
    5.2328    2.2563   -3.7092 C   0  0  0  0  0  0  0  0  0  0  0  0
    5.3170    0.9713   -4.2732 C   0  0  0  0  0  0  0  0  0  0  0  0
    4.0368    2.7155   -2.5645 Cl  0  0  0  0  0  0  0  0  0  0  0  0
    8.0973   -0.6665   -6.0842 C   0  0  0  0  0  0  0  0  0  0  0  0
    9.4427    0.2316   -5.4446 S   0  0  0  0  0  0  0  0  0  0  0  0
    4.3965   -1.0972   -6.4399 C   0  0  0  0  0  0  0  0  0  0  0  0
    3.7436   -2.1467   -7.0270 C   0  0  0  0  0  0  0  0  0  0  0  0
    4.8613   -3.3376   -7.6555 S   0  0  0  0  0  0  0  0  0  0  0  0
    2.3377   -2.3608   -7.0269 C   0  0  0  0  0  0  0  0  0  0  0  0
    1.6001   -3.4172   -7.5332 C   0  0  0  0  0  0  0  0  0  0  0  0
    2.1280   -4.4678   -8.4085 C   0  0  0  0  0  0  0  0  0  0  0  0
    1.9549   -5.8077   -8.0792 C   0  0  0  0  0  0  0  0  0  0  0  0
    2.4538   -6.7893   -8.9149 C   0  0  0  0  0  0  0  0  0  0  0  0
    3.1186   -6.4455  -10.0789 C   0  0  0  0  0  0  0  0  0  0  0  0
    3.2860   -5.1116  -10.4312 C   0  0  0  0  0  0  0  0  0  0  0  0
    4.0458   -4.7336  -11.6695 C   0  0  0  0  0  0  0  0  0  0  0  0
    5.5461   -4.6796  -11.3741 C   0  0  0  0  0  0  0  0  0  0  0  0
    2.7823   -4.1318   -9.5900 C   0  0  0  0  0  0  0  0  0  0  0  0
    0.2611   -3.3595   -7.1002 C   0  0  0  0  0  0  0  0  0  0  0  0
   -1.1123   -4.4202   -7.3210 S   0  0  0  0  0  0  0  0  0  0  0  0
   -2.0540   -3.3850   -6.2971 C   0  0  0  0  0  0  0  0  0  0  0  0
   -3.3329   -3.3272   -5.7111 C   0  0  0  0  0  0  0  0  0  0  0  0
   -4.4867   -4.1319   -5.8422 C   0  0  0  0  0  0  0  0  0  0  0  0
   -5.6612   -3.8040   -5.0776 C   0  0  0  0  0  0  0  0  0  0  0  0
   -6.6709   -4.6208   -5.3310 N   0  0  0  0  0  0  0  0  0  0  0  0
   -6.1916   -5.7085   -6.4300 S   0  0  0  0  0  0  0  0  0  0  0  0
   -4.6729   -5.1827   -6.6248 N   0  0  0  0  0  0  0  0  0  0  0  0
   -5.5930   -2.7646   -4.1219 C   0  0  0  0  0  0  0  0  0  0  0  0
   -6.4531   -2.3930   -3.0740 C   0  0  0  0  0  0  0  0  0  0  0  0
   -7.9870   -2.8480   -2.4066 S   0  0  0  0  0  0  0  0  0  0  0  0
   -7.6906   -1.7804   -1.0547 C   0  0  0  0  0  0  0  0  0  0  0  0
   -8.4204   -1.4921    0.1138 C   0  0  0  0  0  0  0  0  0  0  0  0
   -9.7424   -2.0499    0.4203 C   0  0  0  0  0  0  0  0  0  0  0  0
   -9.9205   -3.4242    0.5261 C   0  0  0  0  0  0  0  0  0  0  0  0
  -11.1738   -3.9308    0.8151 C   0  0  0  0  0  0  0  0  0  0  0  0
  -12.2532   -3.0793    0.9707 C   0  0  0  0  0  0  0  0  0  0  0  0
  -12.0975   -1.7052    0.8355 C   0  0  0  0  0  0  0  0  0  0  0  0
  -13.2671   -0.7761    0.9952 C   0  0  0  0  0  0  0  0  0  0  0  0
  -13.3934   -0.2987    2.4425 C   0  0  0  0  0  0  0  0  0  0  0  0
  -10.8328   -1.2005    0.5744 C   0  0  0  0  0  0  0  0  0  0  0  0
   -7.7447   -0.5978    0.9212 C   0  0  0  0  0  0  0  0  0  0  0  0
   -6.2180   -0.0771    0.2193 S   0  0  0  0  0  0  0  0  0  0  0  0
   -6.4760   -1.0966   -1.1493 C   0  0  0  0  0  0  0  0  0  0  0  0
   -5.7724   -1.4405   -2.3083 C   0  0  0  0  0  0  0  0  0  0  0  0
   -4.5455   -1.1834   -2.8574 N   0  0  0  0  0  0  0  0  0  0  0  0
   -4.4157   -1.9805   -3.9774 C   0  0  0  0  0  0  0  0  0  0  0  0
   -3.3380   -2.1800   -4.8726 C   0  0  0  0  0  0  0  0  0  0  0  0
   -2.1301   -1.5167   -5.0037 N   0  0  0  0  0  0  0  0  0  0  0  0
   -1.3480   -2.2678   -5.8429 C   0  0  0  0  0  0  0  0  0  0  0  0
   -0.0280   -2.2524   -6.3002 C   0  0  0  0  0  0  0  0  0  0  0  0
    1.3608   -1.2591   -6.0600 S   0  0  0  0  0  0  0  0  0  0  0  0
   -1.8886   -0.0941   -4.8842 C   0  0  0  0  0  0  0  0  0  0  0  0
   -1.8939    0.5881   -6.2521 C   0  0  0  0  0  0  0  0  0  0  0  0
   -3.5358   -0.4908   -2.0869 C   0  0  0  0  0  0  0  0  0  0  0  0
   -3.7672    1.0195   -2.0542 C   0  0  0  0  0  0  0  0  0  0  0  0
   -8.0291   -0.1748    2.2487 C   0  0  0  0  0  0  0  0  0  0  0  0
   -7.3647    0.7965    2.9429 C   0  0  0  0  0  0  0  0  0  0  0  0
   -7.7525    0.9011    4.2968 C   0  0  0  0  0  0  0  0  0  0  0  0
   -7.2186    1.7507    5.2824 C   0  0  0  0  0  0  0  0  0  0  0  0
   -6.1093    2.6376    5.0068 C   0  0  0  0  0  0  0  0  0  0  0  0
   -4.9781    2.3940    4.2775 C   0  0  0  0  0  0  0  0  0  0  0  0
   -4.0753    3.4733    4.2836 C   0  0  0  0  0  0  0  0  0  0  0  0
   -2.5618    3.4470    3.4715 Cl  0  0  0  0  0  0  0  0  0  0  0  0
   -4.5075    4.5523    5.0123 C   0  0  0  0  0  0  0  0  0  0  0  0
   -3.6431    6.0505    5.2125 S   0  0  0  0  0  0  0  0  0  0  0  0
   -4.5876    6.8533    6.5566 C   0  0  0  0  0  0  0  0  0  0  0  0
   -4.3487    6.2179    7.9119 C   0  0  0  0  0  0  0  0  0  0  0  0
   -6.0730    4.2416    5.6878 S   0  0  0  0  0  0  0  0  0  0  0  0
   -7.7786    1.6627    6.5541 C   0  0  0  0  0  0  0  0  0  0  0  0
   -8.8009    0.7367    6.8901 C   0  0  0  0  0  0  0  0  0  0  0  0
   -9.3177   -0.1435    5.9047 C   0  0  0  0  0  0  0  0  0  0  0  0
  -10.2967   -1.1655    6.1970 C   0  0  0  0  0  0  0  0  0  0  0  0
  -10.2963   -2.0475    7.7011 S   0  0  0  0  0  0  0  0  0  0  0  0
  -11.6192   -3.0475    7.1897 C   0  0  0  0  0  0  0  0  0  0  0  0
  -12.2441   -4.2522    8.2921 S   0  0  0  0  0  0  0  0  0  0  0  0
  -12.2053   -5.7629    7.2527 C   0  0  0  0  0  0  0  0  0  0  0  0
  -10.8138   -6.0617    6.7344 C   0  0  0  0  0  0  0  0  0  0  0  0
  -12.0204   -2.6959    5.9273 C   0  0  0  0  0  0  0  0  0  0  0  0
  -11.2664   -1.6521    5.3614 C   0  0  0  0  0  0  0  0  0  0  0  0
  -13.3279   -3.4201    5.0797 Cl  0  0  0  0  0  0  0  0  0  0  0  0
   -8.7856   -0.0147    4.6267 C   0  0  0  0  0  0  0  0  0  0  0  0
   -9.2209   -0.9881    3.2418 S   0  0  0  0  0  0  0  0  0  0  0  0
   -9.1559    0.8511    8.2438 C   0  0  0  0  0  0  0  0  0  0  0  0
   -8.4179    1.7843    8.9488 C   0  0  0  0  0  0  0  0  0  0  0  0
   -7.2551    2.5921    7.9236 S   0  0  0  0  0  0  0  0  0  0  0  0
   -8.6137    2.0159   10.3274 C   0  0  0  0  0  0  0  0  0  0  0  0
   -7.9301    2.8247   11.1900 C   0  0  0  0  0  0  0  0  0  0  0  0
   -6.7545    3.6545   10.8697 C   0  0  0  0  0  0  0  0  0  0  0  0
   -6.2653    3.8702    9.7764 O   0  0  0  0  0  0  0  0  0  0  0  0
   -6.2645    4.1876   12.1496 C   0  0  0  0  0  0  0  0  0  0  0  0
   -5.1312    4.9755   12.3437 C   0  0  0  0  0  0  0  0  0  0  0  0
   -4.9023    5.3087   13.6563 C   0  0  0  0  0  0  0  0  0  0  0  0
   -5.7376    4.8861   14.6999 C   0  0  0  0  0  0  0  0  0  0  0  0
   -6.8576    4.1094   14.5214 C   0  0  0  0  0  0  0  0  0  0  0  0
   -7.1136    3.7621   13.1906 C   0  0  0  0  0  0  0  0  0  0  0  0
   -8.1888    2.9566   12.6154 C   0  0  0  0  0  0  0  0  0  0  0  0
   -9.2621    2.4605   13.3074 C   0  0  0  0  0  0  0  0  0  0  0  0
  -10.3335    1.7259   12.7552 C   0  0  0  0  0  0  0  0  0  0  0  0
  -11.2505    1.1375   12.3917 N   0  0  0  0  0  0  0  0  0  0  0  0
   -9.4718    2.6427   14.6911 C   0  0  0  0  0  0  0  0  0  0  0  0
   -9.7098    2.7515   15.8089 N   0  0  0  0  0  0  0  0  0  0  0  0
   -4.9081    5.5801   15.7512 C   0  0  0  0  0  0  0  0  0  0  0  0
   -5.4647    6.9096   16.3034 C   0  0  0  0  0  0  0  0  0  0  0  0
   -4.2577    7.5763   16.9230 C   0  0  0  0  0  0  0  0  0  0  0  0
   -3.4664    7.9763   15.9359 C   0  0  0  0  0  0  0  0  0  0  0  0
   -4.1253    7.5868   14.6322 C   0  0  0  0  0  0  0  0  0  0  0  0
   -5.6000    7.7456   15.0241 C   0  0  0  0  0  0  0  0  0  0  0  0
   -3.9772    6.0511   14.5880 C   0  0  0  0  0  0  0  0  0  0  0  0
   12.4317   -1.8711   -6.2587 H   0  0  0  0  0  0  0  0  0  0  0  0
   12.7527    3.3766   -2.8056 H   0  0  0  0  0  0  0  0  0  0  0  0
   16.7749    0.4493   -3.7551 H   0  0  0  0  0  0  0  0  0  0  0  0
   17.7627    3.4604   -2.4441 H   0  0  0  0  0  0  0  0  0  0  0  0
   18.2942    2.0528   -0.4610 H   0  0  0  0  0  0  0  0  0  0  0  0
   16.2108    0.5287   -0.0458 H   0  0  0  0  0  0  0  0  0  0  0  0
   14.1274    2.0916    0.4760 H   0  0  0  0  0  0  0  0  0  0  0  0
   14.9276    4.5800    0.3832 H   0  0  0  0  0  0  0  0  0  0  0  0
   17.1561    3.5658    1.3911 H   0  0  0  0  0  0  0  0  0  0  0  0
   17.5941    4.6086    0.0148 H   0  0  0  0  0  0  0  0  0  0  0  0
   15.7383    4.9801   -1.9374 H   0  0  0  0  0  0  0  0  0  0  0  0
   10.4343   -2.8450   -7.0991 H   0  0  0  0  0  0  0  0  0  0  0  0
    9.6361   -3.2521   -9.2376 H   0  0  0  0  0  0  0  0  0  0  0  0
    5.4595   -7.3560   -8.9441 H   0  0  0  0  0  0  0  0  0  0  0  0
    6.4448   -8.2084   -7.7304 H   0  0  0  0  0  0  0  0  0  0  0  0
    6.3367  -10.2902   -9.1176 H   0  0  0  0  0  0  0  0  0  0  0  0
    4.7114   -9.7315   -8.7038 H   0  0  0  0  0  0  0  0  0  0  0  0
    5.3647   -9.4426  -10.3213 H   0  0  0  0  0  0  0  0  0  0  0  0
    8.6117    4.4668   -4.4710 H   0  0  0  0  0  0  0  0  0  0  0  0
    8.2711    6.1361   -3.9574 H   0  0  0  0  0  0  0  0  0  0  0  0
    8.4959    6.0048   -6.4480 H   0  0  0  0  0  0  0  0  0  0  0  0
    6.8612    6.4896   -5.9781 H   0  0  0  0  0  0  0  0  0  0  0  0
    7.1786    4.8331   -6.5076 H   0  0  0  0  0  0  0  0  0  0  0  0
    4.6632    0.1688   -3.9869 H   0  0  0  0  0  0  0  0  0  0  0  0
    3.8720   -0.2528   -6.0314 H   0  0  0  0  0  0  0  0  0  0  0  0
    1.4416   -6.0741   -7.1676 H   0  0  0  0  0  0  0  0  0  0  0  0
    2.3208   -7.8298   -8.6569 H   0  0  0  0  0  0  0  0  0  0  0  0
    3.4997   -7.2188  -10.7307 H   0  0  0  0  0  0  0  0  0  0  0  0
    3.7133   -3.7556  -12.0221 H   0  0  0  0  0  0  0  0  0  0  0  0
    3.8606   -5.4640  -12.4595 H   0  0  0  0  0  0  0  0  0  0  0  0
    5.7466   -3.9856  -10.5602 H   0  0  0  0  0  0  0  0  0  0  0  0
    6.0976   -4.3537  -12.2525 H   0  0  0  0  0  0  0  0  0  0  0  0
    5.9118   -5.6619  -11.0863 H   0  0  0  0  0  0  0  0  0  0  0  0
    2.8881   -3.0900   -9.8585 H   0  0  0  0  0  0  0  0  0  0  0  0
   -9.0771   -4.0855    0.3947 H   0  0  0  0  0  0  0  0  0  0  0  0
  -11.3109   -4.9976    0.9122 H   0  0  0  0  0  0  0  0  0  0  0  0
  -13.2308   -3.4849    1.1883 H   0  0  0  0  0  0  0  0  0  0  0  0
  -14.1863   -1.2890    0.7055 H   0  0  0  0  0  0  0  0  0  0  0  0
  -13.1389    0.0898    0.3422 H   0  0  0  0  0  0  0  0  0  0  0  0
  -12.4894    0.2248    2.7485 H   0  0  0  0  0  0  0  0  0  0  0  0
  -13.5506   -1.1457    3.1061 H   0  0  0  0  0  0  0  0  0  0  0  0
  -14.2362    0.3806    2.5471 H   0  0  0  0  0  0  0  0  0  0  0  0
  -10.6907   -0.1336    0.4702 H   0  0  0  0  0  0  0  0  0  0  0  0
   -0.9197    0.0598   -4.3980 H   0  0  0  0  0  0  0  0  0  0  0  0
   -2.6751    0.3466   -4.2814 H   0  0  0  0  0  0  0  0  0  0  0  0
   -2.8387    0.4054   -6.7600 H   0  0  0  0  0  0  0  0  0  0  0  0
   -1.0855    0.2204   -6.8775 H   0  0  0  0  0  0  0  0  0  0  0  0
   -1.7674    1.6594   -6.1221 H   0  0  0  0  0  0  0  0  0  0  0  0
   -2.5519   -0.7412   -2.4828 H   0  0  0  0  0  0  0  0  0  0  0  0
   -3.5861   -0.8689   -1.0592 H   0  0  0  0  0  0  0  0  0  0  0  0
   -2.9383    1.5051   -1.5475 H   0  0  0  0  0  0  0  0  0  0  0  0
   -3.8601    1.4371   -3.0544 H   0  0  0  0  0  0  0  0  0  0  0  0
   -4.6809    1.2466   -1.5122 H   0  0  0  0  0  0  0  0  0  0  0  0
   -6.6216    1.4250    2.4870 H   0  0  0  0  0  0  0  0  0  0  0  0
   -4.7592    1.4569    3.8004 H   0  0  0  0  0  0  0  0  0  0  0  0
   -4.2336    7.8843    6.5388 H   0  0  0  0  0  0  0  0  0  0  0  0
   -5.6403    6.8298    6.2761 H   0  0  0  0  0  0  0  0  0  0  0  0
   -4.7422    5.2052    7.9528 H   0  0  0  0  0  0  0  0  0  0  0  0
   -4.8554    6.8040    8.6759 H   0  0  0  0  0  0  0  0  0  0  0  0
   -3.2847    6.1939    8.1370 H   0  0  0  0  0  0  0  0  0  0  0  0
  -12.5545   -6.5424    7.9290 H   0  0  0  0  0  0  0  0  0  0  0  0
  -12.9226   -5.6408    6.4437 H   0  0  0  0  0  0  0  0  0  0  0  0
  -10.1061   -6.1336    7.5575 H   0  0  0  0  0  0  0  0  0  0  0  0
  -10.4791   -5.2799    6.0548 H   0  0  0  0  0  0  0  0  0  0  0  0
  -10.8200   -7.0065    6.1948 H   0  0  0  0  0  0  0  0  0  0  0  0
  -11.4816   -1.2552    4.3879 H   0  0  0  0  0  0  0  0  0  0  0  0
   -9.9340    0.2779    8.7147 H   0  0  0  0  0  0  0  0  0  0  0  0
   -9.4194    1.4218   10.7419 H   0  0  0  0  0  0  0  0  0  0  0  0
   -4.5120    5.2679   11.5099 H   0  0  0  0  0  0  0  0  0  0  0  0
   -7.4809    3.7857   15.3378 H   0  0  0  0  0  0  0  0  0  0  0  0
   -4.4915    4.9390   16.5256 H   0  0  0  0  0  0  0  0  0  0  0  0
   -6.3451    6.8079   16.9318 H   0  0  0  0  0  0  0  0  0  0  0  0
   -4.0830    7.6366   17.9811 H   0  0  0  0  0  0  0  0  0  0  0  0
   -2.4986    8.4374   16.0046 H   0  0  0  0  0  0  0  0  0  0  0  0
   -3.7850    8.1034   13.7387 H   0  0  0  0  0  0  0  0  0  0  0  0
   -6.2992    7.3354   14.2977 H   0  0  0  0  0  0  0  0  0  0  0  0
   -5.8603    8.7813   15.2354 H   0  0  0  0  0  0  0  0  0  0  0  0
   -2.9393    5.7234   14.5858 H   0  0  0  0  0  0  0  0  0  0  0  0
  1  2  2  0  0  0  0
  2  3  1  0  0  0  0
  3  4  2  0  0  0  0
  3  5  1  0  0  0  0
  5  6  2  0  0  0  0
  6  7  1  0  0  0  0
  7  8  2  0  0  0  0
  8  9  1  0  0  0  0
  9 10  2  0  0  0  0
 10 11  1  0  0  0  0
 11 12  2  0  0  0  0
 12 13  1  0  0  0  0
 13 14  3  0  0  0  0
 12 15  1  0  0  0  0
 15 16  3  0  0  0  0
  8 17  1  0  0  0  0
 17 18  1  0  0  0  0
 18 19  1  0  0  0  0
 19 20  2  0  0  0  0
 20 21  1  0  0  0  0
 21 22  1  0  0  0  0
 21 23  1  0  0  0  0
  1 24  1  0  0  0  0
 24 25  2  0  0  0  0
 25 26  1  0  0  0  0
 26 27  2  0  0  0  0
 27 28  1  0  0  0  0
 28 29  2  0  0  0  0
 29 30  1  0  0  0  0
 30 31  1  0  0  0  0
 30 32  2  0  0  0  0
 32 33  1  0  0  0  0
 33 34  1  0  0  0  0
 34 35  1  0  0  0  0
 32 36  1  0  0  0  0
 27 37  1  0  0  0  0
 37 38  2  0  0  0  0
 38 39  1  0  0  0  0
 39 40  1  0  0  0  0
 40 41  1  0  0  0  0
 41 42  1  0  0  0  0
 42 43  1  0  0  0  0
 43 44  1  0  0  0  0
 44 45  1  0  0  0  0
 42 46  2  0  0  0  0
 46 47  1  0  0  0  0
 46 48  1  0  0  0  0
 39 49  2  0  0  0  0
 49 50  1  0  0  0  0
 38 51  1  0  0  0  0
 51 52  2  0  0  0  0
 52 53  1  0  0  0  0
 52 54  1  0  0  0  0
 54 55  2  0  0  0  0
 55 56  1  0  0  0  0
 56 57  2  0  0  0  0
 57 58  1  0  0  0  0
 58 59  2  0  0  0  0
 59 60  1  0  0  0  0
 60 61  1  0  0  0  0
 61 62  1  0  0  0  0
 60 63  2  0  0  0  0
 55 64  1  0  0  0  0
 64 65  1  0  0  0  0
 65 66  1  0  0  0  0
 66 67  1  0  0  0  0
 67 68  1  0  0  0  0
 68 69  1  0  0  0  0
 69 70  2  0  0  0  0
 70 71  1  0  0  0  0
 71 72  1  0  0  0  0
 69 73  1  0  0  0  0
 73 74  1  0  0  0  0
 74 75  1  0  0  0  0
 75 76  1  0  0  0  0
 76 77  1  0  0  0  0
 77 78  1  0  0  0  0
 78 79  2  0  0  0  0
 79 80  1  0  0  0  0
 80 81  2  0  0  0  0
 81 82  1  0  0  0  0
 82 83  1  0  0  0  0
 83 84  1  0  0  0  0
 82 85  2  0  0  0  0
 77 86  2  0  0  0  0
 86 87  1  0  0  0  0
 87 88  1  0  0  0  0
 88 89  1  0  0  0  0
 89 90  1  0  0  0  0
 90 91  1  0  0  0  0
 91 92  1  0  0  0  0
 92 93  1  0  0  0  0
 93 94  1  0  0  0  0
 94 95  1  0  0  0  0
 95 96  1  0  0  0  0
 93 97  1  0  0  0  0
 97 98  1  0  0  0  0
 90 99  1  0  0  0  0
 99100  1  0  0  0  0
 86101  1  0  0  0  0
101102  2  0  0  0  0
102103  1  0  0  0  0
103104  2  0  0  0  0
104105  1  0  0  0  0
105106  2  0  0  0  0
106107  1  0  0  0  0
107108  1  0  0  0  0
107109  2  0  0  0  0
109110  1  0  0  0  0
110111  1  0  0  0  0
111112  1  0  0  0  0
109113  1  0  0  0  0
104114  1  0  0  0  0
114115  2  0  0  0  0
115116  1  0  0  0  0
116117  1  0  0  0  0
117118  1  0  0  0  0
118119  1  0  0  0  0
119120  1  0  0  0  0
120121  1  0  0  0  0
121122  1  0  0  0  0
119123  2  0  0  0  0
123124  1  0  0  0  0
123125  1  0  0  0  0
116126  2  0  0  0  0
126127  1  0  0  0  0
115128  1  0  0  0  0
128129  2  0  0  0  0
129130  1  0  0  0  0
129131  1  0  0  0  0
131132  2  0  0  0  0
132133  1  0  0  0  0
133134  2  0  0  0  0
133135  1  0  0  0  0
135136  2  0  0  0  0
136137  1  0  0  0  0
137138  2  0  0  0  0
138139  1  0  0  0  0
139140  2  0  0  0  0
140141  1  0  0  0  0
141142  2  0  0  0  0
142143  1  0  0  0  0
143144  3  0  0  0  0
142145  1  0  0  0  0
145146  3  0  0  0  0
138147  1  0  0  0  0
147148  1  0  0  0  0
148149  1  0  0  0  0
149150  2  0  0  0  0
150151  1  0  0  0  0
151152  1  0  0  0  0
151153  1  0  0  0  0
 11  2  1  0  0  0  0
 23 17  1  0  0  0  0
 50 24  1  0  0  0  0
 96 54  1  0  0  0  0
127101  1  0  0  0  0
141132  1  0  0  0  0
153147  1  0  0  0  0
 10  5  1  0  0  0  0
 22 18  1  0  0  0  0
 49 26  1  0  0  0  0
 63 56  1  0  0  0  0
 95 64  2  0  0  0  0
126103  1  0  0  0  0
140135  1  0  0  0  0
152148  1  0  0  0  0
 23  7  1  0  0  0  0
 36 28  1  0  0  0  0
 53 37  1  0  0  0  0
 94 66  2  0  0  0  0
113105  1  0  0  0  0
130114  1  0  0  0  0
153137  1  0  0  0  0
 47 40  2  0  0  0  0
 92 67  2  0  0  0  0
124117  2  0  0  0  0
 72 68  2  0  0  0  0
 91 73  2  0  0  0  0
 89 74  2  0  0  0  0
 88 76  2  0  0  0  0
 85 78  1  0  0  0  0
  1154  1  0  0  0  0
  6155  1  0  0  0  0
  9156  1  0  0  0  0
 17157  1  0  0  0  0
 18158  1  0  0  0  0
 19159  1  0  0  0  0
 20160  1  0  0  0  0
 21161  1  0  0  0  0
 22162  1  0  0  0  0
 22163  1  0  0  0  0
 23164  1  0  0  0  0
 25165  1  0  0  0  0
 29166  1  0  0  0  0
 34167  1  0  0  0  0
 34168  1  0  0  0  0
 35169  1  0  0  0  0
 35170  1  0  0  0  0
 35171  1  0  0  0  0
 44172  1  0  0  0  0
 44173  1  0  0  0  0
 45174  1  0  0  0  0
 45175  1  0  0  0  0
 45176  1  0  0  0  0
 47177  1  0  0  0  0
 51178  1  0  0  0  0
 57179  1  0  0  0  0
 58180  1  0  0  0  0
 59181  1  0  0  0  0
 61182  1  0  0  0  0
 61183  1  0  0  0  0
 62184  1  0  0  0  0
 62185  1  0  0  0  0
 62186  1  0  0  0  0
 63187  1  0  0  0  0
 79188  1  0  0  0  0
 80189  1  0  0  0  0
 81190  1  0  0  0  0
 83191  1  0  0  0  0
 83192  1  0  0  0  0
 84193  1  0  0  0  0
 84194  1  0  0  0  0
 84195  1  0  0  0  0
 85196  1  0  0  0  0
 97197  1  0  0  0  0
 97198  1  0  0  0  0
 98199  1  0  0  0  0
 98200  1  0  0  0  0
 98201  1  0  0  0  0
 99202  1  0  0  0  0
 99203  1  0  0  0  0
100204  1  0  0  0  0
100205  1  0  0  0  0
100206  1  0  0  0  0
102207  1  0  0  0  0
106208  1  0  0  0  0
111209  1  0  0  0  0
111210  1  0  0  0  0
112211  1  0  0  0  0
112212  1  0  0  0  0
112213  1  0  0  0  0
121214  1  0  0  0  0
121215  1  0  0  0  0
122216  1  0  0  0  0
122217  1  0  0  0  0
122218  1  0  0  0  0
124219  1  0  0  0  0
128220  1  0  0  0  0
131221  1  0  0  0  0
136222  1  0  0  0  0
139223  1  0  0  0  0
147224  1  0  0  0  0
148225  1  0  0  0  0
149226  1  0  0  0  0
150227  1  0  0  0  0
151228  1  0  0  0  0
152229  1  0  0  0  0
152230  1  0  0  0  0
153231  1  0  0  0  0
M  END
