175

C         -9.24810        0.69890       -7.41770
C        -10.17790        1.02570       -6.46280
C         -9.87170        1.48970       -5.11430
O         -8.76130        1.61500       -4.61070
C        -11.15570        1.78750       -4.46530
C        -11.35550        2.27890       -3.17760
C        -12.67690        2.47130       -2.85240
C        -13.72270        2.18970       -3.74100
C        -13.53870        1.69860       -5.01250
C        -12.20200        1.50080       -5.36710
C        -11.62010        1.01130       -6.61760
C        -12.33140        0.60840       -7.71800
C        -11.78090        0.12600       -8.92400
N        -11.42180       -0.27880       -9.93770
C        -13.73960        0.61250       -7.80690
N        -14.87780        0.58580       -7.95560
C        -14.78050        2.63360       -2.76230
C        -15.42750        4.02340       -2.98340
C        -14.41000        4.85800       -3.72090
C        -13.41960        5.12540       -2.88020
C        -13.74950        4.47620       -1.55880
C        -15.28100        4.60590       -1.56850
C        -13.61490        2.94790       -1.77210
C         -7.84520        0.70590       -7.36260
C         -7.08390        0.35730       -8.47850
C         -5.69860        0.42740       -8.35830
C         -4.77680        0.01000       -9.46520
C         -5.02320        0.78200      -10.75990
C         -5.28190        0.83320       -7.09640
Se        -6.70790        1.15170       -5.92390
C         -3.92830        1.04530       -6.66910
C         -2.96540        1.84820       -7.24350
C         -3.22590        2.75260       -8.36320
C         -2.28880        2.93000       -9.37720
C         -2.56330        3.79180      -10.42200
C         -3.76390        4.48080      -10.46750
C         -4.70190        4.33050       -9.45370
C         -6.02630        5.03750       -9.49480
C         -7.13840        4.07310       -9.91290
C         -4.41720        3.46930       -8.40520
C         -1.74550        1.76980       -6.53660
S         -0.19470        2.53970       -6.76590
C          0.38550        1.73390       -5.34840
C          1.57120        1.60650       -4.60970
C          2.86380        2.11920       -4.85140
C          3.93630        1.72190       -3.98810
N          5.10070        2.23190       -4.35810
S          4.86480        3.13900       -5.67870
N          3.26860        2.91380       -5.83000
C          3.64420        0.91270       -2.86920
C          4.46870        0.45960       -1.83010
S          6.13600        0.50190       -1.37060
C          5.72660       -0.38370        0.07970
C          6.50390       -0.87810        1.13500
C          7.96180       -0.75430        1.17820
C          8.76420       -1.87560        1.37730
C         10.13870       -1.74430        1.37510
C         10.72160       -0.50390        1.17840
C          9.93610        0.62160        0.96680
C         10.55800        1.97700        0.79750
C         10.65850        2.68370        2.15110
C          8.55610        0.48330        0.96350
C          5.72640       -1.56110        2.06600
S          4.02700       -1.58630        1.61580
C          4.36250       -0.68270        0.18570
C          3.64510       -0.20540       -0.91700
N          2.35120       -0.20560       -1.36620
C          2.32200        0.46690       -2.57760
C          1.29150        0.73400       -3.51940
N         -0.03020        0.32500       -3.62390
C         -0.56780        0.92300       -4.73100
C         -1.79260        0.94190       -5.41490
S         -3.35860        0.23050       -5.22450
C         -0.70590       -0.80690       -3.03050
C          0.00780       -2.11730       -3.35410
C          1.28180       -0.52350       -0.44600
C          0.49060        0.72220       -0.05540
C          6.15370       -2.03360        3.33340
S          7.46060       -1.20790        4.13330
C          7.31730       -2.15640        5.60000
C          6.30660       -3.08870        5.42430
S          5.74870       -4.38760        6.41640
C          4.62100       -4.86630        5.17570
C          3.69300       -5.94590        5.51420
O          2.84180       -6.40530        4.79500
O          3.91330       -6.32240        6.77930
C          3.02640       -7.28160        7.35300
C          3.16490       -7.20170        8.86210
C          4.68690       -4.08750        4.05110
C          5.65000       -3.04160        4.16070
Cl         3.73570       -4.43080        2.68310
C          8.23400       -1.93400        6.64100
C          8.20960       -2.35550        7.94110
C          9.48760       -2.40980        8.70410
O         10.54130       -1.90430        8.38890
C          9.20110       -3.24910        9.88380
C         10.10740       -3.69490       10.84340
C          9.54800       -4.48970       11.81550
C          8.18760       -4.82350       11.83320
C          7.28030       -4.38710       10.89600
C          7.82840       -3.57280        9.90270
C          7.17810       -2.90240        8.77760
C          5.82960       -2.65270        8.66340
C          4.83970       -3.22170        9.48650
N          3.98470       -3.68520       10.09780
C          5.30620       -1.71580        7.75060
N          4.85530       -0.93290        7.04210
C          8.32480       -5.65060       13.08760
C          7.82920       -5.00320       14.39810
C          8.51390       -5.80690       15.48010
C          9.80220       -5.48950       15.46440
C         10.00990       -4.46610       14.37140
C          8.67090       -3.72150       14.44910
C          9.84180       -5.27680       13.06890
H         -9.63150        0.40100       -8.38730
H        -10.52030        2.48010       -2.52520
H        -14.35620        1.48770       -5.68120
H        -15.50820        1.87880       -2.47110
H        -16.42530        3.99330       -3.41250
H        -14.48540        5.11200       -4.76200
H        -12.50170        5.64720       -3.07860
H        -13.22000        4.85920       -0.69030
H        -15.77200        4.00970       -0.80070
H        -15.61640        5.63970       -1.50210
H        -13.58140        2.39900       -0.83300
H         -7.56410        0.03900       -9.38990
H         -3.74120        0.14620       -9.15190
H         -4.93230       -1.05710       -9.65380
H         -4.88910        1.84760      -10.59840
H         -4.31950        0.45820      -11.52280
H         -6.03110        0.61070      -11.12870
H         -1.35770        2.38450       -9.35070
H         -1.83760        3.92450      -11.21060
H         -3.97190        5.14560      -11.29350
H         -6.25680        5.43930       -8.50540
H         -5.98290        5.86940      -10.20000
H         -6.94040        3.67290      -10.90500
H         -7.20370        3.24060       -9.21480
H         -8.09780        4.58480       -9.93150
H         -5.12960        3.36680       -7.59760
H          8.30580       -2.84370        1.51830
H         10.76060       -2.61450        1.52440
H         11.79780       -0.41000        1.18190
H          9.95070        2.57960        0.11950
H         11.55600        1.87710        0.36700
H          9.67060        2.80280        2.59020
H         11.10850        3.66670        2.03440
H         11.26830        2.10110        2.83800
H          7.93200        1.35040        0.80410
H         -1.71020       -0.82880       -3.46070
H         -0.82240       -0.66670       -1.95580
H          1.03830       -2.10130       -3.00690
H          0.01580       -2.27930       -4.42960
H         -0.51020       -2.94830       -2.88310
H          1.75500       -0.94280        0.44530
H          0.63580       -1.29890       -0.85830
H          1.14350        1.43470        0.44350
H          0.06320        1.20900       -0.92890
H         -0.31150        0.45270        0.62630
H          2.00550       -7.05390        7.02720
H          3.29320       -8.27650        6.97780
H          2.95880       -6.19050        9.20440
H          2.46630       -7.88860        9.33060
H          4.17710       -7.46420        9.15820
H          9.13980       -1.40840        6.35390
H         11.14940       -3.42070       10.79240
H          6.23700       -4.65670       10.91060
H          8.04560       -6.69890       12.99870
H          6.75050       -4.89790       14.47410
H          8.01740       -6.54030       16.08810
H         10.59660       -5.90470       16.05650
H         10.91810       -3.87160       14.42400
H          8.55100       -3.18770       15.39040
H          8.49280       -3.04050       13.61900
H         10.57380       -6.07610       12.96760
