
  xtb     02132212123D
 energy: -278.360338809345 gnorm: 0.000277111088 xtb: 6.4.1 (unknown)
166187  0     0  0            999 V2000
   10.1394    0.9198    5.7500 C   0  0  0  0  0  0  0  0  0  0  0  0
   10.3715   -0.4112    5.7117 C   0  0  0  0  0  0  0  0  0  0  0  0
    9.3106   -1.4371    5.4829 C   0  0  0  0  0  0  0  0  0  0  0  0
    8.1510   -1.2512    5.1909 O   0  0  0  0  0  0  0  0  0  0  0  0
    9.9382   -2.7298    5.8076 C   0  0  0  0  0  0  0  0  0  0  0  0
    9.3189   -3.9780    5.7929 C   0  0  0  0  0  0  0  0  0  0  0  0
   10.1384   -5.0145    6.1674 C   0  0  0  0  0  0  0  0  0  0  0  0
   11.4758   -4.8244    6.5447 C   0  0  0  0  0  0  0  0  0  0  0  0
   12.0977   -3.5999    6.5693 C   0  0  0  0  0  0  0  0  0  0  0  0
   11.2839   -2.5305    6.1792 C   0  0  0  0  0  0  0  0  0  0  0  0
   11.5928   -1.1094    6.0851 C   0  0  0  0  0  0  0  0  0  0  0  0
   12.8256   -0.5386    6.2481 C   0  0  0  0  0  0  0  0  0  0  0  0
   13.1024    0.8369    6.0921 C   0  0  0  0  0  0  0  0  0  0  0  0
   13.4063    1.9380    5.9767 N   0  0  0  0  0  0  0  0  0  0  0  0
   14.0003   -1.2498    6.5731 C   0  0  0  0  0  0  0  0  0  0  0  0
   14.9910   -1.7649    6.8396 N   0  0  0  0  0  0  0  0  0  0  0  0
   11.6952   -6.2946    6.7995 C   0  0  0  0  0  0  0  0  0  0  0  0
   12.4771   -7.1006    5.7332 C   0  0  0  0  0  0  0  0  0  0  0  0
   12.2710   -6.3855    4.4208 C   0  0  0  0  0  0  0  0  0  0  0  0
   11.0081   -6.5633    4.0569 C   0  0  0  0  0  0  0  0  0  0  0  0
   10.3373   -7.4025    5.1164 C   0  0  0  0  0  0  0  0  0  0  0  0
   11.5175   -8.2871    5.5489 C   0  0  0  0  0  0  0  0  0  0  0  0
   10.2082   -6.5064    6.3733 C   0  0  0  0  0  0  0  0  0  0  0  0
    8.9141    1.5412    5.2944 C   0  0  0  0  0  0  0  0  0  0  0  0
    8.3331    1.2314    4.0602 C   0  0  0  0  0  0  0  0  0  0  0  0
    8.9869    0.4212    3.2092 F   0  0  0  0  0  0  0  0  0  0  0  0
    7.1461    1.7885    3.6484 C   0  0  0  0  0  0  0  0  0  0  0  0
    6.4630    2.6819    4.4799 C   0  0  0  0  0  0  0  0  0  0  0  0
    7.0465    3.0235    5.7074 C   0  0  0  0  0  0  0  0  0  0  0  0
    8.2533    2.4850    6.0864 C   0  0  0  0  0  0  0  0  0  0  0  0
    5.1615    3.1733    4.0987 C   0  0  0  0  0  0  0  0  0  0  0  0
    4.4435    4.2498    4.5837 C   0  0  0  0  0  0  0  0  0  0  0  0
    4.9563    5.3458    5.4096 C   0  0  0  0  0  0  0  0  0  0  0  0
    6.1606    5.9692    5.0874 C   0  0  0  0  0  0  0  0  0  0  0  0
    6.5930    7.0520    5.8273 C   0  0  0  0  0  0  0  0  0  0  0  0
    5.8320    7.5277    6.8824 C   0  0  0  0  0  0  0  0  0  0  0  0
    4.6284    6.9205    7.2147 C   0  0  0  0  0  0  0  0  0  0  0  0
    3.7620    7.4612    8.3148 C   0  0  0  0  0  0  0  0  0  0  0  0
    2.6725    8.3634    7.7313 C   0  0  0  0  0  0  0  0  0  0  0  0
    4.2004    5.8306    6.4704 C   0  0  0  0  0  0  0  0  0  0  0  0
    3.1223    4.2531    4.0867 C   0  0  0  0  0  0  0  0  0  0  0  0
    1.7492    5.2904    4.3927 S   0  0  0  0  0  0  0  0  0  0  0  0
    0.8077    4.3199    3.3135 C   0  0  0  0  0  0  0  0  0  0  0  0
   -0.5197    4.2089    2.8678 C   0  0  0  0  0  0  0  0  0  0  0  0
   -1.6999    4.8622    3.2861 C   0  0  0  0  0  0  0  0  0  0  0  0
   -2.9650    4.3861    2.8008 C   0  0  0  0  0  0  0  0  0  0  0  0
   -3.9879    5.0322    3.3372 N   0  0  0  0  0  0  0  0  0  0  0  0
   -3.4106    6.1478    4.3600 S   0  0  0  0  0  0  0  0  0  0  0  0
   -1.8320    5.8474    4.1599 N   0  0  0  0  0  0  0  0  0  0  0  0
   -2.9788    3.3907    1.7991 C   0  0  0  0  0  0  0  0  0  0  0  0
   -4.0255    2.8679    1.0242 C   0  0  0  0  0  0  0  0  0  0  0  0
   -5.7494    2.9663    0.9205 S   0  0  0  0  0  0  0  0  0  0  0  0
   -5.6910    1.9704   -0.5148 C   0  0  0  0  0  0  0  0  0  0  0  0
   -6.7031    1.4832   -1.3610 C   0  0  0  0  0  0  0  0  0  0  0  0
   -8.1180    1.6813   -1.0337 C   0  0  0  0  0  0  0  0  0  0  0  0
   -8.9739    0.5913   -0.8923 C   0  0  0  0  0  0  0  0  0  0  0  0
  -10.2847    0.7936   -0.5047 C   0  0  0  0  0  0  0  0  0  0  0  0
  -10.7480    2.0728   -0.2463 C   0  0  0  0  0  0  0  0  0  0  0  0
   -9.9041    3.1686   -0.3710 C   0  0  0  0  0  0  0  0  0  0  0  0
  -10.3715    4.5515   -0.0225 C   0  0  0  0  0  0  0  0  0  0  0  0
   -9.9850    4.8862    1.4198 C   0  0  0  0  0  0  0  0  0  0  0  0
   -8.5899    2.9599   -0.7635 C   0  0  0  0  0  0  0  0  0  0  0  0
   -6.1683    0.7846   -2.4344 C   0  0  0  0  0  0  0  0  0  0  0  0
   -4.4130    0.6671   -2.3372 S   0  0  0  0  0  0  0  0  0  0  0  0
   -4.3950    1.5934   -0.8784 C   0  0  0  0  0  0  0  0  0  0  0  0
   -3.4433    2.0806    0.0252 C   0  0  0  0  0  0  0  0  0  0  0  0
   -2.0835    2.0549    0.1880 N   0  0  0  0  0  0  0  0  0  0  0  0
   -1.7742    2.8311    1.2881 C   0  0  0  0  0  0  0  0  0  0  0  0
   -0.5515    3.1285    1.9443 C   0  0  0  0  0  0  0  0  0  0  0  0
    0.7150    2.5673    1.8748 N   0  0  0  0  0  0  0  0  0  0  0  0
    1.5248    3.2776    2.7229 C   0  0  0  0  0  0  0  0  0  0  0  0
    2.8466    3.2240    3.1866 C   0  0  0  0  0  0  0  0  0  0  0  0
    4.2232    2.2072    2.9667 S   0  0  0  0  0  0  0  0  0  0  0  0
    1.0850    1.2128    1.5251 C   0  0  0  0  0  0  0  0  0  0  0  0
    0.4605    0.2076    2.4901 C   0  0  0  0  0  0  0  0  0  0  0  0
   -1.2330    1.5840   -0.8809 C   0  0  0  0  0  0  0  0  0  0  0  0
   -1.1697    0.0587   -0.9399 C   0  0  0  0  0  0  0  0  0  0  0  0
   -6.7765    0.2684   -3.6059 C   0  0  0  0  0  0  0  0  0  0  0  0
   -8.1220    0.3094   -3.9479 C   0  0  0  0  0  0  0  0  0  0  0  0
   -8.4504   -0.2400   -5.1780 C   0  0  0  0  0  0  0  0  0  0  0  0
   -9.8682   -0.2344   -5.6625 C   0  0  0  0  0  0  0  0  0  0  0  0
  -10.1245    0.9508   -6.5975 C   0  0  0  0  0  0  0  0  0  0  0  0
   -7.3607   -0.7226   -5.9330 C   0  0  0  0  0  0  0  0  0  0  0  0
   -5.7424   -0.4802   -4.9778 Se  0  0  0  0  0  2  0  0  0  0  0  0
   -7.5252   -1.2782   -7.2042 C   0  0  0  0  0  0  0  0  0  0  0  0
   -6.6013   -1.6858   -8.1401 C   0  0  0  0  0  0  0  0  0  0  0  0
   -5.1552   -1.5935   -8.0053 C   0  0  0  0  0  0  0  0  0  0  0  0
   -4.5245   -1.2681   -7.0054 O   0  0  0  0  0  0  0  0  0  0  0  0
   -4.5839   -1.9654   -9.3097 C   0  0  0  0  0  0  0  0  0  0  0  0
   -3.2406   -1.9590   -9.6785 C   0  0  0  0  0  0  0  0  0  0  0  0
   -3.0184   -2.3231  -10.9854 C   0  0  0  0  0  0  0  0  0  0  0  0
   -4.0549   -2.6759  -11.8585 C   0  0  0  0  0  0  0  0  0  0  0  0
   -5.3839   -2.6962  -11.5043 C   0  0  0  0  0  0  0  0  0  0  0  0
   -5.6334   -2.3218  -10.1817 C   0  0  0  0  0  0  0  0  0  0  0  0
   -6.9011   -2.1962   -9.4601 C   0  0  0  0  0  0  0  0  0  0  0  0
   -8.1344   -2.5337   -9.9601 C   0  0  0  0  0  0  0  0  0  0  0  0
   -8.3592   -3.0508  -11.2523 C   0  0  0  0  0  0  0  0  0  0  0  0
   -8.6202   -3.4750  -12.2873 N   0  0  0  0  0  0  0  0  0  0  0  0
   -9.3560   -2.4390   -9.2626 C   0  0  0  0  0  0  0  0  0  0  0  0
  -10.3925   -2.3958   -8.7669 N   0  0  0  0  0  0  0  0  0  0  0  0
   -3.1134   -2.9032  -13.0147 C   0  0  0  0  0  0  0  0  0  0  0  0
   -3.0560   -1.7896  -14.0820 C   0  0  0  0  0  0  0  0  0  0  0  0
   -1.7492   -2.0421  -14.7985 C   0  0  0  0  0  0  0  0  0  0  0  0
   -0.7656   -1.7092  -13.9725 C   0  0  0  0  0  0  0  0  0  0  0  0
   -1.3912   -1.2255  -12.6840 C   0  0  0  0  0  0  0  0  0  0  0  0
   -2.6626   -0.5699  -13.2386 C   0  0  0  0  0  0  0  0  0  0  0  0
   -1.9563   -2.5101  -12.0411 C   0  0  0  0  0  0  0  0  0  0  0  0
   10.8740    1.5863    6.1843 H   0  0  0  0  0  0  0  0  0  0  0  0
    8.2842   -4.0775    5.5043 H   0  0  0  0  0  0  0  0  0  0  0  0
   13.1233   -3.4681    6.8714 H   0  0  0  0  0  0  0  0  0  0  0  0
   11.9779   -6.5647    7.8150 H   0  0  0  0  0  0  0  0  0  0  0  0
   13.5058   -7.3247    6.0017 H   0  0  0  0  0  0  0  0  0  0  0  0
   13.0259   -5.7942    3.9364 H   0  0  0  0  0  0  0  0  0  0  0  0
   10.4965   -6.1495    3.2077 H   0  0  0  0  0  0  0  0  0  0  0  0
    9.4180   -7.9023    4.8225 H   0  0  0  0  0  0  0  0  0  0  0  0
   11.3307   -8.8413    6.4677 H   0  0  0  0  0  0  0  0  0  0  0  0
   11.8398   -8.9713    4.7656 H   0  0  0  0  0  0  0  0  0  0  0  0
    9.5200   -6.9197    7.1081 H   0  0  0  0  0  0  0  0  0  0  0  0
    6.7480    1.5166    2.6825 H   0  0  0  0  0  0  0  0  0  0  0  0
    6.5343    3.6991    6.3726 H   0  0  0  0  0  0  0  0  0  0  0  0
    8.6807    2.7496    7.0420 H   0  0  0  0  0  0  0  0  0  0  0  0
    6.7447    5.6057    4.2549 H   0  0  0  0  0  0  0  0  0  0  0  0
    7.5257    7.5345    5.5750 H   0  0  0  0  0  0  0  0  0  0  0  0
    6.1751    8.3799    7.4510 H   0  0  0  0  0  0  0  0  0  0  0  0
    3.2928    6.6365    8.8555 H   0  0  0  0  0  0  0  0  0  0  0  0
    4.3681    8.0329    9.0201 H   0  0  0  0  0  0  0  0  0  0  0  0
    3.1202    9.2022    7.2030 H   0  0  0  0  0  0  0  0  0  0  0  0
    2.0357    8.7511    8.5229 H   0  0  0  0  0  0  0  0  0  0  0  0
    2.0561    7.8072    7.0287 H   0  0  0  0  0  0  0  0  0  0  0  0
    3.2706    5.3443    6.7274 H   0  0  0  0  0  0  0  0  0  0  0  0
   -8.6031   -0.4070   -1.0741 H   0  0  0  0  0  0  0  0  0  0  0  0
  -10.9475   -0.0524   -0.3957 H   0  0  0  0  0  0  0  0  0  0  0  0
  -11.7733    2.2207    0.0607 H   0  0  0  0  0  0  0  0  0  0  0  0
   -9.9122    5.2786   -0.6953 H   0  0  0  0  0  0  0  0  0  0  0  0
  -11.4555    4.6185   -0.1331 H   0  0  0  0  0  0  0  0  0  0  0  0
  -10.3122    5.8905    1.6779 H   0  0  0  0  0  0  0  0  0  0  0  0
   -8.9064    4.8270    1.5464 H   0  0  0  0  0  0  0  0  0  0  0  0
  -10.4481    4.1821    2.1076 H   0  0  0  0  0  0  0  0  0  0  0  0
   -7.9241    3.8041   -0.8699 H   0  0  0  0  0  0  0  0  0  0  0  0
    0.8032    0.9802    0.5016 H   0  0  0  0  0  0  0  0  0  0  0  0
    2.1745    1.1586    1.5916 H   0  0  0  0  0  0  0  0  0  0  0  0
    0.7698   -0.8005    2.2279 H   0  0  0  0  0  0  0  0  0  0  0  0
    0.7822    0.4146    3.5082 H   0  0  0  0  0  0  0  0  0  0  0  0
   -0.6255    0.2664    2.4550 H   0  0  0  0  0  0  0  0  0  0  0  0
   -1.6536    1.9501   -1.8248 H   0  0  0  0  0  0  0  0  0  0  0  0
   -0.2459    2.0339   -0.7663 H   0  0  0  0  0  0  0  0  0  0  0  0
   -2.1428   -0.3425   -1.2098 H   0  0  0  0  0  0  0  0  0  0  0  0
   -0.8809   -0.3663    0.0174 H   0  0  0  0  0  0  0  0  0  0  0  0
   -0.4534   -0.2504   -1.6962 H   0  0  0  0  0  0  0  0  0  0  0  0
   -8.8692    0.7417   -3.3051 H   0  0  0  0  0  0  0  0  0  0  0  0
  -10.1120   -1.1636   -6.1804 H   0  0  0  0  0  0  0  0  0  0  0  0
  -10.5298   -0.1515   -4.7980 H   0  0  0  0  0  0  0  0  0  0  0  0
   -9.9324    1.8887   -6.0805 H   0  0  0  0  0  0  0  0  0  0  0  0
   -9.4779    0.9018   -7.4706 H   0  0  0  0  0  0  0  0  0  0  0  0
  -11.1579    0.9416   -6.9333 H   0  0  0  0  0  0  0  0  0  0  0  0
   -8.5595   -1.3635   -7.5101 H   0  0  0  0  0  0  0  0  0  0  0  0
   -2.4733   -1.6813   -8.9729 H   0  0  0  0  0  0  0  0  0  0  0  0
   -6.1681   -2.9704  -12.1898 H   0  0  0  0  0  0  0  0  0  0  0  0
   -3.1177   -3.9035  -13.4432 H   0  0  0  0  0  0  0  0  0  0  0  0
   -3.9455   -1.7059  -14.7004 H   0  0  0  0  0  0  0  0  0  0  0  0
   -1.6765   -2.4748  -15.7790 H   0  0  0  0  0  0  0  0  0  0  0  0
    0.2932   -1.8083  -14.1253 H   0  0  0  0  0  0  0  0  0  0  0  0
   -0.7630   -0.6266  -12.0299 H   0  0  0  0  0  0  0  0  0  0  0  0
   -3.3926   -0.3023  -12.4770 H   0  0  0  0  0  0  0  0  0  0  0  0
   -2.4418    0.3013  -13.8533 H   0  0  0  0  0  0  0  0  0  0  0  0
   -1.1885   -3.2492  -11.8198 H   0  0  0  0  0  0  0  0  0  0  0  0
  1  2  2  0  0  0  0
  2  3  1  0  0  0  0
  3  4  2  0  0  0  0
  3  5  1  0  0  0  0
  5  6  2  0  0  0  0
  6  7  1  0  0  0  0
  7  8  2  0  0  0  0
  8  9  1  0  0  0  0
  9 10  2  0  0  0  0
 10 11  1  0  0  0  0
 11 12  2  0  0  0  0
 12 13  1  0  0  0  0
 13 14  3  0  0  0  0
 12 15  1  0  0  0  0
 15 16  3  0  0  0  0
  8 17  1  0  0  0  0
 17 18  1  0  0  0  0
 18 19  1  0  0  0  0
 19 20  2  0  0  0  0
 20 21  1  0  0  0  0
 21 22  1  0  0  0  0
 21 23  1  0  0  0  0
  1 24  1  0  0  0  0
 24 25  2  0  0  0  0
 25 26  1  0  0  0  0
 25 27  1  0  0  0  0
 27 28  2  0  0  0  0
 28 29  1  0  0  0  0
 29 30  2  0  0  0  0
 28 31  1  0  0  0  0
 31 32  2  0  0  0  0
 32 33  1  0  0  0  0
 33 34  2  0  0  0  0
 34 35  1  0  0  0  0
 35 36  2  0  0  0  0
 36 37  1  0  0  0  0
 37 38  1  0  0  0  0
 38 39  1  0  0  0  0
 37 40  2  0  0  0  0
 32 41  1  0  0  0  0
 41 42  1  0  0  0  0
 42 43  1  0  0  0  0
 43 44  1  0  0  0  0
 44 45  1  0  0  0  0
 45 46  1  0  0  0  0
 46 47  2  0  0  0  0
 47 48  1  0  0  0  0
 48 49  1  0  0  0  0
 46 50  1  0  0  0  0
 50 51  1  0  0  0  0
 51 52  1  0  0  0  0
 52 53  1  0  0  0  0
 53 54  1  0  0  0  0
 54 55  1  0  0  0  0
 55 56  2  0  0  0  0
 56 57  1  0  0  0  0
 57 58  2  0  0  0  0
 58 59  1  0  0  0  0
 59 60  1  0  0  0  0
 60 61  1  0  0  0  0
 59 62  2  0  0  0  0
 54 63  2  0  0  0  0
 63 64  1  0  0  0  0
 64 65  1  0  0  0  0
 65 66  1  0  0  0  0
 66 67  1  0  0  0  0
 67 68  1  0  0  0  0
 68 69  1  0  0  0  0
 69 70  1  0  0  0  0
 70 71  1  0  0  0  0
 71 72  1  0  0  0  0
 72 73  1  0  0  0  0
 70 74  1  0  0  0  0
 74 75  1  0  0  0  0
 67 76  1  0  0  0  0
 76 77  1  0  0  0  0
 63 78  1  0  0  0  0
 78 79  2  0  0  0  0
 79 80  1  0  0  0  0
 80 81  1  0  0  0  0
 81 82  1  0  0  0  0
 80 83  2  0  0  0  0
 83 84  1  0  0  0  0
 83 85  1  0  0  0  0
 85 86  2  0  0  0  0
 86 87  1  0  0  0  0
 87 88  2  0  0  0  0
 87 89  1  0  0  0  0
 89 90  2  0  0  0  0
 90 91  1  0  0  0  0
 91 92  2  0  0  0  0
 92 93  1  0  0  0  0
 93 94  2  0  0  0  0
 94 95  1  0  0  0  0
 95 96  2  0  0  0  0
 96 97  1  0  0  0  0
 97 98  3  0  0  0  0
 96 99  1  0  0  0  0
 99100  3  0  0  0  0
 92101  1  0  0  0  0
101102  1  0  0  0  0
102103  1  0  0  0  0
103104  2  0  0  0  0
104105  1  0  0  0  0
105106  1  0  0  0  0
105107  1  0  0  0  0
 11  2  1  0  0  0  0
 23 17  1  0  0  0  0
 30 24  1  0  0  0  0
 73 31  1  0  0  0  0
 84 78  1  0  0  0  0
 95 86  1  0  0  0  0
107101  1  0  0  0  0
 10  5  1  0  0  0  0
 22 18  1  0  0  0  0
 40 33  1  0  0  0  0
 72 41  2  0  0  0  0
 94 89  1  0  0  0  0
106102  1  0  0  0  0
 23  7  1  0  0  0  0
 71 43  2  0  0  0  0
107 91  1  0  0  0  0
 69 44  2  0  0  0  0
 49 45  2  0  0  0  0
 68 50  2  0  0  0  0
 66 51  2  0  0  0  0
 65 53  2  0  0  0  0
 62 55  1  0  0  0  0
  1108  1  0  0  0  0
  6109  1  0  0  0  0
  9110  1  0  0  0  0
 17111  1  0  0  0  0
 18112  1  0  0  0  0
 19113  1  0  0  0  0
 20114  1  0  0  0  0
 21115  1  0  0  0  0
 22116  1  0  0  0  0
 22117  1  0  0  0  0
 23118  1  0  0  0  0
 27119  1  0  0  0  0
 29120  1  0  0  0  0
 30121  1  0  0  0  0
 34122  1  0  0  0  0
 35123  1  0  0  0  0
 36124  1  0  0  0  0
 38125  1  0  0  0  0
 38126  1  0  0  0  0
 39127  1  0  0  0  0
 39128  1  0  0  0  0
 39129  1  0  0  0  0
 40130  1  0  0  0  0
 56131  1  0  0  0  0
 57132  1  0  0  0  0
 58133  1  0  0  0  0
 60134  1  0  0  0  0
 60135  1  0  0  0  0
 61136  1  0  0  0  0
 61137  1  0  0  0  0
 61138  1  0  0  0  0
 62139  1  0  0  0  0
 74140  1  0  0  0  0
 74141  1  0  0  0  0
 75142  1  0  0  0  0
 75143  1  0  0  0  0
 75144  1  0  0  0  0
 76145  1  0  0  0  0
 76146  1  0  0  0  0
 77147  1  0  0  0  0
 77148  1  0  0  0  0
 77149  1  0  0  0  0
 79150  1  0  0  0  0
 81151  1  0  0  0  0
 81152  1  0  0  0  0
 82153  1  0  0  0  0
 82154  1  0  0  0  0
 82155  1  0  0  0  0
 85156  1  0  0  0  0
 90157  1  0  0  0  0
 93158  1  0  0  0  0
101159  1  0  0  0  0
102160  1  0  0  0  0
103161  1  0  0  0  0
104162  1  0  0  0  0
105163  1  0  0  0  0
106164  1  0  0  0  0
106165  1  0  0  0  0
107166  1  0  0  0  0
M  END
