
  xtb     02182201563D
 energy: -304.157254691074 gnorm: 0.000433537216 xtb: 6.4.1 (unknown)
183206  0     0  0            999 V2000
   -1.8957    3.7241   -9.4690 C   0  0  0  0  0  0  0  0  0  0  0  0
   -2.3400    4.9449   -9.9224 C   0  0  0  0  0  0  0  0  0  0  0  0
   -3.2736    5.8328   -9.2286 C   0  0  0  0  0  0  0  0  0  0  0  0
   -3.8557    5.6264   -8.1756 O   0  0  0  0  0  0  0  0  0  0  0  0
   -3.3740    7.0540  -10.0465 C   0  0  0  0  0  0  0  0  0  0  0  0
   -4.1190    8.1952   -9.7624 C   0  0  0  0  0  0  0  0  0  0  0  0
   -3.9933    9.1921  -10.7002 C   0  0  0  0  0  0  0  0  0  0  0  0
   -3.1838    9.0623  -11.8356 C   0  0  0  0  0  0  0  0  0  0  0  0
   -2.4446    7.9401  -12.1274 C   0  0  0  0  0  0  0  0  0  0  0  0
   -2.5600    6.9126  -11.1878 C   0  0  0  0  0  0  0  0  0  0  0  0
   -1.9267    5.5931  -11.1477 C   0  0  0  0  0  0  0  0  0  0  0  0
   -1.0972    5.0894  -12.1194 C   0  0  0  0  0  0  0  0  0  0  0  0
   -0.4995    3.8129  -12.1253 C   0  0  0  0  0  0  0  0  0  0  0  0
    0.0229    2.7943  -12.2332 N   0  0  0  0  0  0  0  0  0  0  0  0
   -0.7267    5.7798  -13.2917 C   0  0  0  0  0  0  0  0  0  0  0  0
   -0.3765    6.2715  -14.2691 N   0  0  0  0  0  0  0  0  0  0  0  0
   -3.5261   10.4433  -12.3363 C   0  0  0  0  0  0  0  0  0  0  0  0
   -4.5409   10.5604  -13.5000 C   0  0  0  0  0  0  0  0  0  0  0  0
   -5.4224    9.3387  -13.4243 C   0  0  0  0  0  0  0  0  0  0  0  0
   -6.1910    9.4598  -12.3503 C   0  0  0  0  0  0  0  0  0  0  0  0
   -5.8432   10.7661  -11.6802 C   0  0  0  0  0  0  0  0  0  0  0  0
   -5.4902   11.6163  -12.9111 C   0  0  0  0  0  0  0  0  0  0  0  0
   -4.4304   10.5872  -11.0717 C   0  0  0  0  0  0  0  0  0  0  0  0
   -2.1373    3.0637   -8.2626 C   0  0  0  0  0  0  0  0  0  0  0  0
   -1.5127    1.8439   -7.9137 C   0  0  0  0  0  0  0  0  0  0  0  0
   -0.7946    0.9993   -8.8290 C   0  0  0  0  0  0  0  0  0  0  0  0
   -1.0423    0.7330  -10.1500 C   0  0  0  0  0  0  0  0  0  0  0  0
   -0.1337   -0.1805  -10.7123 C   0  0  0  0  0  0  0  0  0  0  0  0
    0.8124   -0.6179   -9.8350 C   0  0  0  0  0  0  0  0  0  0  0  0
    1.9123   -1.5934  -10.0707 C   0  0  0  0  0  0  0  0  0  0  0  0
    1.6335   -2.9266   -9.3734 C   0  0  0  0  0  0  0  0  0  0  0  0
    0.5775    0.0811   -8.2684 S   0  0  0  0  0  0  0  0  0  0  0  0
   -1.6769    1.5273   -6.5675 C   0  0  0  0  0  0  0  0  0  0  0  0
   -2.4726    2.4248   -5.8775 C   0  0  0  0  0  0  0  0  0  0  0  0
   -3.0304    3.7086   -6.9010 S   0  0  0  0  0  0  0  0  0  0  0  0
   -2.7927    2.3235   -4.4979 C   0  0  0  0  0  0  0  0  0  0  0  0
   -3.7844    2.9370   -3.7535 C   0  0  0  0  0  0  0  0  0  0  0  0
   -4.7783    3.9013   -4.2433 C   0  0  0  0  0  0  0  0  0  0  0  0
   -6.1279    3.5676   -4.1872 C   0  0  0  0  0  0  0  0  0  0  0  0
   -7.0757    4.4738   -4.6211 C   0  0  0  0  0  0  0  0  0  0  0  0
   -6.6874    5.7139   -5.0983 C   0  0  0  0  0  0  0  0  0  0  0  0
   -5.3464    6.0682   -5.1431 C   0  0  0  0  0  0  0  0  0  0  0  0
   -4.9147    7.4229   -5.6224 C   0  0  0  0  0  0  0  0  0  0  0  0
   -4.5493    8.3298   -4.4468 C   0  0  0  0  0  0  0  0  0  0  0  0
   -4.3985    5.1537   -4.7061 C   0  0  0  0  0  0  0  0  0  0  0  0
   -3.7705    2.4982   -2.4170 C   0  0  0  0  0  0  0  0  0  0  0  0
   -4.7425    2.9339   -1.0311 S   0  0  0  0  0  0  0  0  0  0  0  0
   -3.7610    1.8949   -0.0527 C   0  0  0  0  0  0  0  0  0  0  0  0
   -3.6086    1.5342    1.2950 C   0  0  0  0  0  0  0  0  0  0  0  0
   -4.2779    1.9921    2.4504 C   0  0  0  0  0  0  0  0  0  0  0  0
   -3.7968    1.5805    3.7367 C   0  0  0  0  0  0  0  0  0  0  0  0
   -4.4780    2.1278    4.7313 N   0  0  0  0  0  0  0  0  0  0  0  0
   -5.6304    3.0752    4.1016 S   0  0  0  0  0  0  0  0  0  0  0  0
   -5.3020    2.8267    2.5356 N   0  0  0  0  0  0  0  0  0  0  0  0
   -2.7300    0.6589    3.8027 C   0  0  0  0  0  0  0  0  0  0  0  0
   -2.0961    0.0663    4.9057 C   0  0  0  0  0  0  0  0  0  0  0  0
   -2.1244    0.1387    6.6351 S   0  0  0  0  0  0  0  0  0  0  0  0
   -0.8555   -1.0631    6.6836 C   0  0  0  0  0  0  0  0  0  0  0  0
   -0.1184   -1.6295    7.7426 C   0  0  0  0  0  0  0  0  0  0  0  0
   -0.2629   -1.2196    9.1390 C   0  0  0  0  0  0  0  0  0  0  0  0
   -1.5284   -1.0183    9.6825 C   0  0  0  0  0  0  0  0  0  0  0  0
   -1.6575   -0.6389   11.0044 C   0  0  0  0  0  0  0  0  0  0  0  0
   -0.5353   -0.4488   11.7905 C   0  0  0  0  0  0  0  0  0  0  0  0
    0.7361   -0.6217   11.2579 C   0  0  0  0  0  0  0  0  0  0  0  0
    1.9598   -0.3620   12.0886 C   0  0  0  0  0  0  0  0  0  0  0  0
    2.3889    1.1011   11.9649 C   0  0  0  0  0  0  0  0  0  0  0  0
    0.8598   -0.9985    9.9306 C   0  0  0  0  0  0  0  0  0  0  0  0
    0.8190   -2.5336    7.2700 C   0  0  0  0  0  0  0  0  0  0  0  0
    0.8269   -2.6437    5.5173 S   0  0  0  0  0  0  0  0  0  0  0  0
   -0.4575   -1.4943    5.4162 C   0  0  0  0  0  0  0  0  0  0  0  0
   -1.1651   -0.8415    4.3987 C   0  0  0  0  0  0  0  0  0  0  0  0
   -1.1800   -0.8191    3.0300 N   0  0  0  0  0  0  0  0  0  0  0  0
   -2.1254    0.1155    2.6328 C   0  0  0  0  0  0  0  0  0  0  0  0
   -2.5072    0.6331    1.3655 C   0  0  0  0  0  0  0  0  0  0  0  0
   -2.0062    0.4653    0.0841 N   0  0  0  0  0  0  0  0  0  0  0  0
   -2.7527    1.2389   -0.7630 C   0  0  0  0  0  0  0  0  0  0  0  0
   -2.7584    1.5823   -2.1200 C   0  0  0  0  0  0  0  0  0  0  0  0
   -1.8310    1.2053   -3.5260 S   0  0  0  0  0  0  0  0  0  0  0  0
   -0.7316   -0.0452   -0.3659 C   0  0  0  0  0  0  0  0  0  0  0  0
    0.4302    0.7511    0.2235 C   0  0  0  0  0  0  0  0  0  0  0  0
   -0.5878   -1.9195    2.3020 C   0  0  0  0  0  0  0  0  0  0  0  0
   -1.6547   -2.8125    1.6735 C   0  0  0  0  0  0  0  0  0  0  0  0
    1.7692   -3.3194    7.9838 C   0  0  0  0  0  0  0  0  0  0  0  0
    1.6300   -3.9419    9.2289 C   0  0  0  0  0  0  0  0  0  0  0  0
    0.4021   -4.0452    9.9863 C   0  0  0  0  0  0  0  0  0  0  0  0
    0.2487   -4.0000   11.3410 C   0  0  0  0  0  0  0  0  0  0  0  0
   -1.0840   -4.1973   11.7546 C   0  0  0  0  0  0  0  0  0  0  0  0
   -1.9449   -4.4196   10.7256 C   0  0  0  0  0  0  0  0  0  0  0  0
   -3.4099   -4.6853   10.7805 C   0  0  0  0  0  0  0  0  0  0  0  0
   -4.2180   -3.5728   10.1128 C   0  0  0  0  0  0  0  0  0  0  0  0
   -1.1174   -4.3655    9.2028 S   0  0  0  0  0  0  0  0  0  0  0  0
    2.8218   -4.5405    9.6308 C   0  0  0  0  0  0  0  0  0  0  0  0
    3.8671   -4.4301    8.7177 C   0  0  0  0  0  0  0  0  0  0  0  0
    3.3473   -3.5434    7.3066 S   0  0  0  0  0  0  0  0  0  0  0  0
    5.1366   -4.9783    8.9579 C   0  0  0  0  0  0  0  0  0  0  0  0
    6.2550   -4.9972    8.1653 C   0  0  0  0  0  0  0  0  0  0  0  0
    6.3540   -4.4346    6.8146 C   0  0  0  0  0  0  0  0  0  0  0  0
    5.4875   -3.8465    6.1893 O   0  0  0  0  0  0  0  0  0  0  0  0
    7.7195   -4.7189    6.3443 C   0  0  0  0  0  0  0  0  0  0  0  0
    8.2699   -4.3725    5.1123 C   0  0  0  0  0  0  0  0  0  0  0  0
    9.5754   -4.7704    4.9527 C   0  0  0  0  0  0  0  0  0  0  0  0
   10.2820   -5.4597    5.9468 C   0  0  0  0  0  0  0  0  0  0  0  0
    9.7512   -5.8041    7.1676 C   0  0  0  0  0  0  0  0  0  0  0  0
    8.4217   -5.4114    7.3510 C   0  0  0  0  0  0  0  0  0  0  0  0
    7.5348   -5.5902    8.5008 C   0  0  0  0  0  0  0  0  0  0  0  0
    7.8820   -6.2018    9.6787 C   0  0  0  0  0  0  0  0  0  0  0  0
    7.0506   -6.3526   10.8078 C   0  0  0  0  0  0  0  0  0  0  0  0
    6.4501   -6.5128   11.7744 N   0  0  0  0  0  0  0  0  0  0  0  0
    9.1445   -6.7729    9.9421 C   0  0  0  0  0  0  0  0  0  0  0  0
   10.1431   -7.2610   10.2308 N   0  0  0  0  0  0  0  0  0  0  0  0
   11.5339   -5.5465    5.1093 C   0  0  0  0  0  0  0  0  0  0  0  0
   11.8248   -6.9071    4.4416 C   0  0  0  0  0  0  0  0  0  0  0  0
   12.7988   -6.5668    3.3366 C   0  0  0  0  0  0  0  0  0  0  0  0
   12.1291   -5.9147    2.3949 C   0  0  0  0  0  0  0  0  0  0  0  0
   10.6911   -5.8030    2.8476 C   0  0  0  0  0  0  0  0  0  0  0  0
   10.5521   -7.1253    3.6131 C   0  0  0  0  0  0  0  0  0  0  0  0
   10.7454   -4.7782    4.0005 C   0  0  0  0  0  0  0  0  0  0  0  0
   -1.1979    3.2014  -10.1108 H   0  0  0  0  0  0  0  0  0  0  0  0
   -4.7252    8.2532   -8.8718 H   0  0  0  0  0  0  0  0  0  0  0  0
   -1.8236    7.8615  -13.0038 H   0  0  0  0  0  0  0  0  0  0  0  0
   -2.6894   11.1307  -12.4453 H   0  0  0  0  0  0  0  0  0  0  0  0
   -4.0950   10.7714  -14.4682 H   0  0  0  0  0  0  0  0  0  0  0  0
   -5.3575    8.5108  -14.1058 H   0  0  0  0  0  0  0  0  0  0  0  0
   -6.8966    8.7529  -11.9546 H   0  0  0  0  0  0  0  0  0  0  0  0
   -6.5842   11.1652  -10.9922 H   0  0  0  0  0  0  0  0  0  0  0  0
   -4.9951   12.5543  -12.6629 H   0  0  0  0  0  0  0  0  0  0  0  0
   -6.3507   11.8121  -13.5491 H   0  0  0  0  0  0  0  0  0  0  0  0
   -4.1848   11.3704  -10.3567 H   0  0  0  0  0  0  0  0  0  0  0  0
   -1.8742    1.1443  -10.6926 H   0  0  0  0  0  0  0  0  0  0  0  0
   -0.1729   -0.4911  -11.7404 H   0  0  0  0  0  0  0  0  0  0  0  0
    2.8536   -1.1839   -9.6956 H   0  0  0  0  0  0  0  0  0  0  0  0
    2.0127   -1.7525  -11.1460 H   0  0  0  0  0  0  0  0  0  0  0  0
    1.5466   -2.7788   -8.2992 H   0  0  0  0  0  0  0  0  0  0  0  0
    0.7044   -3.3580   -9.7393 H   0  0  0  0  0  0  0  0  0  0  0  0
    2.4417   -3.6280   -9.5644 H   0  0  0  0  0  0  0  0  0  0  0  0
   -1.2515    0.6472   -6.1153 H   0  0  0  0  0  0  0  0  0  0  0  0
   -6.4252    2.5971   -3.8179 H   0  0  0  0  0  0  0  0  0  0  0  0
   -8.1231    4.2119   -4.5868 H   0  0  0  0  0  0  0  0  0  0  0  0
   -7.4363    6.4147   -5.4390 H   0  0  0  0  0  0  0  0  0  0  0  0
   -4.0516    7.3057   -6.2800 H   0  0  0  0  0  0  0  0  0  0  0  0
   -5.7229    7.8820   -6.1949 H   0  0  0  0  0  0  0  0  0  0  0  0
   -3.7398    7.8942   -3.8660 H   0  0  0  0  0  0  0  0  0  0  0  0
   -4.2324    9.3075   -4.8033 H   0  0  0  0  0  0  0  0  0  0  0  0
   -5.4068    8.4613   -3.7899 H   0  0  0  0  0  0  0  0  0  0  0  0
   -3.3525    5.4233   -4.7169 H   0  0  0  0  0  0  0  0  0  0  0  0
   -2.4039   -1.1808    9.0733 H   0  0  0  0  0  0  0  0  0  0  0  0
   -2.6407   -0.4908   11.4268 H   0  0  0  0  0  0  0  0  0  0  0  0
   -0.6448   -0.1601   12.8260 H   0  0  0  0  0  0  0  0  0  0  0  0
    2.7761   -1.0065   11.7551 H   0  0  0  0  0  0  0  0  0  0  0  0
    1.7503   -0.5883   13.1360 H   0  0  0  0  0  0  0  0  0  0  0  0
    3.2741    1.2908   12.5675 H   0  0  0  0  0  0  0  0  0  0  0  0
    1.5908    1.7589   12.3018 H   0  0  0  0  0  0  0  0  0  0  0  0
    2.6152    1.3419   10.9286 H   0  0  0  0  0  0  0  0  0  0  0  0
    1.8446   -1.1168    9.5014 H   0  0  0  0  0  0  0  0  0  0  0  0
   -0.6454   -1.1090   -0.1458 H   0  0  0  0  0  0  0  0  0  0  0  0
   -0.7228    0.0587   -1.4538 H   0  0  0  0  0  0  0  0  0  0  0  0
    0.4023    0.7418    1.3105 H   0  0  0  0  0  0  0  0  0  0  0  0
    1.3756    0.3316   -0.1096 H   0  0  0  0  0  0  0  0  0  0  0  0
    0.3747    1.7854   -0.1079 H   0  0  0  0  0  0  0  0  0  0  0  0
    0.1230   -1.5564    1.5595 H   0  0  0  0  0  0  0  0  0  0  0  0
   -0.0175   -2.5004    3.0310 H   0  0  0  0  0  0  0  0  0  0  0  0
   -2.2941   -2.2483    0.9984 H   0  0  0  0  0  0  0  0  0  0  0  0
   -2.2813   -3.2439    2.4507 H   0  0  0  0  0  0  0  0  0  0  0  0
   -1.1835   -3.6208    1.1207 H   0  0  0  0  0  0  0  0  0  0  0  0
    1.0613   -3.8043   12.0173 H   0  0  0  0  0  0  0  0  0  0  0  0
   -1.3909   -4.1824   12.7853 H   0  0  0  0  0  0  0  0  0  0  0  0
   -3.7060   -4.7804   11.8274 H   0  0  0  0  0  0  0  0  0  0  0  0
   -3.6269   -5.6327   10.2789 H   0  0  0  0  0  0  0  0  0  0  0  0
   -3.9312   -3.4759    9.0680 H   0  0  0  0  0  0  0  0  0  0  0  0
   -4.0375   -2.6244   10.6122 H   0  0  0  0  0  0  0  0  0  0  0  0
   -5.2806   -3.7972   10.1625 H   0  0  0  0  0  0  0  0  0  0  0  0
    2.9274   -5.0769   10.5576 H   0  0  0  0  0  0  0  0  0  0  0  0
    5.2127   -5.4535    9.9283 H   0  0  0  0  0  0  0  0  0  0  0  0
    7.6896   -3.8363    4.3778 H   0  0  0  0  0  0  0  0  0  0  0  0
   10.3123   -6.3300    7.9214 H   0  0  0  0  0  0  0  0  0  0  0  0
   12.4218   -5.0822    5.5341 H   0  0  0  0  0  0  0  0  0  0  0  0
   12.1186   -7.6970    5.1273 H   0  0  0  0  0  0  0  0  0  0  0  0
   13.8509   -6.7793    3.3778 H   0  0  0  0  0  0  0  0  0  0  0  0
   12.5099   -5.4735    1.4925 H   0  0  0  0  0  0  0  0  0  0  0  0
    9.9518   -5.5876    2.0807 H   0  0  0  0  0  0  0  0  0  0  0  0
   10.6314   -7.9907    2.9572 H   0  0  0  0  0  0  0  0  0  0  0  0
    9.6433   -7.2009    4.2073 H   0  0  0  0  0  0  0  0  0  0  0  0
   11.1084   -3.8016    3.6852 H   0  0  0  0  0  0  0  0  0  0  0  0
  1  2  2  0  0  0  0
  2  3  1  0  0  0  0
  3  4  2  0  0  0  0
  3  5  1  0  0  0  0
  5  6  2  0  0  0  0
  6  7  1  0  0  0  0
  7  8  2  0  0  0  0
  8  9  1  0  0  0  0
  9 10  2  0  0  0  0
 10 11  1  0  0  0  0
 11 12  2  0  0  0  0
 12 13  1  0  0  0  0
 13 14  3  0  0  0  0
 12 15  1  0  0  0  0
 15 16  3  0  0  0  0
  8 17  1  0  0  0  0
 17 18  1  0  0  0  0
 18 19  1  0  0  0  0
 19 20  2  0  0  0  0
 20 21  1  0  0  0  0
 21 22  1  0  0  0  0
 21 23  1  0  0  0  0
  1 24  1  0  0  0  0
 24 25  2  0  0  0  0
 25 26  1  0  0  0  0
 26 27  2  0  0  0  0
 27 28  1  0  0  0  0
 28 29  2  0  0  0  0
 29 30  1  0  0  0  0
 30 31  1  0  0  0  0
 29 32  1  0  0  0  0
 25 33  1  0  0  0  0
 33 34  2  0  0  0  0
 34 35  1  0  0  0  0
 34 36  1  0  0  0  0
 36 37  2  0  0  0  0
 37 38  1  0  0  0  0
 38 39  2  0  0  0  0
 39 40  1  0  0  0  0
 40 41  2  0  0  0  0
 41 42  1  0  0  0  0
 42 43  1  0  0  0  0
 43 44  1  0  0  0  0
 42 45  2  0  0  0  0
 37 46  1  0  0  0  0
 46 47  1  0  0  0  0
 47 48  1  0  0  0  0
 48 49  1  0  0  0  0
 49 50  1  0  0  0  0
 50 51  1  0  0  0  0
 51 52  2  0  0  0  0
 52 53  1  0  0  0  0
 53 54  1  0  0  0  0
 51 55  1  0  0  0  0
 55 56  1  0  0  0  0
 56 57  1  0  0  0  0
 57 58  1  0  0  0  0
 58 59  1  0  0  0  0
 59 60  1  0  0  0  0
 60 61  2  0  0  0  0
 61 62  1  0  0  0  0
 62 63  2  0  0  0  0
 63 64  1  0  0  0  0
 64 65  1  0  0  0  0
 65 66  1  0  0  0  0
 64 67  2  0  0  0  0
 59 68  2  0  0  0  0
 68 69  1  0  0  0  0
 69 70  1  0  0  0  0
 70 71  1  0  0  0  0
 71 72  1  0  0  0  0
 72 73  1  0  0  0  0
 73 74  1  0  0  0  0
 74 75  1  0  0  0  0
 75 76  1  0  0  0  0
 76 77  1  0  0  0  0
 77 78  1  0  0  0  0
 75 79  1  0  0  0  0
 79 80  1  0  0  0  0
 72 81  1  0  0  0  0
 81 82  1  0  0  0  0
 68 83  1  0  0  0  0
 83 84  2  0  0  0  0
 84 85  1  0  0  0  0
 85 86  2  0  0  0  0
 86 87  1  0  0  0  0
 87 88  2  0  0  0  0
 88 89  1  0  0  0  0
 89 90  1  0  0  0  0
 88 91  1  0  0  0  0
 84 92  1  0  0  0  0
 92 93  2  0  0  0  0
 93 94  1  0  0  0  0
 93 95  1  0  0  0  0
 95 96  2  0  0  0  0
 96 97  1  0  0  0  0
 97 98  2  0  0  0  0
 97 99  1  0  0  0  0
 99100  2  0  0  0  0
100101  1  0  0  0  0
101102  2  0  0  0  0
102103  1  0  0  0  0
103104  2  0  0  0  0
104105  1  0  0  0  0
105106  2  0  0  0  0
106107  1  0  0  0  0
107108  3  0  0  0  0
106109  1  0  0  0  0
109110  3  0  0  0  0
102111  1  0  0  0  0
111112  1  0  0  0  0
112113  1  0  0  0  0
113114  2  0  0  0  0
114115  1  0  0  0  0
115116  1  0  0  0  0
115117  1  0  0  0  0
 11  2  1  0  0  0  0
 23 17  1  0  0  0  0
 35 24  1  0  0  0  0
 78 36  1  0  0  0  0
 94 83  1  0  0  0  0
105 96  1  0  0  0  0
117111  1  0  0  0  0
 10  5  1  0  0  0  0
 22 18  1  0  0  0  0
 32 26  1  0  0  0  0
 45 38  1  0  0  0  0
 77 46  2  0  0  0  0
 91 85  1  0  0  0  0
104 99  1  0  0  0  0
116112  1  0  0  0  0
 23  7  1  0  0  0  0
 76 48  2  0  0  0  0
117101  1  0  0  0  0
 74 49  2  0  0  0  0
 54 50  2  0  0  0  0
 73 55  2  0  0  0  0
 71 56  2  0  0  0  0
 70 58  2  0  0  0  0
 67 60  1  0  0  0  0
  1118  1  0  0  0  0
  6119  1  0  0  0  0
  9120  1  0  0  0  0
 17121  1  0  0  0  0
 18122  1  0  0  0  0
 19123  1  0  0  0  0
 20124  1  0  0  0  0
 21125  1  0  0  0  0
 22126  1  0  0  0  0
 22127  1  0  0  0  0
 23128  1  0  0  0  0
 27129  1  0  0  0  0
 28130  1  0  0  0  0
 30131  1  0  0  0  0
 30132  1  0  0  0  0
 31133  1  0  0  0  0
 31134  1  0  0  0  0
 31135  1  0  0  0  0
 33136  1  0  0  0  0
 39137  1  0  0  0  0
 40138  1  0  0  0  0
 41139  1  0  0  0  0
 43140  1  0  0  0  0
 43141  1  0  0  0  0
 44142  1  0  0  0  0
 44143  1  0  0  0  0
 44144  1  0  0  0  0
 45145  1  0  0  0  0
 61146  1  0  0  0  0
 62147  1  0  0  0  0
 63148  1  0  0  0  0
 65149  1  0  0  0  0
 65150  1  0  0  0  0
 66151  1  0  0  0  0
 66152  1  0  0  0  0
 66153  1  0  0  0  0
 67154  1  0  0  0  0
 79155  1  0  0  0  0
 79156  1  0  0  0  0
 80157  1  0  0  0  0
 80158  1  0  0  0  0
 80159  1  0  0  0  0
 81160  1  0  0  0  0
 81161  1  0  0  0  0
 82162  1  0  0  0  0
 82163  1  0  0  0  0
 82164  1  0  0  0  0
 86165  1  0  0  0  0
 87166  1  0  0  0  0
 89167  1  0  0  0  0
 89168  1  0  0  0  0
 90169  1  0  0  0  0
 90170  1  0  0  0  0
 90171  1  0  0  0  0
 92172  1  0  0  0  0
 95173  1  0  0  0  0
100174  1  0  0  0  0
103175  1  0  0  0  0
111176  1  0  0  0  0
112177  1  0  0  0  0
113178  1  0  0  0  0
114179  1  0  0  0  0
115180  1  0  0  0  0
116181  1  0  0  0  0
116182  1  0  0  0  0
117183  1  0  0  0  0
M  END
