
  xtb     02112220203D
 energy: -281.662432632193 gnorm: 0.000989406572 xtb: 6.4.1 (unknown)
170191  0     0  0            999 V2000
    0.2404    6.5991    7.6550 C   0  0  0  0  0  0  0  0  0  0  0  0
    1.5223    6.8659    7.2369 C   0  0  0  0  0  0  0  0  0  0  0  0
    2.2918    6.0409    6.3147 C   0  0  0  0  0  0  0  0  0  0  0  0
    1.9607    4.9636    5.8313 O   0  0  0  0  0  0  0  0  0  0  0  0
    3.5546    6.7492    6.0620 C   0  0  0  0  0  0  0  0  0  0  0  0
    4.5877    6.3552    5.2144 C   0  0  0  0  0  0  0  0  0  0  0  0
    5.6371    7.2413    5.1651 C   0  0  0  0  0  0  0  0  0  0  0  0
    5.6595    8.4286    5.9080 C   0  0  0  0  0  0  0  0  0  0  0  0
    4.6500    8.8244    6.7544 C   0  0  0  0  0  0  0  0  0  0  0  0
    3.5692    7.9405    6.8165 C   0  0  0  0  0  0  0  0  0  0  0  0
    2.3223    8.0245    7.5796 C   0  0  0  0  0  0  0  0  0  0  0  0
    1.9996    9.0251    8.4600 C   0  0  0  0  0  0  0  0  0  0  0  0
    0.8093    9.1064    9.2125 C   0  0  0  0  0  0  0  0  0  0  0  0
   -0.1235    9.2501    9.8679 N   0  0  0  0  0  0  0  0  0  0  0  0
    2.8249   10.1309    8.7526 C   0  0  0  0  0  0  0  0  0  0  0  0
    3.4393   11.0566    9.0430 N   0  0  0  0  0  0  0  0  0  0  0  0
    7.0024    8.8415    5.3584 C   0  0  0  0  0  0  0  0  0  0  0  0
    6.9920    9.9293    4.2633 C   0  0  0  0  0  0  0  0  0  0  0  0
    8.3392    9.7814    3.5936 C   0  0  0  0  0  0  0  0  0  0  0  0
    8.3189    8.6564    2.8903 C   0  0  0  0  0  0  0  0  0  0  0  0
    6.9575    8.0250    3.0730 C   0  0  0  0  0  0  0  0  0  0  0  0
    6.0956    9.2882    3.1960 C   0  0  0  0  0  0  0  0  0  0  0  0
    6.9777    7.5168    4.5304 C   0  0  0  0  0  0  0  0  0  0  0  0
   -0.6144    5.5375    7.3285 C   0  0  0  0  0  0  0  0  0  0  0  0
   -1.9321    5.5050    7.7915 C   0  0  0  0  0  0  0  0  0  0  0  0
   -2.7406    4.4460    7.3929 C   0  0  0  0  0  0  0  0  0  0  0  0
   -4.2037    4.4250    7.7202 C   0  0  0  0  0  0  0  0  0  0  0  0
   -5.0668    4.5218    6.4619 C   0  0  0  0  0  0  0  0  0  0  0  0
   -2.0704    3.5264    6.5857 C   0  0  0  0  0  0  0  0  0  0  0  0
   -0.2927    4.0308    6.2436 Se  0  0  0  0  0  2  0  0  0  0  0  0
   -2.5511    2.3493    5.9391 C   0  0  0  0  0  0  0  0  0  0  0  0
   -3.4486    1.3674    6.3218 C   0  0  0  0  0  0  0  0  0  0  0  0
   -4.0187    1.2098    7.6580 C   0  0  0  0  0  0  0  0  0  0  0  0
   -3.2210    1.3948    8.7866 C   0  0  0  0  0  0  0  0  0  0  0  0
   -3.7536    1.1963   10.0456 C   0  0  0  0  0  0  0  0  0  0  0  0
   -5.0771    0.8170   10.1920 C   0  0  0  0  0  0  0  0  0  0  0  0
   -5.8841    0.6211    9.0780 C   0  0  0  0  0  0  0  0  0  0  0  0
   -7.3332    0.2605    9.2311 C   0  0  0  0  0  0  0  0  0  0  0  0
   -8.1912    1.5269    9.2682 C   0  0  0  0  0  0  0  0  0  0  0  0
   -5.3434    0.8155    7.8160 C   0  0  0  0  0  0  0  0  0  0  0  0
   -3.6364    0.4181    5.2934 C   0  0  0  0  0  0  0  0  0  0  0  0
   -4.6404   -1.0080    5.1599 S   0  0  0  0  0  0  0  0  0  0  0  0
   -3.9826   -1.3047    3.5855 C   0  0  0  0  0  0  0  0  0  0  0  0
   -4.0788   -2.2479    2.5445 C   0  0  0  0  0  0  0  0  0  0  0  0
   -4.7576   -3.4806    2.4112 C   0  0  0  0  0  0  0  0  0  0  0  0
   -4.5156   -4.2974    1.2482 C   0  0  0  0  0  0  0  0  0  0  0  0
   -5.1627   -5.4507    1.3014 N   0  0  0  0  0  0  0  0  0  0  0  0
   -6.0091   -5.5060    2.6800 S   0  0  0  0  0  0  0  0  0  0  0  0
   -5.5812   -4.0608    3.2695 N   0  0  0  0  0  0  0  0  0  0  0  0
   -3.7095   -3.7918    0.2029 C   0  0  0  0  0  0  0  0  0  0  0  0
   -3.3673   -4.2718   -1.0754 C   0  0  0  0  0  0  0  0  0  0  0  0
   -3.5735   -5.6912   -2.0472 S   0  0  0  0  0  0  0  0  0  0  0  0
   -2.6492   -4.9271   -3.3203 C   0  0  0  0  0  0  0  0  0  0  0  0
   -2.2476   -5.3589   -4.5960 C   0  0  0  0  0  0  0  0  0  0  0  0
   -2.6510   -6.6581   -5.1477 C   0  0  0  0  0  0  0  0  0  0  0  0
   -3.4027   -6.7286   -6.3181 C   0  0  0  0  0  0  0  0  0  0  0  0
   -3.7871   -7.9596   -6.8151 C   0  0  0  0  0  0  0  0  0  0  0  0
   -3.4277   -9.1220   -6.1540 C   0  0  0  0  0  0  0  0  0  0  0  0
   -2.6960   -9.0677   -4.9749 C   0  0  0  0  0  0  0  0  0  0  0  0
   -2.2727  -10.3236   -4.2701 C   0  0  0  0  0  0  0  0  0  0  0  0
   -0.8664  -10.7355   -4.7106 C   0  0  0  0  0  0  0  0  0  0  0  0
   -2.3179   -7.8281   -4.4778 C   0  0  0  0  0  0  0  0  0  0  0  0
   -1.4625   -4.4036   -5.2266 C   0  0  0  0  0  0  0  0  0  0  0  0
   -1.2755   -2.9459   -4.2599 S   0  0  0  0  0  0  0  0  0  0  0  0
   -2.2220   -3.6369   -2.9940 C   0  0  0  0  0  0  0  0  0  0  0  0
   -2.6412   -3.2604   -1.7146 C   0  0  0  0  0  0  0  0  0  0  0  0
   -2.5138   -2.1716   -0.8876 N   0  0  0  0  0  0  0  0  0  0  0  0
   -3.1318   -2.4999    0.3046 C   0  0  0  0  0  0  0  0  0  0  0  0
   -3.1935   -1.8037    1.5292 C   0  0  0  0  0  0  0  0  0  0  0  0
   -2.5372   -0.6613    1.9511 N   0  0  0  0  0  0  0  0  0  0  0  0
   -3.0335   -0.3553    3.1942 C   0  0  0  0  0  0  0  0  0  0  0  0
   -2.8434    0.6331    4.1656 C   0  0  0  0  0  0  0  0  0  0  0  0
   -1.8813    2.0562    4.3366 S   0  0  0  0  0  0  0  0  0  0  0  0
   -1.1908   -0.2622    1.5888 C   0  0  0  0  0  0  0  0  0  0  0  0
   -0.1690   -0.7607    2.6104 C   0  0  0  0  0  0  0  0  0  0  0  0
   -2.3766   -0.8395   -1.4442 C   0  0  0  0  0  0  0  0  0  0  0  0
   -3.4878   -0.5402   -2.4500 C   0  0  0  0  0  0  0  0  0  0  0  0
   -0.7247   -4.4842   -6.4375 C   0  0  0  0  0  0  0  0  0  0  0  0
   -0.6353   -5.5542   -7.3101 C   0  0  0  0  0  0  0  0  0  0  0  0
    0.2334   -5.3158   -8.3677 C   0  0  0  0  0  0  0  0  0  0  0  0
    0.5829   -6.4322   -9.6642 S   0  0  0  0  0  0  0  0  0  0  0  0
   -0.6409   -7.7703   -9.4198 C   0  0  0  0  0  0  0  0  0  0  0  0
   -0.1960   -8.8078   -8.4062 C   0  0  0  0  0  0  0  0  0  0  0  0
    0.8541   -4.0498   -8.3165 C   0  0  0  0  0  0  0  0  0  0  0  0
    0.3006   -3.1656   -6.9123 S   0  0  0  0  0  0  0  0  0  0  0  0
    1.7759   -3.6167   -9.2696 C   0  0  0  0  0  0  0  0  0  0  0  0
    2.5142   -2.4577   -9.3256 C   0  0  0  0  0  0  0  0  0  0  0  0
    2.5034   -1.3905   -8.3249 C   0  0  0  0  0  0  0  0  0  0  0  0
    1.7959   -1.3031   -7.3336 O   0  0  0  0  0  0  0  0  0  0  0  0
    3.5303   -0.4197   -8.7397 C   0  0  0  0  0  0  0  0  0  0  0  0
    3.8995    0.7461   -8.0729 C   0  0  0  0  0  0  0  0  0  0  0  0
    4.9059    1.4477   -8.6916 C   0  0  0  0  0  0  0  0  0  0  0  0
    5.4974    1.0227   -9.8879 C   0  0  0  0  0  0  0  0  0  0  0  0
    5.1365   -0.1221  -10.5590 C   0  0  0  0  0  0  0  0  0  0  0  0
    4.1166   -0.8546   -9.9444 C   0  0  0  0  0  0  0  0  0  0  0  0
    3.4789   -2.1104  -10.3459 C   0  0  0  0  0  0  0  0  0  0  0  0
    3.7539   -2.8010  -11.4997 C   0  0  0  0  0  0  0  0  0  0  0  0
    4.7121   -2.4072  -12.4559 C   0  0  0  0  0  0  0  0  0  0  0  0
    5.4742   -2.1558  -13.2779 N   0  0  0  0  0  0  0  0  0  0  0  0
    3.1270   -3.9912  -11.9243 C   0  0  0  0  0  0  0  0  0  0  0  0
    2.6679   -4.9474  -12.3662 N   0  0  0  0  0  0  0  0  0  0  0  0
    6.4441    2.1970   -9.9304 C   0  0  0  0  0  0  0  0  0  0  0  0
    7.9034    1.9215   -9.5108 C   0  0  0  0  0  0  0  0  0  0  0  0
    8.4524    3.2924   -9.1881 C   0  0  0  0  0  0  0  0  0  0  0  0
    7.8921    3.6949   -8.0546 C   0  0  0  0  0  0  0  0  0  0  0  0
    6.9547    2.6028   -7.5925 C   0  0  0  0  0  0  0  0  0  0  0  0
    7.7199    1.3700   -8.0909 C   0  0  0  0  0  0  0  0  0  0  0  0
    5.7839    2.6710   -8.5960 C   0  0  0  0  0  0  0  0  0  0  0  0
   -0.2137    7.3220    8.3236 H   0  0  0  0  0  0  0  0  0  0  0  0
    4.5291    5.4307    4.6619 H   0  0  0  0  0  0  0  0  0  0  0  0
    4.6867    9.7402    7.3199 H   0  0  0  0  0  0  0  0  0  0  0  0
    7.7935    8.9837    6.0920 H   0  0  0  0  0  0  0  0  0  0  0  0
    6.7248   10.9231    4.6118 H   0  0  0  0  0  0  0  0  0  0  0  0
    9.1595   10.4592    3.7400 H   0  0  0  0  0  0  0  0  0  0  0  0
    9.1189    8.2066    2.3320 H   0  0  0  0  0  0  0  0  0  0  0  0
    6.6589    7.2841    2.3361 H   0  0  0  0  0  0  0  0  0  0  0  0
    5.0760    9.0996    3.5270 H   0  0  0  0  0  0  0  0  0  0  0  0
    6.0777    9.8655    2.2730 H   0  0  0  0  0  0  0  0  0  0  0  0
    7.7525    6.7744    4.7122 H   0  0  0  0  0  0  0  0  0  0  0  0
   -2.3096    6.3006    8.4150 H   0  0  0  0  0  0  0  0  0  0  0  0
   -4.4224    5.2752    8.3692 H   0  0  0  0  0  0  0  0  0  0  0  0
   -4.4615    3.5155    8.2635 H   0  0  0  0  0  0  0  0  0  0  0  0
   -4.8204    5.4205    5.9002 H   0  0  0  0  0  0  0  0  0  0  0  0
   -4.9119    3.6595    5.8188 H   0  0  0  0  0  0  0  0  0  0  0  0
   -6.1182    4.5615    6.7357 H   0  0  0  0  0  0  0  0  0  0  0  0
   -2.1865    1.6825    8.6693 H   0  0  0  0  0  0  0  0  0  0  0  0
   -3.1327    1.3363   10.9180 H   0  0  0  0  0  0  0  0  0  0  0  0
   -5.4866    0.6653   11.1802 H   0  0  0  0  0  0  0  0  0  0  0  0
   -7.4801   -0.3020   10.1549 H   0  0  0  0  0  0  0  0  0  0  0  0
   -7.6485   -0.3652    8.3942 H   0  0  0  0  0  0  0  0  0  0  0  0
   -7.8953    2.1606   10.1015 H   0  0  0  0  0  0  0  0  0  0  0  0
   -8.0689    2.0935    8.3476 H   0  0  0  0  0  0  0  0  0  0  0  0
   -9.2420    1.2718    9.3820 H   0  0  0  0  0  0  0  0  0  0  0  0
   -5.9636    0.6740    6.9430 H   0  0  0  0  0  0  0  0  0  0  0  0
   -3.6823   -5.8177   -6.8273 H   0  0  0  0  0  0  0  0  0  0  0  0
   -4.3715   -8.0139   -7.7222 H   0  0  0  0  0  0  0  0  0  0  0  0
   -3.7283  -10.0806   -6.5518 H   0  0  0  0  0  0  0  0  0  0  0  0
   -2.2781  -10.1590   -3.1911 H   0  0  0  0  0  0  0  0  0  0  0  0
   -2.9724  -11.1299   -4.4969 H   0  0  0  0  0  0  0  0  0  0  0  0
   -0.1520   -9.9468   -4.4854 H   0  0  0  0  0  0  0  0  0  0  0  0
   -0.8426  -10.9225   -5.7821 H   0  0  0  0  0  0  0  0  0  0  0  0
   -0.5568  -11.6408   -4.1942 H   0  0  0  0  0  0  0  0  0  0  0  0
   -1.7474   -7.7691   -3.5622 H   0  0  0  0  0  0  0  0  0  0  0  0
   -1.1537    0.8303    1.5296 H   0  0  0  0  0  0  0  0  0  0  0  0
   -0.9404   -0.6900    0.6204 H   0  0  0  0  0  0  0  0  0  0  0  0
   -0.2292   -1.8431    2.7034 H   0  0  0  0  0  0  0  0  0  0  0  0
    0.8310   -0.4925    2.2818 H   0  0  0  0  0  0  0  0  0  0  0  0
   -0.3397   -0.3162    3.5866 H   0  0  0  0  0  0  0  0  0  0  0  0
   -1.4018   -0.7606   -1.9366 H   0  0  0  0  0  0  0  0  0  0  0  0
   -2.4418   -0.1115   -0.6376 H   0  0  0  0  0  0  0  0  0  0  0  0
   -3.3923    0.4842   -2.7991 H   0  0  0  0  0  0  0  0  0  0  0  0
   -4.4619   -0.6612   -1.9807 H   0  0  0  0  0  0  0  0  0  0  0  0
   -3.4279   -1.2026   -3.3086 H   0  0  0  0  0  0  0  0  0  0  0  0
   -1.1758   -6.4670   -7.1604 H   0  0  0  0  0  0  0  0  0  0  0  0
   -1.5912   -7.3110   -9.1528 H   0  0  0  0  0  0  0  0  0  0  0  0
   -0.7303   -8.2175  -10.4100 H   0  0  0  0  0  0  0  0  0  0  0  0
   -0.0432   -8.3664   -7.4241 H   0  0  0  0  0  0  0  0  0  0  0  0
   -0.9578   -9.5804   -8.3204 H   0  0  0  0  0  0  0  0  0  0  0  0
    0.7364   -9.2686   -8.7237 H   0  0  0  0  0  0  0  0  0  0  0  0
    1.9327   -4.3363  -10.0654 H   0  0  0  0  0  0  0  0  0  0  0  0
    3.4135    1.0363   -7.1545 H   0  0  0  0  0  0  0  0  0  0  0  0
    5.6014   -0.4311  -11.4799 H   0  0  0  0  0  0  0  0  0  0  0  0
    6.3669    2.8383  -10.8064 H   0  0  0  0  0  0  0  0  0  0  0  0
    8.4728    1.3188  -10.2131 H   0  0  0  0  0  0  0  0  0  0  0  0
    9.1268    3.8340   -9.8252 H   0  0  0  0  0  0  0  0  0  0  0  0
    8.0047    4.6399   -7.5560 H   0  0  0  0  0  0  0  0  0  0  0  0
    6.6603    2.6208   -6.5465 H   0  0  0  0  0  0  0  0  0  0  0  0
    8.6695    1.2382   -7.5746 H   0  0  0  0  0  0  0  0  0  0  0  0
    7.1489    0.4446   -8.0448 H   0  0  0  0  0  0  0  0  0  0  0  0
    5.2668    3.6288   -8.5826 H   0  0  0  0  0  0  0  0  0  0  0  0
  1  2  2  0  0  0  0
  2  3  1  0  0  0  0
  3  4  2  0  0  0  0
  3  5  1  0  0  0  0
  5  6  2  0  0  0  0
  6  7  1  0  0  0  0
  7  8  2  0  0  0  0
  8  9  1  0  0  0  0
  9 10  2  0  0  0  0
 10 11  1  0  0  0  0
 11 12  2  0  0  0  0
 12 13  1  0  0  0  0
 13 14  3  0  0  0  0
 12 15  1  0  0  0  0
 15 16  3  0  0  0  0
  8 17  1  0  0  0  0
 17 18  1  0  0  0  0
 18 19  1  0  0  0  0
 19 20  2  0  0  0  0
 20 21  1  0  0  0  0
 21 22  1  0  0  0  0
 21 23  1  0  0  0  0
  1 24  1  0  0  0  0
 24 25  2  0  0  0  0
 25 26  1  0  0  0  0
 26 27  1  0  0  0  0
 27 28  1  0  0  0  0
 26 29  2  0  0  0  0
 29 30  1  0  0  0  0
 29 31  1  0  0  0  0
 31 32  2  0  0  0  0
 32 33  1  0  0  0  0
 33 34  2  0  0  0  0
 34 35  1  0  0  0  0
 35 36  2  0  0  0  0
 36 37  1  0  0  0  0
 37 38  1  0  0  0  0
 38 39  1  0  0  0  0
 37 40  2  0  0  0  0
 32 41  1  0  0  0  0
 41 42  1  0  0  0  0
 42 43  1  0  0  0  0
 43 44  1  0  0  0  0
 44 45  1  0  0  0  0
 45 46  1  0  0  0  0
 46 47  2  0  0  0  0
 47 48  1  0  0  0  0
 48 49  1  0  0  0  0
 46 50  1  0  0  0  0
 50 51  1  0  0  0  0
 51 52  1  0  0  0  0
 52 53  1  0  0  0  0
 53 54  1  0  0  0  0
 54 55  1  0  0  0  0
 55 56  2  0  0  0  0
 56 57  1  0  0  0  0
 57 58  2  0  0  0  0
 58 59  1  0  0  0  0
 59 60  1  0  0  0  0
 60 61  1  0  0  0  0
 59 62  2  0  0  0  0
 54 63  2  0  0  0  0
 63 64  1  0  0  0  0
 64 65  1  0  0  0  0
 65 66  1  0  0  0  0
 66 67  1  0  0  0  0
 67 68  1  0  0  0  0
 68 69  1  0  0  0  0
 69 70  1  0  0  0  0
 70 71  1  0  0  0  0
 71 72  1  0  0  0  0
 72 73  1  0  0  0  0
 70 74  1  0  0  0  0
 74 75  1  0  0  0  0
 67 76  1  0  0  0  0
 76 77  1  0  0  0  0
 63 78  1  0  0  0  0
 78 79  2  0  0  0  0
 79 80  1  0  0  0  0
 80 81  1  0  0  0  0
 81 82  1  0  0  0  0
 82 83  1  0  0  0  0
 80 84  2  0  0  0  0
 84 85  1  0  0  0  0
 84 86  1  0  0  0  0
 86 87  2  0  0  0  0
 87 88  1  0  0  0  0
 88 89  2  0  0  0  0
 88 90  1  0  0  0  0
 90 91  2  0  0  0  0
 91 92  1  0  0  0  0
 92 93  2  0  0  0  0
 93 94  1  0  0  0  0
 94 95  2  0  0  0  0
 95 96  1  0  0  0  0
 96 97  2  0  0  0  0
 97 98  1  0  0  0  0
 98 99  3  0  0  0  0
 97100  1  0  0  0  0
100101  3  0  0  0  0
 93102  1  0  0  0  0
102103  1  0  0  0  0
103104  1  0  0  0  0
104105  2  0  0  0  0
105106  1  0  0  0  0
106107  1  0  0  0  0
106108  1  0  0  0  0
 11  2  1  0  0  0  0
 23 17  1  0  0  0  0
 30 24  1  0  0  0  0
 73 31  1  0  0  0  0
 85 78  1  0  0  0  0
 96 87  1  0  0  0  0
108102  1  0  0  0  0
 10  5  1  0  0  0  0
 22 18  1  0  0  0  0
 40 33  1  0  0  0  0
 72 41  2  0  0  0  0
 95 90  1  0  0  0  0
107103  1  0  0  0  0
 23  7  1  0  0  0  0
 71 43  2  0  0  0  0
108 92  1  0  0  0  0
 69 44  2  0  0  0  0
 49 45  2  0  0  0  0
 68 50  2  0  0  0  0
 66 51  2  0  0  0  0
 65 53  2  0  0  0  0
 62 55  1  0  0  0  0
  1109  1  0  0  0  0
  6110  1  0  0  0  0
  9111  1  0  0  0  0
 17112  1  0  0  0  0
 18113  1  0  0  0  0
 19114  1  0  0  0  0
 20115  1  0  0  0  0
 21116  1  0  0  0  0
 22117  1  0  0  0  0
 22118  1  0  0  0  0
 23119  1  0  0  0  0
 25120  1  0  0  0  0
 27121  1  0  0  0  0
 27122  1  0  0  0  0
 28123  1  0  0  0  0
 28124  1  0  0  0  0
 28125  1  0  0  0  0
 34126  1  0  0  0  0
 35127  1  0  0  0  0
 36128  1  0  0  0  0
 38129  1  0  0  0  0
 38130  1  0  0  0  0
 39131  1  0  0  0  0
 39132  1  0  0  0  0
 39133  1  0  0  0  0
 40134  1  0  0  0  0
 56135  1  0  0  0  0
 57136  1  0  0  0  0
 58137  1  0  0  0  0
 60138  1  0  0  0  0
 60139  1  0  0  0  0
 61140  1  0  0  0  0
 61141  1  0  0  0  0
 61142  1  0  0  0  0
 62143  1  0  0  0  0
 74144  1  0  0  0  0
 74145  1  0  0  0  0
 75146  1  0  0  0  0
 75147  1  0  0  0  0
 75148  1  0  0  0  0
 76149  1  0  0  0  0
 76150  1  0  0  0  0
 77151  1  0  0  0  0
 77152  1  0  0  0  0
 77153  1  0  0  0  0
 79154  1  0  0  0  0
 82155  1  0  0  0  0
 82156  1  0  0  0  0
 83157  1  0  0  0  0
 83158  1  0  0  0  0
 83159  1  0  0  0  0
 86160  1  0  0  0  0
 91161  1  0  0  0  0
 94162  1  0  0  0  0
102163  1  0  0  0  0
103164  1  0  0  0  0
104165  1  0  0  0  0
105166  1  0  0  0  0
106167  1  0  0  0  0
107168  1  0  0  0  0
107169  1  0  0  0  0
108170  1  0  0  0  0
M  END
