
  xtb     02122217483D
 energy: -379.845710418222 gnorm: 0.000886753537 xtb: 6.4.1 (unknown)
212237  0     0  0            999 V2000
    1.7814   12.6909    3.1527 C   0  0  0  0  0  0  0  0  0  0  0  0
    2.7659   13.4868    2.6469 C   0  0  0  0  0  0  0  0  0  0  0  0
    4.0053   13.0270    1.9679 C   0  0  0  0  0  0  0  0  0  0  0  0
    4.4937   11.9161    1.9582 O   0  0  0  0  0  0  0  0  0  0  0  0
    4.5033   14.1953    1.2218 C   0  0  0  0  0  0  0  0  0  0  0  0
    5.6011   14.2241    0.3643 C   0  0  0  0  0  0  0  0  0  0  0  0
    5.8343   15.4531   -0.2036 C   0  0  0  0  0  0  0  0  0  0  0  0
    5.0294   16.5719    0.0542 C   0  0  0  0  0  0  0  0  0  0  0  0
    3.9425   16.5568    0.8954 C   0  0  0  0  0  0  0  0  0  0  0  0
    3.6927   15.3169    1.4907 C   0  0  0  0  0  0  0  0  0  0  0  0
    2.6490   14.9186    2.4273 C   0  0  0  0  0  0  0  0  0  0  0  0
    1.7699   15.7562    3.0603 C   0  0  0  0  0  0  0  0  0  0  0  0
    0.8448   15.3505    4.0464 C   0  0  0  0  0  0  0  0  0  0  0  0
    0.0921   15.0990    4.8761 N   0  0  0  0  0  0  0  0  0  0  0  0
    1.7040   17.1492    2.8483 C   0  0  0  0  0  0  0  0  0  0  0  0
    1.5949   18.2843    2.7170 N   0  0  0  0  0  0  0  0  0  0  0  0
    5.8439   17.4645   -0.8476 C   0  0  0  0  0  0  0  0  0  0  0  0
    6.8306   18.4535   -0.1791 C   0  0  0  0  0  0  0  0  0  0  0  0
    7.2120   17.8471    1.1488 C   0  0  0  0  0  0  0  0  0  0  0  0
    7.9750   16.7896    0.9068 C   0  0  0  0  0  0  0  0  0  0  0  0
    8.1232   16.6616   -0.5892 C   0  0  0  0  0  0  0  0  0  0  0  0
    8.0980   18.1447   -0.9919 C   0  0  0  0  0  0  0  0  0  0  0  0
    6.7417   16.2193   -1.1325 C   0  0  0  0  0  0  0  0  0  0  0  0
    1.8653   11.3015    3.4166 C   0  0  0  0  0  0  0  0  0  0  0  0
    2.9520   10.5322    3.7399 C   0  0  0  0  0  0  0  0  0  0  0  0
    2.6600    9.1607    3.8815 C   0  0  0  0  0  0  0  0  0  0  0  0
    3.5641    8.1147    4.1831 C   0  0  0  0  0  0  0  0  0  0  0  0
    4.9836    8.3535    4.2723 C   0  0  0  0  0  0  0  0  0  0  0  0
    5.7518    9.2166    3.5354 C   0  0  0  0  0  0  0  0  0  0  0  0
    7.1149    9.1616    3.8707 C   0  0  0  0  0  0  0  0  0  0  0  0
    8.3215   10.1182    3.1147 Cl  0  0  0  0  0  0  0  0  0  0  0  0
    7.4081    8.2610    4.8655 C   0  0  0  0  0  0  0  0  0  0  0  0
    8.9930    7.9420    5.5031 S   0  0  0  0  0  0  0  0  0  0  0  0
    8.5901    6.6664    6.7540 C   0  0  0  0  0  0  0  0  0  0  0  0
    9.8664    6.1741    7.4065 C   0  0  0  0  0  0  0  0  0  0  0  0
    5.9709    7.4536    5.4016 S   0  0  0  0  0  0  0  0  0  0  0  0
    3.0089    6.8491    4.3326 C   0  0  0  0  0  0  0  0  0  0  0  0
    1.6287    6.5782    4.1639 C   0  0  0  0  0  0  0  0  0  0  0  0
    0.7266    7.6186    3.8536 C   0  0  0  0  0  0  0  0  0  0  0  0
   -0.6915    7.3864    3.6940 C   0  0  0  0  0  0  0  0  0  0  0  0
   -1.5377    6.2626    4.7288 S   0  0  0  0  0  0  0  0  0  0  0  0
   -3.0450    6.5606    3.9253 C   0  0  0  0  0  0  0  0  0  0  0  0
   -4.5484    5.7901    4.3549 S   0  0  0  0  0  0  0  0  0  0  0  0
   -3.9608    4.3914    5.3760 C   0  0  0  0  0  0  0  0  0  0  0  0
   -3.3189    3.2959    4.5470 C   0  0  0  0  0  0  0  0  0  0  0  0
   -2.8820    7.5035    2.9434 C   0  0  0  0  0  0  0  0  0  0  0  0
   -1.5613    7.9750    2.8185 C   0  0  0  0  0  0  0  0  0  0  0  0
   -4.1770    8.0368    1.9503 Cl  0  0  0  0  0  0  0  0  0  0  0  0
    1.2779    8.8891    3.7109 C   0  0  0  0  0  0  0  0  0  0  0  0
    0.3925   10.3429    3.3570 S   0  0  0  0  0  0  0  0  0  0  0  0
    1.3564    5.1962    4.2687 C   0  0  0  0  0  0  0  0  0  0  0  0
    2.4540    4.4269    4.5346 C   0  0  0  0  0  0  0  0  0  0  0  0
    3.9086    5.3902    4.6627 S   0  0  0  0  0  0  0  0  0  0  0  0
    2.4678    3.0045    4.5948 C   0  0  0  0  0  0  0  0  0  0  0  0
    3.4687    2.1335    4.9821 C   0  0  0  0  0  0  0  0  0  0  0  0
    4.7266    2.5212    5.6241 C   0  0  0  0  0  0  0  0  0  0  0  0
    5.9348    2.0074    5.1632 C   0  0  0  0  0  0  0  0  0  0  0  0
    7.1139    2.3584    5.7919 C   0  0  0  0  0  0  0  0  0  0  0  0
    7.0984    3.2140    6.8799 C   0  0  0  0  0  0  0  0  0  0  0  0
    5.9011    3.7322    7.3560 C   0  0  0  0  0  0  0  0  0  0  0  0
    5.8639    4.6297    8.5593 C   0  0  0  0  0  0  0  0  0  0  0  0
    5.4634    3.8433    9.8088 C   0  0  0  0  0  0  0  0  0  0  0  0
    4.7205    3.3718    6.7246 C   0  0  0  0  0  0  0  0  0  0  0  0
    3.1130    0.7953    4.7155 C   0  0  0  0  0  0  0  0  0  0  0  0
    3.9485   -0.7235    4.9395 S   0  0  0  0  0  0  0  0  0  0  0  0
    2.5961   -1.5476    4.2380 C   0  0  0  0  0  0  0  0  0  0  0  0
    2.2096   -2.8498    3.8712 C   0  0  0  0  0  0  0  0  0  0  0  0
    2.8111   -4.1128    4.0659 C   0  0  0  0  0  0  0  0  0  0  0  0
    2.1374   -5.2886    3.5854 C   0  0  0  0  0  0  0  0  0  0  0  0
    2.7938   -6.4002    3.8768 N   0  0  0  0  0  0  0  0  0  0  0  0
    4.1420   -6.0062    4.6816 S   0  0  0  0  0  0  0  0  0  0  0  0
    3.9435   -4.3998    4.6882 N   0  0  0  0  0  0  0  0  0  0  0  0
    0.9610   -5.1393    2.8168 C   0  0  0  0  0  0  0  0  0  0  0  0
    0.2397   -6.0493    2.0265 C   0  0  0  0  0  0  0  0  0  0  0  0
    0.2645   -7.7324    1.6209 S   0  0  0  0  0  0  0  0  0  0  0  0
   -0.9868   -7.4366    0.4400 C   0  0  0  0  0  0  0  0  0  0  0  0
   -1.6384   -8.2760   -0.4790 C   0  0  0  0  0  0  0  0  0  0  0  0
   -1.3997   -9.7219   -0.5981 C   0  0  0  0  0  0  0  0  0  0  0  0
   -2.3766  -10.6250   -0.1918 C   0  0  0  0  0  0  0  0  0  0  0  0
   -2.1500  -11.9825   -0.3195 C   0  0  0  0  0  0  0  0  0  0  0  0
   -0.9616  -12.4420   -0.8576 C   0  0  0  0  0  0  0  0  0  0  0  0
    0.0258  -11.5514   -1.2608 C   0  0  0  0  0  0  0  0  0  0  0  0
    1.2875  -12.0537   -1.9004 C   0  0  0  0  0  0  0  0  0  0  0  0
    1.0392  -12.3522   -3.3803 C   0  0  0  0  0  0  0  0  0  0  0  0
   -0.2004  -10.1908   -1.1179 C   0  0  0  0  0  0  0  0  0  0  0  0
   -2.5449   -7.5758   -1.2501 C   0  0  0  0  0  0  0  0  0  0  0  0
   -2.6219   -5.8736   -0.8144 S   0  0  0  0  0  0  0  0  0  0  0  0
   -1.4035   -6.1030    0.3907 C   0  0  0  0  0  0  0  0  0  0  0  0
   -0.7065   -5.3092    1.3091 C   0  0  0  0  0  0  0  0  0  0  0  0
   -0.6227   -3.9853    1.6527 N   0  0  0  0  0  0  0  0  0  0  0  0
    0.3894   -3.8586    2.5856 C   0  0  0  0  0  0  0  0  0  0  0  0
    0.9429   -2.7306    3.2387 C   0  0  0  0  0  0  0  0  0  0  0  0
    0.5375   -1.4069    3.2867 N   0  0  0  0  0  0  0  0  0  0  0  0
    1.5522   -0.6937    3.8730 C   0  0  0  0  0  0  0  0  0  0  0  0
    1.8451    0.6449    4.1523 C   0  0  0  0  0  0  0  0  0  0  0  0
    1.0618    2.1678    3.9410 S   0  0  0  0  0  0  0  0  0  0  0  0
   -0.8172   -0.9011    3.3398 C   0  0  0  0  0  0  0  0  0  0  0  0
   -1.2526   -0.6196    4.7780 C   0  0  0  0  0  0  0  0  0  0  0  0
   -1.2427   -2.9761    0.8226 C   0  0  0  0  0  0  0  0  0  0  0  0
   -2.7503   -2.8810    1.0557 C   0  0  0  0  0  0  0  0  0  0  0  0
   -3.3125   -8.0364   -2.3545 C   0  0  0  0  0  0  0  0  0  0  0  0
   -4.2816   -7.3493   -3.0315 C   0  0  0  0  0  0  0  0  0  0  0  0
   -4.8221   -8.0570   -4.1300 C   0  0  0  0  0  0  0  0  0  0  0  0
   -5.8004   -7.6247   -5.0500 C   0  0  0  0  0  0  0  0  0  0  0  0
   -6.4988   -6.3709   -4.8614 C   0  0  0  0  0  0  0  0  0  0  0  0
   -6.9608   -5.8453   -3.6853 C   0  0  0  0  0  0  0  0  0  0  0  0
   -7.6319   -4.6188   -3.8529 C   0  0  0  0  0  0  0  0  0  0  0  0
   -8.3526   -3.7858   -2.5324 Cl  0  0  0  0  0  0  0  0  0  0  0  0
   -7.6697   -4.1841   -5.1511 C   0  0  0  0  0  0  0  0  0  0  0  0
   -8.4086   -2.7517   -5.8311 S   0  0  0  0  0  0  0  0  0  0  0  0
   -7.5161   -1.4345   -4.9186 C   0  0  0  0  0  0  0  0  0  0  0  0
   -6.0311   -1.4530   -5.2168 C   0  0  0  0  0  0  0  0  0  0  0  0
   -6.8736   -5.3199   -6.1965 S   0  0  0  0  0  0  0  0  0  0  0  0
   -6.0572   -8.4698   -6.1238 C   0  0  0  0  0  0  0  0  0  0  0  0
   -5.4247   -9.7280   -6.2996 C   0  0  0  0  0  0  0  0  0  0  0  0
   -4.4721  -10.1772   -5.3588 C   0  0  0  0  0  0  0  0  0  0  0  0
   -3.7641  -11.4320   -5.4844 C   0  0  0  0  0  0  0  0  0  0  0  0
   -3.2074  -12.0311   -7.0243 S   0  0  0  0  0  0  0  0  0  0  0  0
   -2.4529  -13.4101   -6.2888 C   0  0  0  0  0  0  0  0  0  0  0  0
   -1.6803  -14.5737   -7.3367 S   0  0  0  0  0  0  0  0  0  0  0  0
   -0.0733  -14.8881   -6.4928 C   0  0  0  0  0  0  0  0  0  0  0  0
    0.0358  -16.3173   -6.0027 C   0  0  0  0  0  0  0  0  0  0  0  0
   -2.6395  -13.3840   -4.9305 C   0  0  0  0  0  0  0  0  0  0  0  0
   -3.3578  -12.2632   -4.4751 C   0  0  0  0  0  0  0  0  0  0  0  0
   -2.0968  -14.5962   -3.8411 Cl  0  0  0  0  0  0  0  0  0  0  0  0
   -4.2040   -9.3204   -4.2961 C   0  0  0  0  0  0  0  0  0  0  0  0
   -3.0192   -9.6139   -3.0528 S   0  0  0  0  0  0  0  0  0  0  0  0
   -5.9067  -10.4018   -7.4431 C   0  0  0  0  0  0  0  0  0  0  0  0
   -6.8554   -9.7007   -8.1356 C   0  0  0  0  0  0  0  0  0  0  0  0
   -7.2121   -8.1569   -7.3879 S   0  0  0  0  0  0  0  0  0  0  0  0
   -7.5174  -10.0896   -9.3291 C   0  0  0  0  0  0  0  0  0  0  0  0
   -8.4759   -9.3813  -10.0342 C   0  0  0  0  0  0  0  0  0  0  0  0
   -8.9160  -10.0415  -11.1713 C   0  0  0  0  0  0  0  0  0  0  0  0
   -8.3023  -11.2725  -11.3630 C   0  0  0  0  0  0  0  0  0  0  0  0
   -8.5556  -12.1611  -12.4427 C   0  0  0  0  0  0  0  0  0  0  0  0
   -7.9677  -13.3871  -12.6674 C   0  0  0  0  0  0  0  0  0  0  0  0
   -8.3229  -14.1628  -13.7918 C   0  0  0  0  0  0  0  0  0  0  0  0
   -8.5964  -14.8038  -14.7023 N   0  0  0  0  0  0  0  0  0  0  0  0
   -6.9960  -13.9705  -11.8333 C   0  0  0  0  0  0  0  0  0  0  0  0
   -6.2038  -14.4880  -11.1833 N   0  0  0  0  0  0  0  0  0  0  0  0
   -9.5232  -11.7295  -13.3897 C   0  0  0  0  0  0  0  0  0  0  0  0
  -10.3021  -11.3808  -14.1533 N   0  0  0  0  0  0  0  0  0  0  0  0
   -7.1547  -11.6028  -10.0914 S   0  0  0  0  0  0  0  0  0  0  0  0
    0.8032   13.1285    3.3145 H   0  0  0  0  0  0  0  0  0  0  0  0
    6.1920   13.3383    0.1906 H   0  0  0  0  0  0  0  0  0  0  0  0
    3.3269   17.4221    1.0771 H   0  0  0  0  0  0  0  0  0  0  0  0
    5.3105   17.9115   -1.6841 H   0  0  0  0  0  0  0  0  0  0  0  0
    6.4886   19.4846   -0.1553 H   0  0  0  0  0  0  0  0  0  0  0  0
    6.8516   18.2049    2.0955 H   0  0  0  0  0  0  0  0  0  0  0  0
    8.3799   16.0864    1.6108 H   0  0  0  0  0  0  0  0  0  0  0  0
    8.9589   16.0614   -0.9395 H   0  0  0  0  0  0  0  0  0  0  0  0
    8.9697   18.6921   -0.6367 H   0  0  0  0  0  0  0  0  0  0  0  0
    7.9760   18.3017   -2.0628 H   0  0  0  0  0  0  0  0  0  0  0  0
    6.7962   15.8527   -2.1558 H   0  0  0  0  0  0  0  0  0  0  0  0
    3.9189   10.9525    3.9305 H   0  0  0  0  0  0  0  0  0  0  0  0
    5.3749    9.8451    2.7493 H   0  0  0  0  0  0  0  0  0  0  0  0
    8.0643    5.8598    6.2407 H   0  0  0  0  0  0  0  0  0  0  0  0
    7.9223    7.1294    7.4812 H   0  0  0  0  0  0  0  0  0  0  0  0
   10.5217    5.7198    6.6672 H   0  0  0  0  0  0  0  0  0  0  0  0
    9.6314    5.4331    8.1675 H   0  0  0  0  0  0  0  0  0  0  0  0
   10.3969    6.9979    7.8780 H   0  0  0  0  0  0  0  0  0  0  0  0
   -4.8595    4.0302    5.8749 H   0  0  0  0  0  0  0  0  0  0  0  0
   -3.2735    4.7935    6.1200 H   0  0  0  0  0  0  0  0  0  0  0  0
   -3.0074    2.4813    5.1975 H   0  0  0  0  0  0  0  0  0  0  0  0
   -2.4421    3.6682    4.0226 H   0  0  0  0  0  0  0  0  0  0  0  0
   -4.0250    2.9119    3.8146 H   0  0  0  0  0  0  0  0  0  0  0  0
   -1.2708    8.6882    2.0703 H   0  0  0  0  0  0  0  0  0  0  0  0
    0.3840    4.7615    4.1298 H   0  0  0  0  0  0  0  0  0  0  0  0
    5.9466    1.3464    4.3099 H   0  0  0  0  0  0  0  0  0  0  0  0
    8.0515    1.9608    5.4326 H   0  0  0  0  0  0  0  0  0  0  0  0
    8.0257    3.4751    7.3694 H   0  0  0  0  0  0  0  0  0  0  0  0
    5.1449    5.4344    8.3910 H   0  0  0  0  0  0  0  0  0  0  0  0
    6.8463    5.0781    8.7170 H   0  0  0  0  0  0  0  0  0  0  0  0
    5.4352    4.4976   10.6769 H   0  0  0  0  0  0  0  0  0  0  0  0
    6.1781    3.0453    9.9979 H   0  0  0  0  0  0  0  0  0  0  0  0
    4.4805    3.3968    9.6787 H   0  0  0  0  0  0  0  0  0  0  0  0
    3.7792    3.7480    7.0996 H   0  0  0  0  0  0  0  0  0  0  0  0
   -3.3054  -10.2586    0.2207 H   0  0  0  0  0  0  0  0  0  0  0  0
   -2.9062  -12.6852   -0.0012 H   0  0  0  0  0  0  0  0  0  0  0  0
   -0.7952  -13.5041   -0.9643 H   0  0  0  0  0  0  0  0  0  0  0  0
    1.6189  -12.9665   -1.4012 H   0  0  0  0  0  0  0  0  0  0  0  0
    2.0766  -11.3058   -1.8066 H   0  0  0  0  0  0  0  0  0  0  0  0
    0.2699  -13.1141   -3.4802 H   0  0  0  0  0  0  0  0  0  0  0  0
    0.7013  -11.4556   -3.8964 H   0  0  0  0  0  0  0  0  0  0  0  0
    1.9499  -12.7085   -3.8565 H   0  0  0  0  0  0  0  0  0  0  0  0
    0.5555   -9.4829   -1.4269 H   0  0  0  0  0  0  0  0  0  0  0  0
   -1.4870   -1.6437    2.9204 H   0  0  0  0  0  0  0  0  0  0  0  0
   -0.8720    0.0204    2.7507 H   0  0  0  0  0  0  0  0  0  0  0  0
   -2.2930   -0.3055    4.7851 H   0  0  0  0  0  0  0  0  0  0  0  0
   -1.1538   -1.5183    5.3833 H   0  0  0  0  0  0  0  0  0  0  0  0
   -0.6509    0.1679    5.2224 H   0  0  0  0  0  0  0  0  0  0  0  0
   -1.0726   -3.2551   -0.2238 H   0  0  0  0  0  0  0  0  0  0  0  0
   -0.7459   -2.0213    0.9947 H   0  0  0  0  0  0  0  0  0  0  0  0
   -3.2389   -3.7915    0.7205 H   0  0  0  0  0  0  0  0  0  0  0  0
   -2.9889   -2.7421    2.1078 H   0  0  0  0  0  0  0  0  0  0  0  0
   -3.1555   -2.0458    0.4915 H   0  0  0  0  0  0  0  0  0  0  0  0
   -4.5690   -6.3486   -2.7646 H   0  0  0  0  0  0  0  0  0  0  0  0
   -6.8835   -6.3403   -2.7349 H   0  0  0  0  0  0  0  0  0  0  0  0
   -7.9823   -0.5149   -5.2693 H   0  0  0  0  0  0  0  0  0  0  0  0
   -7.7197   -1.5608   -3.8571 H   0  0  0  0  0  0  0  0  0  0  0  0
   -5.5446   -0.6210   -4.7117 H   0  0  0  0  0  0  0  0  0  0  0  0
   -5.8560   -1.3633   -6.2865 H   0  0  0  0  0  0  0  0  0  0  0  0
   -5.5804   -2.3806   -4.8683 H   0  0  0  0  0  0  0  0  0  0  0  0
    0.6862  -14.6749   -7.2449 H   0  0  0  0  0  0  0  0  0  0  0  0
    0.0106  -14.1681   -5.6828 H   0  0  0  0  0  0  0  0  0  0  0  0
    1.0074  -16.4710   -5.5373 H   0  0  0  0  0  0  0  0  0  0  0  0
   -0.7385  -16.5345   -5.2718 H   0  0  0  0  0  0  0  0  0  0  0  0
   -0.0677  -17.0119   -6.8327 H   0  0  0  0  0  0  0  0  0  0  0  0
   -3.6003  -12.1228   -3.4379 H   0  0  0  0  0  0  0  0  0  0  0  0
   -5.5791  -11.3780   -7.7516 H   0  0  0  0  0  0  0  0  0  0  0  0
   -8.8292   -8.4168   -9.7160 H   0  0  0  0  0  0  0  0  0  0  0  0
   -9.6569   -9.6526  -11.8477 H   0  0  0  0  0  0  0  0  0  0  0  0
  1  2  2  0  0  0  0
  2  3  1  0  0  0  0
  3  4  2  0  0  0  0
  3  5  1  0  0  0  0
  5  6  2  0  0  0  0
  6  7  1  0  0  0  0
  7  8  2  0  0  0  0
  8  9  1  0  0  0  0
  9 10  2  0  0  0  0
 10 11  1  0  0  0  0
 11 12  2  0  0  0  0
 12 13  1  0  0  0  0
 13 14  3  0  0  0  0
 12 15  1  0  0  0  0
 15 16  3  0  0  0  0
  8 17  1  0  0  0  0
 17 18  1  0  0  0  0
 18 19  1  0  0  0  0
 19 20  2  0  0  0  0
 20 21  1  0  0  0  0
 21 22  1  0  0  0  0
 21 23  1  0  0  0  0
  1 24  1  0  0  0  0
 24 25  2  0  0  0  0
 25 26  1  0  0  0  0
 26 27  2  0  0  0  0
 27 28  1  0  0  0  0
 28 29  2  0  0  0  0
 29 30  1  0  0  0  0
 30 31  1  0  0  0  0
 30 32  2  0  0  0  0
 32 33  1  0  0  0  0
 33 34  1  0  0  0  0
 34 35  1  0  0  0  0
 32 36  1  0  0  0  0
 27 37  1  0  0  0  0
 37 38  2  0  0  0  0
 38 39  1  0  0  0  0
 39 40  1  0  0  0  0
 40 41  1  0  0  0  0
 41 42  1  0  0  0  0
 42 43  1  0  0  0  0
 43 44  1  0  0  0  0
 44 45  1  0  0  0  0
 42 46  2  0  0  0  0
 46 47  1  0  0  0  0
 46 48  1  0  0  0  0
 39 49  2  0  0  0  0
 49 50  1  0  0  0  0
 38 51  1  0  0  0  0
 51 52  2  0  0  0  0
 52 53  1  0  0  0  0
 52 54  1  0  0  0  0
 54 55  2  0  0  0  0
 55 56  1  0  0  0  0
 56 57  2  0  0  0  0
 57 58  1  0  0  0  0
 58 59  2  0  0  0  0
 59 60  1  0  0  0  0
 60 61  1  0  0  0  0
 61 62  1  0  0  0  0
 60 63  2  0  0  0  0
 55 64  1  0  0  0  0
 64 65  1  0  0  0  0
 65 66  1  0  0  0  0
 66 67  1  0  0  0  0
 67 68  1  0  0  0  0
 68 69  1  0  0  0  0
 69 70  2  0  0  0  0
 70 71  1  0  0  0  0
 71 72  1  0  0  0  0
 69 73  1  0  0  0  0
 73 74  1  0  0  0  0
 74 75  1  0  0  0  0
 75 76  1  0  0  0  0
 76 77  1  0  0  0  0
 77 78  1  0  0  0  0
 78 79  2  0  0  0  0
 79 80  1  0  0  0  0
 80 81  2  0  0  0  0
 81 82  1  0  0  0  0
 82 83  1  0  0  0  0
 83 84  1  0  0  0  0
 82 85  2  0  0  0  0
 77 86  2  0  0  0  0
 86 87  1  0  0  0  0
 87 88  1  0  0  0  0
 88 89  1  0  0  0  0
 89 90  1  0  0  0  0
 90 91  1  0  0  0  0
 91 92  1  0  0  0  0
 92 93  1  0  0  0  0
 93 94  1  0  0  0  0
 94 95  1  0  0  0  0
 95 96  1  0  0  0  0
 93 97  1  0  0  0  0
 97 98  1  0  0  0  0
 90 99  1  0  0  0  0
 99100  1  0  0  0  0
 86101  1  0  0  0  0
101102  2  0  0  0  0
102103  1  0  0  0  0
103104  2  0  0  0  0
104105  1  0  0  0  0
105106  2  0  0  0  0
106107  1  0  0  0  0
107108  1  0  0  0  0
107109  2  0  0  0  0
109110  1  0  0  0  0
110111  1  0  0  0  0
111112  1  0  0  0  0
109113  1  0  0  0  0
104114  1  0  0  0  0
114115  2  0  0  0  0
115116  1  0  0  0  0
116117  1  0  0  0  0
117118  1  0  0  0  0
118119  1  0  0  0  0
119120  1  0  0  0  0
120121  1  0  0  0  0
121122  1  0  0  0  0
119123  2  0  0  0  0
123124  1  0  0  0  0
123125  1  0  0  0  0
116126  2  0  0  0  0
126127  1  0  0  0  0
115128  1  0  0  0  0
128129  2  0  0  0  0
129130  1  0  0  0  0
129131  1  0  0  0  0
131132  2  0  0  0  0
132133  1  0  0  0  0
133134  2  0  0  0  0
134135  1  0  0  0  0
135136  2  0  0  0  0
136137  1  0  0  0  0
137138  3  0  0  0  0
136139  1  0  0  0  0
139140  3  0  0  0  0
135141  1  0  0  0  0
141142  3  0  0  0  0
134143  1  0  0  0  0
 11  2  1  0  0  0  0
 23 17  1  0  0  0  0
 50 24  1  0  0  0  0
 96 54  1  0  0  0  0
127101  1  0  0  0  0
143131  1  0  0  0  0
 10  5  1  0  0  0  0
 22 18  1  0  0  0  0
 49 26  1  0  0  0  0
 63 56  1  0  0  0  0
 95 64  2  0  0  0  0
126103  1  0  0  0  0
 23  7  1  0  0  0  0
 36 28  1  0  0  0  0
 53 37  1  0  0  0  0
 94 66  2  0  0  0  0
113105  1  0  0  0  0
130114  1  0  0  0  0
 47 40  2  0  0  0  0
 92 67  2  0  0  0  0
124117  2  0  0  0  0
 72 68  2  0  0  0  0
 91 73  2  0  0  0  0
 89 74  2  0  0  0  0
 88 76  2  0  0  0  0
 85 78  1  0  0  0  0
  1144  1  0  0  0  0
  6145  1  0  0  0  0
  9146  1  0  0  0  0
 17147  1  0  0  0  0
 18148  1  0  0  0  0
 19149  1  0  0  0  0
 20150  1  0  0  0  0
 21151  1  0  0  0  0
 22152  1  0  0  0  0
 22153  1  0  0  0  0
 23154  1  0  0  0  0
 25155  1  0  0  0  0
 29156  1  0  0  0  0
 34157  1  0  0  0  0
 34158  1  0  0  0  0
 35159  1  0  0  0  0
 35160  1  0  0  0  0
 35161  1  0  0  0  0
 44162  1  0  0  0  0
 44163  1  0  0  0  0
 45164  1  0  0  0  0
 45165  1  0  0  0  0
 45166  1  0  0  0  0
 47167  1  0  0  0  0
 51168  1  0  0  0  0
 57169  1  0  0  0  0
 58170  1  0  0  0  0
 59171  1  0  0  0  0
 61172  1  0  0  0  0
 61173  1  0  0  0  0
 62174  1  0  0  0  0
 62175  1  0  0  0  0
 62176  1  0  0  0  0
 63177  1  0  0  0  0
 79178  1  0  0  0  0
 80179  1  0  0  0  0
 81180  1  0  0  0  0
 83181  1  0  0  0  0
 83182  1  0  0  0  0
 84183  1  0  0  0  0
 84184  1  0  0  0  0
 84185  1  0  0  0  0
 85186  1  0  0  0  0
 97187  1  0  0  0  0
 97188  1  0  0  0  0
 98189  1  0  0  0  0
 98190  1  0  0  0  0
 98191  1  0  0  0  0
 99192  1  0  0  0  0
 99193  1  0  0  0  0
100194  1  0  0  0  0
100195  1  0  0  0  0
100196  1  0  0  0  0
102197  1  0  0  0  0
106198  1  0  0  0  0
111199  1  0  0  0  0
111200  1  0  0  0  0
112201  1  0  0  0  0
112202  1  0  0  0  0
112203  1  0  0  0  0
121204  1  0  0  0  0
121205  1  0  0  0  0
122206  1  0  0  0  0
122207  1  0  0  0  0
122208  1  0  0  0  0
124209  1  0  0  0  0
128210  1  0  0  0  0
132211  1  0  0  0  0
133212  1  0  0  0  0
M  END
