183

C         -1.89570        3.72410       -9.46900
C         -2.34000        4.94490       -9.92240
C         -3.27360        5.83280       -9.22860
O         -3.85570        5.62640       -8.17560
C         -3.37400        7.05400      -10.04650
C         -4.11900        8.19520       -9.76240
C         -3.99330        9.19210      -10.70020
C         -3.18380        9.06230      -11.83560
C         -2.44460        7.94010      -12.12740
C         -2.56000        6.91260      -11.18780
C         -1.92670        5.59310      -11.14770
C         -1.09720        5.08940      -12.11940
C         -0.49950        3.81290      -12.12530
N          0.02290        2.79430      -12.23320
C         -0.72670        5.77980      -13.29170
N         -0.37650        6.27150      -14.26910
C         -3.52610       10.44330      -12.33630
C         -4.54090       10.56040      -13.50000
C         -5.42240        9.33870      -13.42430
C         -6.19100        9.45980      -12.35030
C         -5.84320       10.76610      -11.68020
C         -5.49020       11.61630      -12.91110
C         -4.43040       10.58720      -11.07170
C         -2.13730        3.06370       -8.26260
C         -1.51270        1.84390       -7.91370
C         -0.79460        0.99930       -8.82900
C         -1.04230        0.73300      -10.15000
C         -0.13370       -0.18050      -10.71230
C          0.81240       -0.61790       -9.83500
C          1.91230       -1.59340      -10.07070
C          1.63350       -2.92660       -9.37340
S          0.57750        0.08110       -8.26840
C         -1.67690        1.52730       -6.56750
C         -2.47260        2.42480       -5.87750
S         -3.03040        3.70860       -6.90100
C         -2.79270        2.32350       -4.49790
C         -3.78440        2.93700       -3.75350
C         -4.77830        3.90130       -4.24330
C         -6.12790        3.56760       -4.18720
C         -7.07570        4.47380       -4.62110
C         -6.68740        5.71390       -5.09830
C         -5.34640        6.06820       -5.14310
C         -4.91470        7.42290       -5.62240
C         -4.54930        8.32980       -4.44680
C         -4.39850        5.15370       -4.70610
C         -3.77050        2.49820       -2.41700
S         -4.74250        2.93390       -1.03110
C         -3.76100        1.89490       -0.05270
C         -3.60860        1.53420        1.29500
C         -4.27790        1.99210        2.45040
C         -3.79680        1.58050        3.73670
N         -4.47800        2.12780        4.73130
S         -5.63040        3.07520        4.10160
N         -5.30200        2.82670        2.53560
C         -2.73000        0.65890        3.80270
C         -2.09610        0.06630        4.90570
S         -2.12440        0.13870        6.63510
C         -0.85550       -1.06310        6.68360
C         -0.11840       -1.62950        7.74260
C         -0.26290       -1.21960        9.13900
C         -1.52840       -1.01830        9.68250
C         -1.65750       -0.63890       11.00440
C         -0.53530       -0.44880       11.79050
C          0.73610       -0.62170       11.25790
C          1.95980       -0.36200       12.08860
C          2.38890        1.10110       11.96490
C          0.85980       -0.99850        9.93060
C          0.81900       -2.53360        7.27000
S          0.82690       -2.64370        5.51730
C         -0.45750       -1.49430        5.41620
C         -1.16510       -0.84150        4.39870
N         -1.18000       -0.81910        3.03000
C         -2.12540        0.11550        2.63280
C         -2.50720        0.63310        1.36550
N         -2.00620        0.46530        0.08410
C         -2.75270        1.23890       -0.76300
C         -2.75840        1.58230       -2.12000
S         -1.83100        1.20530       -3.52600
C         -0.73160       -0.04520       -0.36590
C          0.43020        0.75110        0.22350
C         -0.58780       -1.91950        2.30200
C         -1.65470       -2.81250        1.67350
C          1.76920       -3.31940        7.98380
C          1.63000       -3.94190        9.22890
C          0.40210       -4.04520        9.98630
C          0.24870       -4.00000       11.34100
C         -1.08400       -4.19730       11.75460
C         -1.94490       -4.41960       10.72560
C         -3.40990       -4.68530       10.78050
C         -4.21800       -3.57280       10.11280
S         -1.11740       -4.36550        9.20280
C          2.82180       -4.54050        9.63080
C          3.86710       -4.43010        8.71770
S          3.34730       -3.54340        7.30660
C          5.13660       -4.97830        8.95790
C          6.25500       -4.99720        8.16530
C          6.35400       -4.43460        6.81460
O          5.48750       -3.84650        6.18930
C          7.71950       -4.71890        6.34430
C          8.26990       -4.37250        5.11230
C          9.57540       -4.77040        4.95270
C         10.28200       -5.45970        5.94680
C          9.75120       -5.80410        7.16760
C          8.42170       -5.41140        7.35100
C          7.53480       -5.59020        8.50080
C          7.88200       -6.20180        9.67870
C          7.05060       -6.35260       10.80780
N          6.45010       -6.51280       11.77440
C          9.14450       -6.77290        9.94210
N         10.14310       -7.26100       10.23080
C         11.53390       -5.54650        5.10930
C         11.82480       -6.90710        4.44160
C         12.79880       -6.56680        3.33660
C         12.12910       -5.91470        2.39490
C         10.69110       -5.80300        2.84760
C         10.55210       -7.12530        3.61310
C         10.74540       -4.77820        4.00050
H         -1.19790        3.20140      -10.11080
H         -4.72520        8.25320       -8.87180
H         -1.82360        7.86150      -13.00380
H         -2.68940       11.13070      -12.44530
H         -4.09500       10.77140      -14.46820
H         -5.35750        8.51080      -14.10580
H         -6.89660        8.75290      -11.95460
H         -6.58420       11.16520      -10.99220
H         -4.99510       12.55430      -12.66290
H         -6.35070       11.81210      -13.54910
H         -4.18480       11.37040      -10.35670
H         -1.87420        1.14430      -10.69260
H         -0.17290       -0.49110      -11.74040
H          2.85360       -1.18390       -9.69560
H          2.01270       -1.75250      -11.14600
H          1.54660       -2.77880       -8.29920
H          0.70440       -3.35800       -9.73930
H          2.44170       -3.62800       -9.56440
H         -1.25150        0.64720       -6.11530
H         -6.42520        2.59710       -3.81790
H         -8.12310        4.21190       -4.58680
H         -7.43630        6.41470       -5.43900
H         -4.05160        7.30570       -6.28000
H         -5.72290        7.88200       -6.19490
H         -3.73980        7.89420       -3.86600
H         -4.23240        9.30750       -4.80330
H         -5.40680        8.46130       -3.78990
H         -3.35250        5.42330       -4.71690
H         -2.40390       -1.18080        9.07330
H         -2.64070       -0.49080       11.42680
H         -0.64480       -0.16010       12.82600
H          2.77610       -1.00650       11.75510
H          1.75030       -0.58830       13.13600
H          3.27410        1.29080       12.56750
H          1.59080        1.75890       12.30180
H          2.61520        1.34190       10.92860
H          1.84460       -1.11680        9.50140
H         -0.64540       -1.10900       -0.14580
H         -0.72280        0.05870       -1.45380
H          0.40230        0.74180        1.31050
H          1.37560        0.33160       -0.10960
H          0.37470        1.78540       -0.10790
H          0.12300       -1.55640        1.55950
H         -0.01750       -2.50040        3.03100
H         -2.29410       -2.24830        0.99840
H         -2.28130       -3.24390        2.45070
H         -1.18350       -3.62080        1.12070
H          1.06130       -3.80430       12.01730
H         -1.39090       -4.18240       12.78530
H         -3.70600       -4.78040       11.82740
H         -3.62690       -5.63270       10.27890
H         -3.93120       -3.47590        9.06800
H         -4.03750       -2.62440       10.61220
H         -5.28060       -3.79720       10.16250
H          2.92740       -5.07690       10.55760
H          5.21270       -5.45350        9.92830
H          7.68960       -3.83630        4.37780
H         10.31230       -6.33000        7.92140
H         12.42180       -5.08220        5.53410
H         12.11860       -7.69700        5.12730
H         13.85090       -6.77930        3.37780
H         12.50990       -5.47350        1.49250
H          9.95180       -5.58760        2.08070
H         10.63140       -7.99070        2.95720
H          9.64330       -7.20090        4.20730
H         11.10840       -3.80160        3.68520
