
  xtb     02132206103D
 energy: -370.241130184711 gnorm: 0.000347879827 xtb: 6.4.1 (unknown)
222249  0     0  0            999 V2000
    7.4995    8.5173    8.6589 C   0  0  0  0  0  0  0  0  0  0  0  0
    6.7729    7.6980    9.4669 C   0  0  0  0  0  0  0  0  0  0  0  0
    6.7353    7.9203   10.9360 C   0  0  0  0  0  0  0  0  0  0  0  0
    7.4817    8.6204   11.5832 O   0  0  0  0  0  0  0  0  0  0  0  0
    5.5638    7.1579   11.4143 C   0  0  0  0  0  0  0  0  0  0  0  0
    5.0340    7.1418   12.7026 C   0  0  0  0  0  0  0  0  0  0  0  0
    3.9193    6.3497   12.8411 C   0  0  0  0  0  0  0  0  0  0  0  0
    3.3560    5.6367   11.7738 C   0  0  0  0  0  0  0  0  0  0  0  0
    3.8692    5.6378   10.4990 C   0  0  0  0  0  0  0  0  0  0  0  0
    5.0139    6.4223   10.3429 C   0  0  0  0  0  0  0  0  0  0  0  0
    5.8573    6.6174    9.1674 C   0  0  0  0  0  0  0  0  0  0  0  0
    5.9590    5.7428    8.1141 C   0  0  0  0  0  0  0  0  0  0  0  0
    5.1042    4.6420    7.9119 C   0  0  0  0  0  0  0  0  0  0  0  0
    4.4271    3.7430    7.6837 N   0  0  0  0  0  0  0  0  0  0  0  0
    7.0010    5.7953    7.1641 C   0  0  0  0  0  0  0  0  0  0  0  0
    7.8586    5.7713    6.4001 N   0  0  0  0  0  0  0  0  0  0  0  0
    2.2560    5.0642   12.6317 C   0  0  0  0  0  0  0  0  0  0  0  0
    2.3914    3.5881   13.0794 C   0  0  0  0  0  0  0  0  0  0  0  0
    3.8683    3.2799   13.0950 C   0  0  0  0  0  0  0  0  0  0  0  0
    4.4094    3.9456   14.1065 C   0  0  0  0  0  0  0  0  0  0  0  0
    3.3085    4.7157   14.7930 C   0  0  0  0  0  0  0  0  0  0  0  0
    2.1320    3.7484   14.5857 C   0  0  0  0  0  0  0  0  0  0  0  0
    2.8898    5.8491   13.8233 C   0  0  0  0  0  0  0  0  0  0  0  0
    7.3577    8.7220    7.2643 C   0  0  0  0  0  0  0  0  0  0  0  0
    8.3345    9.2013    6.4148 C   0  0  0  0  0  0  0  0  0  0  0  0
    8.0048    9.3143    5.0553 C   0  0  0  0  0  0  0  0  0  0  0  0
    9.0502    9.6098    4.0229 C   0  0  0  0  0  0  0  0  0  0  0  0
    9.3114    8.3845    3.1454 C   0  0  0  0  0  0  0  0  0  0  0  0
    6.6872    8.9967    4.7731 C   0  0  0  0  0  0  0  0  0  0  0  0
    5.7552    8.4533    6.3155 Se  0  0  0  0  0  2  0  0  0  0  0  0
    5.9885    8.9203    3.5273 C   0  0  0  0  0  0  0  0  0  0  0  0
    6.0017    9.7286    2.4069 C   0  0  0  0  0  0  0  0  0  0  0  0
    6.6603   11.0299    2.3148 C   0  0  0  0  0  0  0  0  0  0  0  0
    6.6181   11.9202    3.3869 C   0  0  0  0  0  0  0  0  0  0  0  0
    7.2215   13.1578    3.2777 C   0  0  0  0  0  0  0  0  0  0  0  0
    7.8691   13.5188    2.1083 C   0  0  0  0  0  0  0  0  0  0  0  0
    7.9119   12.6483    1.0264 C   0  0  0  0  0  0  0  0  0  0  0  0
    8.6523   13.0120   -0.2278 C   0  0  0  0  0  0  0  0  0  0  0  0
   10.0959   12.5100   -0.1556 C   0  0  0  0  0  0  0  0  0  0  0  0
    7.3013   11.4084    1.1394 C   0  0  0  0  0  0  0  0  0  0  0  0
    5.1938    9.1905    1.3799 C   0  0  0  0  0  0  0  0  0  0  0  0
    4.8130    9.7307   -0.2397 S   0  0  0  0  0  0  0  0  0  0  0  0
    3.7786    8.3554   -0.4353 C   0  0  0  0  0  0  0  0  0  0  0  0
    2.9269    7.7839   -1.3948 C   0  0  0  0  0  0  0  0  0  0  0  0
    2.5275    8.2408   -2.6692 C   0  0  0  0  0  0  0  0  0  0  0  0
    1.5541    7.4850   -3.4038 C   0  0  0  0  0  0  0  0  0  0  0  0
    1.2396    8.0516   -4.5582 N   0  0  0  0  0  0  0  0  0  0  0  0
    2.0977    9.4163   -4.7099 S   0  0  0  0  0  0  0  0  0  0  0  0
    2.9038    9.3380   -3.3073 N   0  0  0  0  0  0  0  0  0  0  0  0
    1.0985    6.2590   -2.8727 C   0  0  0  0  0  0  0  0  0  0  0  0
    0.2564    5.2755   -3.4173 C   0  0  0  0  0  0  0  0  0  0  0  0
   -0.6860    4.9852   -4.8426 S   0  0  0  0  0  0  0  0  0  0  0  0
   -1.0918    3.4007   -4.2225 C   0  0  0  0  0  0  0  0  0  0  0  0
   -1.8862    2.3527   -4.7352 C   0  0  0  0  0  0  0  0  0  0  0  0
   -2.5614    2.4779   -6.0307 C   0  0  0  0  0  0  0  0  0  0  0  0
   -1.8164    2.8421   -7.1477 C   0  0  0  0  0  0  0  0  0  0  0  0
   -2.4471    3.0411   -8.3609 C   0  0  0  0  0  0  0  0  0  0  0  0
   -3.8175    2.8903   -8.4649 C   0  0  0  0  0  0  0  0  0  0  0  0
   -4.5772    2.5304   -7.3581 C   0  0  0  0  0  0  0  0  0  0  0  0
   -6.0609    2.3418   -7.4914 C   0  0  0  0  0  0  0  0  0  0  0  0
   -6.3689    1.0650   -8.2735 C   0  0  0  0  0  0  0  0  0  0  0  0
   -3.9387    2.3252   -6.1449 C   0  0  0  0  0  0  0  0  0  0  0  0
   -1.9083    1.2707   -3.8764 C   0  0  0  0  0  0  0  0  0  0  0  0
   -0.9637    1.5680   -2.4131 S   0  0  0  0  0  0  0  0  0  0  0  0
   -0.5269    3.1387   -2.9756 C   0  0  0  0  0  0  0  0  0  0  0  0
    0.2444    4.2114   -2.5139 C   0  0  0  0  0  0  0  0  0  0  0  0
    1.0168    4.5051   -1.4235 N   0  0  0  0  0  0  0  0  0  0  0  0
    1.5545    5.7679   -1.6160 C   0  0  0  0  0  0  0  0  0  0  0  0
    2.4028    6.5885   -0.8252 C   0  0  0  0  0  0  0  0  0  0  0  0
    2.9046    6.4648    0.4610 N   0  0  0  0  0  0  0  0  0  0  0  0
    3.7303    7.5315    0.6896 C   0  0  0  0  0  0  0  0  0  0  0  0
    4.5361    8.0109    1.7299 C   0  0  0  0  0  0  0  0  0  0  0  0
    4.9306    7.5259    3.3397 S   0  0  0  0  0  0  0  0  0  0  0  0
    2.4214    5.6930    1.5844 C   0  0  0  0  0  0  0  0  0  0  0  0
    0.9506    5.9832    1.8722 C   0  0  0  0  0  0  0  0  0  0  0  0
    1.4298    3.4345   -0.5438 C   0  0  0  0  0  0  0  0  0  0  0  0
    2.8998    3.0767   -0.7470 C   0  0  0  0  0  0  0  0  0  0  0  0
   -2.4484   -0.0407   -4.0032 C   0  0  0  0  0  0  0  0  0  0  0  0
   -2.2177   -1.0537   -3.1111 C   0  0  0  0  0  0  0  0  0  0  0  0
   -2.7816   -2.2937   -3.4742 C   0  0  0  0  0  0  0  0  0  0  0  0
   -2.6809   -3.5229   -2.7864 C   0  0  0  0  0  0  0  0  0  0  0  0
   -2.1485   -3.5808   -1.4470 C   0  0  0  0  0  0  0  0  0  0  0  0
   -2.2929   -2.6433   -0.4492 C   0  0  0  0  0  0  0  0  0  0  0  0
   -1.6773   -3.0056    0.7503 C   0  0  0  0  0  0  0  0  0  0  0  0
   -1.0500   -4.2316    0.6974 C   0  0  0  0  0  0  0  0  0  0  0  0
   -0.3478   -4.8823    1.7485 C   0  0  0  0  0  0  0  0  0  0  0  0
    0.1789   -6.1224    1.6684 C   0  0  0  0  0  0  0  0  0  0  0  0
    0.8797   -6.7750    2.7186 C   0  0  0  0  0  0  0  0  0  0  0  0
    1.4212   -8.0381    2.7025 C   0  0  0  0  0  0  0  0  0  0  0  0
    2.0705   -8.3959    3.8928 C   0  0  0  0  0  0  0  0  0  0  0  0
    2.0229   -7.4074    4.8372 C   0  0  0  0  0  0  0  0  0  0  0  0
    2.6977   -7.3549    6.4483 S   0  0  0  0  0  0  0  0  0  0  0  0
    2.8145   -9.1304    6.8722 C   0  0  0  0  0  0  0  0  0  0  0  0
    1.4503   -9.7799    6.9936 C   0  0  0  0  0  0  0  0  0  0  0  0
    1.1700   -6.0096    4.2645 S   0  0  0  0  0  0  0  0  0  0  0  0
   -1.2355   -4.9463   -0.8790 S   0  0  0  0  0  0  0  0  0  0  0  0
   -3.1394   -4.6500   -3.4663 C   0  0  0  0  0  0  0  0  0  0  0  0
   -3.7730   -4.5701   -4.7353 C   0  0  0  0  0  0  0  0  0  0  0  0
   -4.0006   -3.3155   -5.3565 C   0  0  0  0  0  0  0  0  0  0  0  0
   -4.8334   -3.1897   -6.5328 C   0  0  0  0  0  0  0  0  0  0  0  0
   -5.8548   -2.2944   -6.7145 C   0  0  0  0  0  0  0  0  0  0  0  0
   -6.5938   -2.5205   -7.8873 C   0  0  0  0  0  0  0  0  0  0  0  0
   -6.1547   -3.5954   -8.6097 C   0  0  0  0  0  0  0  0  0  0  0  0
   -6.6955   -4.1432   -9.8356 C   0  0  0  0  0  0  0  0  0  0  0  0
   -7.0648   -5.4205  -10.0344 C   0  0  0  0  0  0  0  0  0  0  0  0
   -7.1522   -6.4895   -9.0855 C   0  0  0  0  0  0  0  0  0  0  0  0
   -7.3920   -7.8108   -9.3761 C   0  0  0  0  0  0  0  0  0  0  0  0
   -7.5164   -8.6363   -8.2505 C   0  0  0  0  0  0  0  0  0  0  0  0
   -7.3917   -7.9466   -7.0758 C   0  0  0  0  0  0  0  0  0  0  0  0
   -7.3978   -8.6641   -5.4829 S   0  0  0  0  0  0  0  0  0  0  0  0
   -7.5537   -7.2046   -4.3928 C   0  0  0  0  0  0  0  0  0  0  0  0
   -8.9504   -6.6173   -4.4150 C   0  0  0  0  0  0  0  0  0  0  0  0
   -7.1016   -6.2593   -7.3572 S   0  0  0  0  0  0  0  0  0  0  0  0
   -4.7401   -4.2895   -7.8749 S   0  0  0  0  0  0  0  0  0  0  0  0
   -3.4578   -2.2122   -4.7170 C   0  0  0  0  0  0  0  0  0  0  0  0
   -3.4299   -0.5805   -5.3511 S   0  0  0  0  0  0  0  0  0  0  0  0
   -4.1463   -5.8412   -5.1927 C   0  0  0  0  0  0  0  0  0  0  0  0
   -3.8349   -6.8740   -4.3308 C   0  0  0  0  0  0  0  0  0  0  0  0
   -3.0692   -6.2860   -2.8720 S   0  0  0  0  0  0  0  0  0  0  0  0
   -4.1045   -8.2142   -4.6770 C   0  0  0  0  0  0  0  0  0  0  0  0
   -3.9472   -9.3642   -3.9603 C   0  0  0  0  0  0  0  0  0  0  0  0
   -3.4946   -9.4655   -2.5625 C   0  0  0  0  0  0  0  0  0  0  0  0
   -3.0972   -8.5694   -1.8421 O   0  0  0  0  0  0  0  0  0  0  0  0
   -3.6275  -10.8860   -2.1946 C   0  0  0  0  0  0  0  0  0  0  0  0
   -3.3298  -11.4609   -0.9606 C   0  0  0  0  0  0  0  0  0  0  0  0
   -3.5471  -12.8163   -0.9086 C   0  0  0  0  0  0  0  0  0  0  0  0
   -4.0311  -13.5470   -2.0021 C   0  0  0  0  0  0  0  0  0  0  0  0
   -4.3315  -12.9925   -3.2232 C   0  0  0  0  0  0  0  0  0  0  0  0
   -4.1117  -11.6133   -3.3010 C   0  0  0  0  0  0  0  0  0  0  0  0
   -4.2856  -10.6961   -4.4246 C   0  0  0  0  0  0  0  0  0  0  0  0
   -4.6649  -11.0500   -5.6935 C   0  0  0  0  0  0  0  0  0  0  0  0
   -4.7154  -10.1941   -6.8136 C   0  0  0  0  0  0  0  0  0  0  0  0
   -4.7534   -9.5931   -7.7928 N   0  0  0  0  0  0  0  0  0  0  0  0
   -5.0255  -12.3564   -6.0836 C   0  0  0  0  0  0  0  0  0  0  0  0
   -5.3391  -13.3897   -6.4747 N   0  0  0  0  0  0  0  0  0  0  0  0
   -3.9988  -14.8523   -1.2464 C   0  0  0  0  0  0  0  0  0  0  0  0
   -2.8273  -15.8044   -1.5677 C   0  0  0  0  0  0  0  0  0  0  0  0
   -2.7810  -16.7355   -0.3779 C   0  0  0  0  0  0  0  0  0  0  0  0
   -2.3223  -16.0444    0.6578 C   0  0  0  0  0  0  0  0  0  0  0  0
   -2.0510  -14.6343    0.1851 C   0  0  0  0  0  0  0  0  0  0  0  0
   -1.6132  -14.9194   -1.2574 C   0  0  0  0  0  0  0  0  0  0  0  0
   -3.4587  -14.0378   -0.0274 C   0  0  0  0  0  0  0  0  0  0  0  0
    8.2359    9.1377    9.1618 H   0  0  0  0  0  0  0  0  0  0  0  0
    5.4904    7.7111   13.4972 H   0  0  0  0  0  0  0  0  0  0  0  0
    3.4271    5.0926    9.6809 H   0  0  0  0  0  0  0  0  0  0  0  0
    1.2396    5.3185   12.3376 H   0  0  0  0  0  0  0  0  0  0  0  0
    1.7618    2.8910   12.5331 H   0  0  0  0  0  0  0  0  0  0  0  0
    4.3610    2.6750   12.3565 H   0  0  0  0  0  0  0  0  0  0  0  0
    5.4457    4.0077   14.3829 H   0  0  0  0  0  0  0  0  0  0  0  0
    3.5135    5.0441   15.8086 H   0  0  0  0  0  0  0  0  0  0  0  0
    1.1624    4.1886   14.8149 H   0  0  0  0  0  0  0  0  0  0  0  0
    2.2519    2.8159   15.1352 H   0  0  0  0  0  0  0  0  0  0  0  0
    2.2854    6.6105   14.3128 H   0  0  0  0  0  0  0  0  0  0  0  0
    9.3305    9.4021    6.7745 H   0  0  0  0  0  0  0  0  0  0  0  0
    8.7482   10.4486    3.3949 H   0  0  0  0  0  0  0  0  0  0  0  0
    9.9726    9.8877    4.5357 H   0  0  0  0  0  0  0  0  0  0  0  0
    9.5707    7.5270    3.7619 H   0  0  0  0  0  0  0  0  0  0  0  0
    8.4281    8.1343    2.5634 H   0  0  0  0  0  0  0  0  0  0  0  0
   10.1308    8.5846    2.4594 H   0  0  0  0  0  0  0  0  0  0  0  0
    6.1041   11.6410    4.2950 H   0  0  0  0  0  0  0  0  0  0  0  0
    7.1848   13.8468    4.1086 H   0  0  0  0  0  0  0  0  0  0  0  0
    8.3403   14.4880    2.0320 H   0  0  0  0  0  0  0  0  0  0  0  0
    8.6531   14.0958   -0.3574 H   0  0  0  0  0  0  0  0  0  0  0  0
    8.1572   12.5633   -1.0909 H   0  0  0  0  0  0  0  0  0  0  0  0
   10.1149   11.4293   -0.0330 H   0  0  0  0  0  0  0  0  0  0  0  0
   10.6117   12.9593    0.6904 H   0  0  0  0  0  0  0  0  0  0  0  0
   10.6335   12.7657   -1.0656 H   0  0  0  0  0  0  0  0  0  0  0  0
    7.3378   10.7192    0.3086 H   0  0  0  0  0  0  0  0  0  0  0  0
   -0.7468    2.9626   -7.0625 H   0  0  0  0  0  0  0  0  0  0  0  0
   -1.8668    3.3241   -9.2267 H   0  0  0  0  0  0  0  0  0  0  0  0
   -4.3067    3.0629   -9.4126 H   0  0  0  0  0  0  0  0  0  0  0  0
   -6.4963    3.1985   -8.0117 H   0  0  0  0  0  0  0  0  0  0  0  0
   -6.5153    2.2789   -6.5010 H   0  0  0  0  0  0  0  0  0  0  0  0
   -7.4425    0.8951   -8.3160 H   0  0  0  0  0  0  0  0  0  0  0  0
   -5.8944    0.2116   -7.7959 H   0  0  0  0  0  0  0  0  0  0  0  0
   -5.9901    1.1374   -9.2901 H   0  0  0  0  0  0  0  0  0  0  0  0
   -4.5189    2.0727   -5.2686 H   0  0  0  0  0  0  0  0  0  0  0  0
    2.6004    4.6291    1.4291 H   0  0  0  0  0  0  0  0  0  0  0  0
    3.0214    5.9924    2.4473 H   0  0  0  0  0  0  0  0  0  0  0  0
    0.6131    5.3835    2.7132 H   0  0  0  0  0  0  0  0  0  0  0  0
    0.8223    7.0339    2.1222 H   0  0  0  0  0  0  0  0  0  0  0  0
    0.3282    5.7629    1.0080 H   0  0  0  0  0  0  0  0  0  0  0  0
    1.2147    3.6839    0.4953 H   0  0  0  0  0  0  0  0  0  0  0  0
    0.8120    2.5697   -0.7982 H   0  0  0  0  0  0  0  0  0  0  0  0
    3.0587    2.7292   -1.7653 H   0  0  0  0  0  0  0  0  0  0  0  0
    3.1864    2.2832   -0.0621 H   0  0  0  0  0  0  0  0  0  0  0  0
    3.5426    3.9375   -0.5790 H   0  0  0  0  0  0  0  0  0  0  0  0
   -1.5997   -0.9211   -2.2415 H   0  0  0  0  0  0  0  0  0  0  0  0
   -2.8713   -1.7446   -0.5691 H   0  0  0  0  0  0  0  0  0  0  0  0
   -1.6956   -2.3993    1.6387 H   0  0  0  0  0  0  0  0  0  0  0  0
   -0.2522   -4.3217    2.6703 H   0  0  0  0  0  0  0  0  0  0  0  0
    0.0705   -6.6892    0.7521 H   0  0  0  0  0  0  0  0  0  0  0  0
    1.3561   -8.6873    1.8475 H   0  0  0  0  0  0  0  0  0  0  0  0
    2.5589   -9.3426    4.0367 H   0  0  0  0  0  0  0  0  0  0  0  0
    3.3395   -9.1355    7.8270 H   0  0  0  0  0  0  0  0  0  0  0  0
    3.4388   -9.6174    6.1244 H   0  0  0  0  0  0  0  0  0  0  0  0
    0.9166   -9.7361    6.0465 H   0  0  0  0  0  0  0  0  0  0  0  0
    1.5622  -10.8231    7.2823 H   0  0  0  0  0  0  0  0  0  0  0  0
    0.8559   -9.2702    7.7482 H   0  0  0  0  0  0  0  0  0  0  0  0
   -6.0991   -1.5359   -5.9920 H   0  0  0  0  0  0  0  0  0  0  0  0
   -7.4584   -1.9459   -8.1680 H   0  0  0  0  0  0  0  0  0  0  0  0
   -6.8052   -3.4411  -10.6529 H   0  0  0  0  0  0  0  0  0  0  0  0
   -7.3897   -5.7055  -11.0277 H   0  0  0  0  0  0  0  0  0  0  0  0
   -7.4643   -8.1770  -10.3846 H   0  0  0  0  0  0  0  0  0  0  0  0
   -7.6904   -9.6954   -8.2906 H   0  0  0  0  0  0  0  0  0  0  0  0
   -7.2975   -7.5824   -3.4030 H   0  0  0  0  0  0  0  0  0  0  0  0
   -6.8022   -6.4782   -4.7034 H   0  0  0  0  0  0  0  0  0  0  0  0
   -9.6825   -7.3639   -4.1162 H   0  0  0  0  0  0  0  0  0  0  0  0
   -9.0035   -5.7775   -3.7255 H   0  0  0  0  0  0  0  0  0  0  0  0
   -9.2021   -6.2607   -5.4113 H   0  0  0  0  0  0  0  0  0  0  0  0
   -4.6220   -6.0283   -6.1372 H   0  0  0  0  0  0  0  0  0  0  0  0
   -4.5086   -8.3141   -5.6767 H   0  0  0  0  0  0  0  0  0  0  0  0
   -2.9634  -10.8587   -0.1438 H   0  0  0  0  0  0  0  0  0  0  0  0
   -4.7073  -13.5679   -4.0524 H   0  0  0  0  0  0  0  0  0  0  0  0
   -4.9520  -15.3682   -1.1478 H   0  0  0  0  0  0  0  0  0  0  0  0
   -2.8731  -16.2665   -2.5500 H   0  0  0  0  0  0  0  0  0  0  0  0
   -3.1277  -17.7521   -0.3975 H   0  0  0  0  0  0  0  0  0  0  0  0
   -2.2098  -16.3681    1.6760 H   0  0  0  0  0  0  0  0  0  0  0  0
   -1.3886  -14.0310    0.8002 H   0  0  0  0  0  0  0  0  0  0  0  0
   -1.5397  -14.0317   -1.8827 H   0  0  0  0  0  0  0  0  0  0  0  0
   -0.6775  -15.4744   -1.3014 H   0  0  0  0  0  0  0  0  0  0  0  0
   -4.0518  -14.0108    0.8850 H   0  0  0  0  0  0  0  0  0  0  0  0
  1  2  2  0  0  0  0
  2  3  1  0  0  0  0
  3  4  2  0  0  0  0
  3  5  1  0  0  0  0
  5  6  2  0  0  0  0
  6  7  1  0  0  0  0
  7  8  2  0  0  0  0
  8  9  1  0  0  0  0
  9 10  2  0  0  0  0
 10 11  1  0  0  0  0
 11 12  2  0  0  0  0
 12 13  1  0  0  0  0
 13 14  3  0  0  0  0
 12 15  1  0  0  0  0
 15 16  3  0  0  0  0
  8 17  1  0  0  0  0
 17 18  1  0  0  0  0
 18 19  1  0  0  0  0
 19 20  2  0  0  0  0
 20 21  1  0  0  0  0
 21 22  1  0  0  0  0
 21 23  1  0  0  0  0
  1 24  1  0  0  0  0
 24 25  2  0  0  0  0
 25 26  1  0  0  0  0
 26 27  1  0  0  0  0
 27 28  1  0  0  0  0
 26 29  2  0  0  0  0
 29 30  1  0  0  0  0
 29 31  1  0  0  0  0
 31 32  2  0  0  0  0
 32 33  1  0  0  0  0
 33 34  2  0  0  0  0
 34 35  1  0  0  0  0
 35 36  2  0  0  0  0
 36 37  1  0  0  0  0
 37 38  1  0  0  0  0
 38 39  1  0  0  0  0
 37 40  2  0  0  0  0
 32 41  1  0  0  0  0
 41 42  1  0  0  0  0
 42 43  1  0  0  0  0
 43 44  1  0  0  0  0
 44 45  1  0  0  0  0
 45 46  1  0  0  0  0
 46 47  2  0  0  0  0
 47 48  1  0  0  0  0
 48 49  1  0  0  0  0
 46 50  1  0  0  0  0
 50 51  1  0  0  0  0
 51 52  1  0  0  0  0
 52 53  1  0  0  0  0
 53 54  1  0  0  0  0
 54 55  1  0  0  0  0
 55 56  2  0  0  0  0
 56 57  1  0  0  0  0
 57 58  2  0  0  0  0
 58 59  1  0  0  0  0
 59 60  1  0  0  0  0
 60 61  1  0  0  0  0
 59 62  2  0  0  0  0
 54 63  2  0  0  0  0
 63 64  1  0  0  0  0
 64 65  1  0  0  0  0
 65 66  1  0  0  0  0
 66 67  1  0  0  0  0
 67 68  1  0  0  0  0
 68 69  1  0  0  0  0
 69 70  1  0  0  0  0
 70 71  1  0  0  0  0
 71 72  1  0  0  0  0
 72 73  1  0  0  0  0
 70 74  1  0  0  0  0
 74 75  1  0  0  0  0
 67 76  1  0  0  0  0
 76 77  1  0  0  0  0
 63 78  1  0  0  0  0
 78 79  2  0  0  0  0
 79 80  1  0  0  0  0
 80 81  2  0  0  0  0
 81 82  1  0  0  0  0
 82 83  2  0  0  0  0
 83 84  1  0  0  0  0
 84 85  2  0  0  0  0
 85 86  1  0  0  0  0
 86 87  2  0  0  0  0
 87 88  1  0  0  0  0
 88 89  2  0  0  0  0
 89 90  1  0  0  0  0
 90 91  2  0  0  0  0
 91 92  1  0  0  0  0
 92 93  1  0  0  0  0
 93 94  1  0  0  0  0
 91 95  1  0  0  0  0
 85 96  1  0  0  0  0
 81 97  1  0  0  0  0
 97 98  2  0  0  0  0
 98 99  1  0  0  0  0
 99100  1  0  0  0  0
100101  2  0  0  0  0
101102  1  0  0  0  0
102103  2  0  0  0  0
103104  1  0  0  0  0
104105  2  0  0  0  0
105106  1  0  0  0  0
106107  2  0  0  0  0
107108  1  0  0  0  0
108109  2  0  0  0  0
109110  1  0  0  0  0
110111  1  0  0  0  0
111112  1  0  0  0  0
109113  1  0  0  0  0
103114  1  0  0  0  0
 99115  2  0  0  0  0
115116  1  0  0  0  0
 98117  1  0  0  0  0
117118  2  0  0  0  0
118119  1  0  0  0  0
118120  1  0  0  0  0
120121  2  0  0  0  0
121122  1  0  0  0  0
122123  2  0  0  0  0
122124  1  0  0  0  0
124125  2  0  0  0  0
125126  1  0  0  0  0
126127  2  0  0  0  0
127128  1  0  0  0  0
128129  2  0  0  0  0
129130  1  0  0  0  0
130131  2  0  0  0  0
131132  1  0  0  0  0
132133  3  0  0  0  0
131134  1  0  0  0  0
134135  3  0  0  0  0
127136  1  0  0  0  0
136137  1  0  0  0  0
137138  1  0  0  0  0
138139  2  0  0  0  0
139140  1  0  0  0  0
140141  1  0  0  0  0
140142  1  0  0  0  0
 11  2  1  0  0  0  0
 23 17  1  0  0  0  0
 30 24  1  0  0  0  0
 73 31  1  0  0  0  0
116 78  1  0  0  0  0
130121  1  0  0  0  0
142136  1  0  0  0  0
 10  5  1  0  0  0  0
 22 18  1  0  0  0  0
 40 33  1  0  0  0  0
 72 41  2  0  0  0  0
115 80  1  0  0  0  0
129124  1  0  0  0  0
141137  1  0  0  0  0
 23  7  1  0  0  0  0
 71 43  2  0  0  0  0
 96 82  1  0  0  0  0
119 97  1  0  0  0  0
142126  1  0  0  0  0
 69 44  2  0  0  0  0
 95 88  1  0  0  0  0
114100  1  0  0  0  0
 49 45  2  0  0  0  0
 68 50  2  0  0  0  0
113106  1  0  0  0  0
 66 51  2  0  0  0  0
 65 53  2  0  0  0  0
 62 55  1  0  0  0  0
  1143  1  0  0  0  0
  6144  1  0  0  0  0
  9145  1  0  0  0  0
 17146  1  0  0  0  0
 18147  1  0  0  0  0
 19148  1  0  0  0  0
 20149  1  0  0  0  0
 21150  1  0  0  0  0
 22151  1  0  0  0  0
 22152  1  0  0  0  0
 23153  1  0  0  0  0
 25154  1  0  0  0  0
 27155  1  0  0  0  0
 27156  1  0  0  0  0
 28157  1  0  0  0  0
 28158  1  0  0  0  0
 28159  1  0  0  0  0
 34160  1  0  0  0  0
 35161  1  0  0  0  0
 36162  1  0  0  0  0
 38163  1  0  0  0  0
 38164  1  0  0  0  0
 39165  1  0  0  0  0
 39166  1  0  0  0  0
 39167  1  0  0  0  0
 40168  1  0  0  0  0
 56169  1  0  0  0  0
 57170  1  0  0  0  0
 58171  1  0  0  0  0
 60172  1  0  0  0  0
 60173  1  0  0  0  0
 61174  1  0  0  0  0
 61175  1  0  0  0  0
 61176  1  0  0  0  0
 62177  1  0  0  0  0
 74178  1  0  0  0  0
 74179  1  0  0  0  0
 75180  1  0  0  0  0
 75181  1  0  0  0  0
 75182  1  0  0  0  0
 76183  1  0  0  0  0
 76184  1  0  0  0  0
 77185  1  0  0  0  0
 77186  1  0  0  0  0
 77187  1  0  0  0  0
 79188  1  0  0  0  0
 83189  1  0  0  0  0
 84190  1  0  0  0  0
 86191  1  0  0  0  0
 87192  1  0  0  0  0
 89193  1  0  0  0  0
 90194  1  0  0  0  0
 93195  1  0  0  0  0
 93196  1  0  0  0  0
 94197  1  0  0  0  0
 94198  1  0  0  0  0
 94199  1  0  0  0  0
101200  1  0  0  0  0
102201  1  0  0  0  0
104202  1  0  0  0  0
105203  1  0  0  0  0
107204  1  0  0  0  0
108205  1  0  0  0  0
111206  1  0  0  0  0
111207  1  0  0  0  0
112208  1  0  0  0  0
112209  1  0  0  0  0
112210  1  0  0  0  0
117211  1  0  0  0  0
120212  1  0  0  0  0
125213  1  0  0  0  0
128214  1  0  0  0  0
136215  1  0  0  0  0
137216  1  0  0  0  0
138217  1  0  0  0  0
139218  1  0  0  0  0
140219  1  0  0  0  0
141220  1  0  0  0  0
141221  1  0  0  0  0
142222  1  0  0  0  0
M  END
