189

C          2.48010        5.86750        9.09280
C          1.63410        6.67470        8.39980
C          0.90010        7.77220        9.08420
O          1.14760        8.24600       10.16980
C         -0.22360        8.10110        8.18340
C         -1.28400        8.96850        8.43930
C         -2.20320        9.04550        7.42040
C         -2.08310        8.31480        6.23010
C         -1.03740        7.46580        5.95650
C         -0.09180        7.37370        6.98100
C          1.14950        6.60930        7.03770
C          1.86430        6.15520        5.95930
C          3.19660        5.70480        6.06540
N          4.29900        5.38720        6.11470
C          1.39340        6.16420        4.63270
N          1.04880        6.12510        3.53800
C         -3.37150        8.86280        5.66930
C         -4.59940        7.92890        5.72190
C         -5.77390        8.86750        5.56420
C         -5.88630        9.56510        6.68740
C         -4.79040        9.10890        7.62340
C         -4.70040        7.63060        7.22350
C         -3.50310        9.68180        6.99320
C          2.91330        4.56280        8.75140
C          4.01480        3.89870        9.24610
C          4.18130        2.60900        8.72890
S          5.57240        1.58180        9.05190
C          6.92790        2.79650        8.81940
C          6.95850        3.35830        7.41250
C          3.15530        2.23220        7.87580
S          2.00710        3.52130        7.68170
C          2.96460        1.02110        7.15380
C          3.21040       -0.28710        7.53320
C          3.59680       -0.71540        8.87560
C          4.50220       -1.75970        9.04330
C          4.86070       -2.16350       10.31450
C          4.32130       -1.53910       11.42490
C          3.40530       -0.50480       11.27760
C          2.78150        0.14230       12.48080
C          1.54760       -0.64120       12.93220
C          3.04420       -0.10830       10.00060
C          2.93720       -1.17630        6.47280
S          2.98890       -2.91880        6.34900
C          2.40120       -2.80000        4.72570
C          2.02040       -3.63970        3.66640
C          1.86100       -5.04150        3.59500
C          1.25900       -5.61380        2.42290
N          1.10110       -6.92380        2.52460
S          1.66740       -7.39920        3.96550
N          2.13300       -5.94990        4.51810
C          0.98240       -4.77650        1.31960
C          0.55130       -5.06330        0.01530
S          0.03780       -6.42500       -0.91860
C         -0.03830       -5.38860       -2.32700
C         -0.40070       -5.64040       -3.66010
C         -0.91720       -6.94780       -4.07550
C         -0.22710       -8.11010       -3.74670
C         -0.74930       -9.34230       -4.09500
C         -1.95960       -9.42520       -4.75930
C         -2.66850       -8.27410       -5.08530
C         -4.00660       -8.36350       -5.76070
C         -5.12060       -8.50140       -4.72120
C         -2.14090       -7.04220       -4.73400
C         -0.28980       -4.49530       -4.44040
S          0.17110       -3.08580       -3.49570
C          0.30950       -4.06060       -2.06760
C          0.63380       -3.87400       -0.71830
N          1.06940       -2.85720        0.09300
C          1.26300       -3.38210        1.35700
C          1.64350       -2.79180        2.58860
N          1.74620       -1.47310        3.00350
C          2.19090       -1.48590        4.29970
C          2.47750       -0.55750        5.30780
S          2.36640        1.15390        5.50480
C          1.04070       -0.31180        2.50510
C         -0.47110       -0.50960        2.58350
C          1.65000       -1.66560       -0.48640
C          0.59620       -0.67430       -0.97010
C         -0.39140       -4.35710       -5.86020
C         -0.39640       -5.42640       -6.75290
C         -0.51540       -5.24030       -8.12260
C         -0.63790       -3.98090       -8.69140
C         -0.52850       -2.85800       -7.82260
N         -0.48570       -1.61390       -8.32260
C         -0.39200       -0.57790       -7.52550
C         -0.39010        0.73730       -8.17540
C          0.30210        0.89960       -9.37060
C          0.28830        2.12780      -10.00940
C         -0.40370        3.19020       -9.46610
C         -1.11300        3.03400       -8.27120
O         -1.75940        4.13160       -7.81440
C         -2.42610        4.06770       -6.56690
C         -2.94480        5.46140       -6.25150
C         -1.11500        1.79760       -7.63750
C         -0.31280       -0.77030       -6.11210
N         -0.32790       -1.98430       -5.61850
C         -0.41980       -3.04770       -6.42510
C         -0.18400        0.33920       -5.15780
C          0.77090        1.33380       -5.33400
C          0.85460        2.36260       -4.41180
C         -0.00680        2.41220       -3.33470
C         -0.96350        1.41120       -3.14460
O         -1.73740        1.54700       -2.03620
C         -2.82320        0.66590       -1.82000
C         -4.01910        0.97770       -2.71450
C         -1.03810        0.36800       -4.05920
C         -0.73290       -3.74740      -10.10610
C         -1.35350       -2.65210      -10.60730
C         -2.29720       -1.79680       -9.80770
O         -3.01640       -2.14000       -8.89420
C         -2.34660       -0.54880      -10.57120
S         -3.06530        0.98830      -10.37240
C         -2.45480        1.46350      -11.93570
Cl        -2.73720        3.03830      -12.51210
C         -1.76680        0.47760      -12.58480
C         -1.70840       -0.68750      -11.79550
C         -1.15450       -2.02300      -11.90220
C         -0.53440       -2.53860      -13.00870
C         -0.36960       -1.78650      -14.18980
N         -0.22290       -1.19010      -15.15920
C         -0.02990       -3.85050      -13.10290
N          0.39720       -4.90850      -13.23090
H          2.79870        6.23480       10.06320
H         -1.34130        9.51600        9.36690
H         -0.95040        6.90500        5.04010
H         -3.28760        9.40240        4.72790
H         -4.55570        7.08090        5.04390
H         -6.34770        8.96400        4.66130
H         -6.57310       10.36040        6.91000
H         -4.92200        9.33600        8.67790
H         -3.83540        7.11180        7.63260
H         -5.60640        7.08090        7.47360
H         -3.50400       10.76850        6.93490
H          4.70230        4.36090        9.93130
H          7.82490        2.21570        9.03380
H          6.82740        3.57860        9.57020
H          7.82690        4.00320        7.29520
H          6.06620        3.94360        7.19990
H          7.02390        2.55160        6.68590
H          4.94140       -2.23320        8.17900
H          5.57040       -2.96770       10.43990
H          4.61320       -1.85460       12.41620
H          3.50540        0.17550       13.29740
H          2.49080        1.16700       12.24020
H          1.82110       -1.66190       13.18930
H          1.09570       -0.17210       13.80320
H          0.80970       -0.67660       12.13380
H          2.31420        0.67930        9.87560
H          0.72140       -8.04450       -3.23550
H         -0.20780      -10.24260       -3.84530
H         -2.36110      -10.39130       -5.02890
H         -4.02710       -9.22850       -6.42670
H         -4.17960       -7.46650       -6.35870
H         -5.12250       -7.64260       -4.05370
H         -4.97230       -9.39800       -4.12360
H         -6.09030       -8.56490       -5.20920
H         -2.68240       -6.13790       -4.97430
H          1.34040       -0.07460        1.48670
H          1.33440        0.52860        3.13890
H         -0.77430       -0.68600        3.61310
H         -0.97840        0.37980        2.21960
H         -0.77800       -1.36460        1.98470
H          2.25010       -1.97560       -1.35000
H          2.32970       -1.22190        0.24210
H          1.07890        0.23010       -1.33050
H          0.03930       -1.10920       -1.79510
H         -0.10250       -0.41000       -0.18210
H         -0.30460       -6.43130       -6.37450
H         -0.54380       -6.10710       -8.76650
H          0.84930        0.06530       -9.78160
H          0.82550        2.25700      -10.93690
H         -0.41790        4.15480       -9.94740
H         -3.26100        3.35540       -6.62360
H         -1.72960        3.73340       -5.78480
H         -3.63180        5.78660       -7.02770
H         -3.46060        5.45570       -5.29580
H         -2.11650        6.16300       -6.20610
H         -1.68940        1.63820       -6.74010
H          1.44500        1.29590       -6.17570
H          1.59560        3.13720       -4.53880
H          0.04200        3.21480       -2.61600
H         -2.50760       -0.37730       -1.93920
H         -3.09350        0.82650       -0.77260
H         -4.32740        2.01050       -2.57130
H         -3.77000        0.83480       -3.76310
H         -4.84770        0.32320       -2.45890
H         -1.75120       -0.43380       -3.95510
H         -0.19550       -4.42490      -10.75650
H         -1.33490        0.59520      -13.56110
