
  xtb     02202207363D
 energy: -436.564057759654 gnorm: 0.000668801239 xtb: 6.4.1 (unknown)
276307  0     0  0            999 V2000
   -1.2919   10.4447   10.9177 C   0  0  0  0  0  0  0  0  0  0  0  0
   -0.6262    9.6764   11.8394 C   0  0  0  0  0  0  0  0  0  0  0  0
   -0.4055    8.2312   11.7390 C   0  0  0  0  0  0  0  0  0  0  0  0
   -0.8304    7.4743   10.8818 O   0  0  0  0  0  0  0  0  0  0  0  0
    0.4390    7.8596   12.8864 C   0  0  0  0  0  0  0  0  0  0  0  0
    0.9336    6.5937   13.1882 C   0  0  0  0  0  0  0  0  0  0  0  0
    1.7159    6.5548   14.3174 C   0  0  0  0  0  0  0  0  0  0  0  0
    1.9825    7.6914   15.0915 C   0  0  0  0  0  0  0  0  0  0  0  0
    1.4940    8.9453   14.8077 C   0  0  0  0  0  0  0  0  0  0  0  0
    0.6985    9.0086   13.6608 C   0  0  0  0  0  0  0  0  0  0  0  0
    0.0216   10.1500   13.0441 C   0  0  0  0  0  0  0  0  0  0  0  0
    0.0038   11.4271   13.5476 C   0  0  0  0  0  0  0  0  0  0  0  0
    0.6531   11.8292   14.7329 C   0  0  0  0  0  0  0  0  0  0  0  0
    1.1537   12.2346   15.6838 N   0  0  0  0  0  0  0  0  0  0  0  0
   -0.6699   12.5264   12.9777 C   0  0  0  0  0  0  0  0  0  0  0  0
   -1.1926   13.4725   12.5862 N   0  0  0  0  0  0  0  0  0  0  0  0
    2.8488    6.9264   16.0605 C   0  0  0  0  0  0  0  0  0  0  0  0
    4.3844    7.0791   15.9290 C   0  0  0  0  0  0  0  0  0  0  0  0
    4.6590    7.4303   14.4878 C   0  0  0  0  0  0  0  0  0  0  0  0
    4.4068    6.3548   13.7538 C   0  0  0  0  0  0  0  0  0  0  0  0
    3.9574    5.2567   14.6857 C   0  0  0  0  0  0  0  0  0  0  0  0
    4.7942    5.5976   15.9291 C   0  0  0  0  0  0  0  0  0  0  0  0
    2.5520    5.6598   15.1973 C   0  0  0  0  0  0  0  0  0  0  0  0
   -1.9037   10.0751    9.7123 C   0  0  0  0  0  0  0  0  0  0  0  0
   -2.4791   11.0172    8.8600 C   0  0  0  0  0  0  0  0  0  0  0  0
   -3.0177   10.4864    7.6983 C   0  0  0  0  0  0  0  0  0  0  0  0
   -3.8402   11.4116    6.4496 S   0  0  0  0  0  0  0  0  0  0  0  0
   -4.3733   12.9192    7.3367 C   0  0  0  0  0  0  0  0  0  0  0  0
   -5.4004   12.6227    8.4111 C   0  0  0  0  0  0  0  0  0  0  0  0
   -2.8559    9.0962    7.6317 C   0  0  0  0  0  0  0  0  0  0  0  0
   -2.0424    8.4742    9.0340 S   0  0  0  0  0  0  0  0  0  0  0  0
   -3.2269    8.2112    6.5937 C   0  0  0  0  0  0  0  0  0  0  0  0
   -3.5255    8.4927    5.2682 C   0  0  0  0  0  0  0  0  0  0  0  0
   -3.7850    7.3451    4.5338 C   0  0  0  0  0  0  0  0  0  0  0  0
   -4.0878    7.0206    3.0889 C   0  0  0  0  0  0  0  0  0  0  0  0
   -3.0017    7.6001    2.2031 C   0  0  0  0  0  0  0  0  0  0  0  0
   -3.0513    8.9486    1.8719 C   0  0  0  0  0  0  0  0  0  0  0  0
   -2.0728    9.5101    1.0756 C   0  0  0  0  0  0  0  0  0  0  0  0
   -1.0228    8.7420    0.5877 C   0  0  0  0  0  0  0  0  0  0  0  0
    0.0567    9.3619   -0.2521 C   0  0  0  0  0  0  0  0  0  0  0  0
    1.1836    9.8956    0.6345 C   0  0  0  0  0  0  0  0  0  0  0  0
   -0.9707    7.3997    0.9351 C   0  0  0  0  0  0  0  0  0  0  0  0
   -1.9444    6.8333    1.7380 C   0  0  0  0  0  0  0  0  0  0  0  0
   -5.4586    7.4831    2.6247 C   0  0  0  0  0  0  0  0  0  0  0  0
   -5.7771    7.3841    1.2758 C   0  0  0  0  0  0  0  0  0  0  0  0
   -7.0238    7.7665    0.8215 C   0  0  0  0  0  0  0  0  0  0  0  0
   -7.9821    8.2589    1.6990 C   0  0  0  0  0  0  0  0  0  0  0  0
   -9.3504    8.6369    1.2090 C   0  0  0  0  0  0  0  0  0  0  0  0
  -10.2852    7.4265    1.2502 C   0  0  0  0  0  0  0  0  0  0  0  0
   -7.6595    8.3480    3.0457 C   0  0  0  0  0  0  0  0  0  0  0  0
   -6.4138    7.9624    3.5081 C   0  0  0  0  0  0  0  0  0  0  0  0
   -4.1042    5.5122    3.1499 C   0  0  0  0  0  0  0  0  0  0  0  0
   -3.9124    5.0609    4.4522 C   0  0  0  0  0  0  0  0  0  0  0  0
   -3.6931    6.1771    5.2931 C   0  0  0  0  0  0  0  0  0  0  0  0
   -3.2766    6.4850    6.9260 S   0  0  0  0  0  0  0  0  0  0  0  0
   -3.9389    3.3381    4.6078 S   0  0  0  0  0  0  0  0  0  0  0  0
   -4.1753    3.2036    2.8909 C   0  0  0  0  0  0  0  0  0  0  0  0
   -4.2444    4.4474    2.2627 C   0  0  0  0  0  0  0  0  0  0  0  0
   -4.3417    4.3125    0.5349 S   0  0  0  0  0  0  0  0  0  0  0  0
   -4.1937    2.5674    0.6523 C   0  0  0  0  0  0  0  0  0  0  0  0
   -4.0679    1.7183   -0.4387 C   0  0  0  0  0  0  0  0  0  0  0  0
   -4.1168    2.2018   -1.8060 C   0  0  0  0  0  0  0  0  0  0  0  0
   -4.8534    1.7027   -2.8412 C   0  0  0  0  0  0  0  0  0  0  0  0
   -4.6851    2.4235   -4.0404 C   0  0  0  0  0  0  0  0  0  0  0  0
   -3.8157    3.4637   -3.9280 C   0  0  0  0  0  0  0  0  0  0  0  0
   -3.4144    4.4573   -4.9629 C   0  0  0  0  0  0  0  0  0  0  0  0
   -4.0271    5.8302   -4.6789 C   0  0  0  0  0  0  0  0  0  0  0  0
   -3.1918    3.5838   -2.3157 S   0  0  0  0  0  0  0  0  0  0  0  0
   -3.8802    0.3532   -0.1593 C   0  0  0  0  0  0  0  0  0  0  0  0
   -3.9360   -0.1133    1.1784 C   0  0  0  0  0  0  0  0  0  0  0  0
   -4.0940    0.7319    2.2671 C   0  0  0  0  0  0  0  0  0  0  0  0
   -4.1500    0.2306    3.6283 C   0  0  0  0  0  0  0  0  0  0  0  0
   -5.0756    0.5113    4.5907 C   0  0  0  0  0  0  0  0  0  0  0  0
   -4.8385   -0.1693    5.8024 C   0  0  0  0  0  0  0  0  0  0  0  0
   -3.7308   -0.9579    5.7715 C   0  0  0  0  0  0  0  0  0  0  0  0
   -3.1754   -1.8306    6.8438 C   0  0  0  0  0  0  0  0  0  0  0  0
   -3.2076   -3.3039    6.4353 C   0  0  0  0  0  0  0  0  0  0  0  0
   -2.9563   -0.8859    4.2227 S   0  0  0  0  0  0  0  0  0  0  0  0
   -4.1739    2.1077    1.9931 C   0  0  0  0  0  0  0  0  0  0  0  0
   -3.7287   -1.8513    1.3069 S   0  0  0  0  0  0  0  0  0  0  0  0
   -3.4263   -1.9453   -0.3978 C   0  0  0  0  0  0  0  0  0  0  0  0
   -2.9841   -2.9564   -1.2470 C   0  0  0  0  0  0  0  0  0  0  0  0
   -2.7337   -2.4678   -2.5265 C   0  0  0  0  0  0  0  0  0  0  0  0
   -3.1050   -0.7881   -2.7148 S   0  0  0  0  0  0  0  0  0  0  0  0
   -3.5557   -0.7118   -1.0359 C   0  0  0  0  0  0  0  0  0  0  0  0
   -2.1254   -3.4936   -3.2936 C   0  0  0  0  0  0  0  0  0  0  0  0
   -1.3315   -3.6807   -4.8078 S   0  0  0  0  0  0  0  0  0  0  0  0
   -0.7974   -5.2938   -4.3379 C   0  0  0  0  0  0  0  0  0  0  0  0
   -1.3002   -5.6581   -3.1035 C   0  0  0  0  0  0  0  0  0  0  0  0
   -2.0233   -4.6363   -2.5065 C   0  0  0  0  0  0  0  0  0  0  0  0
   -2.5943   -4.4084   -1.1290 C   0  0  0  0  0  0  0  0  0  0  0  0
   -3.7605   -5.3559   -0.9172 C   0  0  0  0  0  0  0  0  0  0  0  0
   -5.0796   -4.9312   -0.9519 C   0  0  0  0  0  0  0  0  0  0  0  0
   -6.1106   -5.8407   -0.7938 C   0  0  0  0  0  0  0  0  0  0  0  0
   -5.8514   -7.1915   -0.6108 C   0  0  0  0  0  0  0  0  0  0  0  0
   -6.9711   -8.1702   -0.4021 C   0  0  0  0  0  0  0  0  0  0  0  0
   -7.2994   -8.2981    1.0868 C   0  0  0  0  0  0  0  0  0  0  0  0
   -4.5270   -7.6104   -0.5779 C   0  0  0  0  0  0  0  0  0  0  0  0
   -3.4944   -6.7068   -0.7275 C   0  0  0  0  0  0  0  0  0  0  0  0
   -1.5548   -4.5856   -0.0337 C   0  0  0  0  0  0  0  0  0  0  0  0
   -0.1953   -4.6020   -0.3144 C   0  0  0  0  0  0  0  0  0  0  0  0
    0.7272   -4.7905    0.6963 C   0  0  0  0  0  0  0  0  0  0  0  0
    0.3200   -4.9525    2.0138 C   0  0  0  0  0  0  0  0  0  0  0  0
    1.3366   -5.2296    3.0835 C   0  0  0  0  0  0  0  0  0  0  0  0
    1.8060   -6.6838    3.0043 C   0  0  0  0  0  0  0  0  0  0  0  0
   -1.0386   -4.9006    2.2949 C   0  0  0  0  0  0  0  0  0  0  0  0
   -1.9665   -4.7189    1.2859 C   0  0  0  0  0  0  0  0  0  0  0  0
    0.2298   -5.9413   -5.0740 C   0  0  0  0  0  0  0  0  0  0  0  0
    1.1576   -6.8599   -4.5888 C   0  0  0  0  0  0  0  0  0  0  0  0
    1.1588   -7.4404   -3.3133 N   0  0  0  0  0  0  0  0  0  0  0  0
    0.2013   -8.3961   -2.9756 C   0  0  0  0  0  0  0  0  0  0  0  0
   -0.4359   -9.1337   -3.9731 C   0  0  0  0  0  0  0  0  0  0  0  0
   -1.4252  -10.0390   -3.6480 C   0  0  0  0  0  0  0  0  0  0  0  0
   -1.8085  -10.2466   -2.3281 C   0  0  0  0  0  0  0  0  0  0  0  0
   -2.8971  -11.2213   -1.9965 C   0  0  0  0  0  0  0  0  0  0  0  0
   -1.1688   -9.5123   -1.3379 C   0  0  0  0  0  0  0  0  0  0  0  0
   -0.1850   -8.5942   -1.6478 C   0  0  0  0  0  0  0  0  0  0  0  0
    2.1837   -7.0574   -2.4377 C   0  0  0  0  0  0  0  0  0  0  0  0
    2.7572   -7.9658   -1.5499 C   0  0  0  0  0  0  0  0  0  0  0  0
    3.7336   -7.5520   -0.6678 C   0  0  0  0  0  0  0  0  0  0  0  0
    4.1835   -6.2356   -0.6536 C   0  0  0  0  0  0  0  0  0  0  0  0
    5.2415   -5.8050    0.3165 C   0  0  0  0  0  0  0  0  0  0  0  0
    3.6371   -5.3466   -1.5692 C   0  0  0  0  0  0  0  0  0  0  0  0
    2.6499   -5.7453   -2.4499 C   0  0  0  0  0  0  0  0  0  0  0  0
    2.2011   -7.0587   -5.5135 C   0  0  0  0  0  0  0  0  0  0  0  0
    3.6146   -8.0415   -5.4975 S   0  0  0  0  0  0  0  0  0  0  0  0
    4.0985   -7.4059   -7.0790 C   0  0  0  0  0  0  0  0  0  0  0  0
    3.1209   -6.5444   -7.6244 C   0  0  0  0  0  0  0  0  0  0  0  0
    3.0887   -6.0458   -8.8944 N   0  0  0  0  0  0  0  0  0  0  0  0
    2.3534   -4.8676   -9.1509 C   0  0  0  0  0  0  0  0  0  0  0  0
    2.4909   -3.7565   -8.3242 C   0  0  0  0  0  0  0  0  0  0  0  0
    1.7494   -2.6197   -8.5731 C   0  0  0  0  0  0  0  0  0  0  0  0
    0.8651   -2.5594   -9.6451 C   0  0  0  0  0  0  0  0  0  0  0  0
    0.0458   -1.3280   -9.8793 C   0  0  0  0  0  0  0  0  0  0  0  0
    0.7564   -3.6659  -10.4777 C   0  0  0  0  0  0  0  0  0  0  0  0
    1.4898   -4.8124  -10.2387 C   0  0  0  0  0  0  0  0  0  0  0  0
    3.7430   -6.6596   -9.9714 C   0  0  0  0  0  0  0  0  0  0  0  0
    4.3883   -5.8769  -10.9263 C   0  0  0  0  0  0  0  0  0  0  0  0
    5.0737   -6.4738  -11.9678 C   0  0  0  0  0  0  0  0  0  0  0  0
    5.1281   -7.8554  -12.0929 C   0  0  0  0  0  0  0  0  0  0  0  0
    5.9143   -8.5069  -13.1866 C   0  0  0  0  0  0  0  0  0  0  0  0
    4.4400   -8.6288  -11.1606 C   0  0  0  0  0  0  0  0  0  0  0  0
    3.7571   -8.0464  -10.1141 C   0  0  0  0  0  0  0  0  0  0  0  0
    2.0775   -6.3371   -6.6945 C   0  0  0  0  0  0  0  0  0  0  0  0
    0.6171   -5.4011   -6.6949 S   0  0  0  0  0  0  0  0  0  0  0  0
    5.3288   -7.8369   -7.5798 C   0  0  0  0  0  0  0  0  0  0  0  0
    6.1047   -7.1635   -8.4996 C   0  0  0  0  0  0  0  0  0  0  0  0
    6.0783   -5.7039   -8.6783 C   0  0  0  0  0  0  0  0  0  0  0  0
    5.3639   -4.9009   -8.1057 O   0  0  0  0  0  0  0  0  0  0  0  0
    7.1961   -5.3920   -9.5942 C   0  0  0  0  0  0  0  0  0  0  0  0
    7.5856   -4.1355  -10.0450 C   0  0  0  0  0  0  0  0  0  0  0  0
    8.6671   -4.1556  -10.8942 C   0  0  0  0  0  0  0  0  0  0  0  0
    9.3197   -5.3384  -11.2601 C   0  0  0  0  0  0  0  0  0  0  0  0
    8.9459   -6.5863  -10.8184 C   0  0  0  0  0  0  0  0  0  0  0  0
    7.8453   -6.5866   -9.9603 C   0  0  0  0  0  0  0  0  0  0  0  0
    7.1585   -7.7015   -9.3104 C   0  0  0  0  0  0  0  0  0  0  0  0
    7.3701   -9.0367   -9.5598 C   0  0  0  0  0  0  0  0  0  0  0  0
    8.3344   -9.5363  -10.4524 C   0  0  0  0  0  0  0  0  0  0  0  0
    9.0898  -10.0047  -11.1818 N   0  0  0  0  0  0  0  0  0  0  0  0
    6.5839  -10.0704   -9.0151 C   0  0  0  0  0  0  0  0  0  0  0  0
    5.9667  -10.9615   -8.6335 N   0  0  0  0  0  0  0  0  0  0  0  0
   10.3295   -4.6122  -12.1141 C   0  0  0  0  0  0  0  0  0  0  0  0
   11.7516   -4.4081  -11.5359 C   0  0  0  0  0  0  0  0  0  0  0  0
   11.6081   -4.4032  -10.0344 C   0  0  0  0  0  0  0  0  0  0  0  0
   10.9879   -3.2825   -9.6905 C   0  0  0  0  0  0  0  0  0  0  0  0
   10.7009   -2.5093  -10.9537 C   0  0  0  0  0  0  0  0  0  0  0  0
   11.9247   -2.9030  -11.7960 C   0  0  0  0  0  0  0  0  0  0  0  0
    9.5992   -3.2930  -11.7091 C   0  0  0  0  0  0  0  0  0  0  0  0
   -1.3450   11.5089   11.1126 H   0  0  0  0  0  0  0  0  0  0  0  0
    0.7031    5.7455   12.5626 H   0  0  0  0  0  0  0  0  0  0  0  0
    1.7102    9.8082   15.4149 H   0  0  0  0  0  0  0  0  0  0  0  0
    2.5193    6.9258   17.0976 H   0  0  0  0  0  0  0  0  0  0  0  0
    4.8391    7.7250   16.6753 H   0  0  0  0  0  0  0  0  0  0  0  0
    4.9437    8.4111   14.1544 H   0  0  0  0  0  0  0  0  0  0  0  0
    4.4380    6.2576   12.6844 H   0  0  0  0  0  0  0  0  0  0  0  0
    4.0239    4.2427   14.2999 H   0  0  0  0  0  0  0  0  0  0  0  0
    5.8621    5.4559   15.7700 H   0  0  0  0  0  0  0  0  0  0  0  0
    4.4809    5.0609   16.8235 H   0  0  0  0  0  0  0  0  0  0  0  0
    2.0296    4.8309   15.6712 H   0  0  0  0  0  0  0  0  0  0  0  0
   -2.4762   12.0628    9.1109 H   0  0  0  0  0  0  0  0  0  0  0  0
   -3.4908   13.4204    7.7318 H   0  0  0  0  0  0  0  0  0  0  0  0
   -4.8008   13.5377    6.5475 H   0  0  0  0  0  0  0  0  0  0  0  0
   -6.2705   12.1360    7.9763 H   0  0  0  0  0  0  0  0  0  0  0  0
   -5.7174   13.5504    8.8829 H   0  0  0  0  0  0  0  0  0  0  0  0
   -4.9871   11.9696    9.1770 H   0  0  0  0  0  0  0  0  0  0  0  0
   -3.5150    9.4878    4.8658 H   0  0  0  0  0  0  0  0  0  0  0  0
   -3.8685    9.5566    2.2322 H   0  0  0  0  0  0  0  0  0  0  0  0
   -2.1284   10.5595    0.8232 H   0  0  0  0  0  0  0  0  0  0  0  0
   -0.3577   10.1834   -0.8402 H   0  0  0  0  0  0  0  0  0  0  0  0
    0.4623    8.6184   -0.9412 H   0  0  0  0  0  0  0  0  0  0  0  0
    0.8004   10.6468    1.3215 H   0  0  0  0  0  0  0  0  0  0  0  0
    1.6182    9.0883    1.2198 H   0  0  0  0  0  0  0  0  0  0  0  0
    1.9659   10.3457    0.0276 H   0  0  0  0  0  0  0  0  0  0  0  0
   -0.1605    6.7846    0.5703 H   0  0  0  0  0  0  0  0  0  0  0  0
   -1.8763    5.7871    1.9960 H   0  0  0  0  0  0  0  0  0  0  0  0
   -5.0401    7.0113    0.5791 H   0  0  0  0  0  0  0  0  0  0  0  0
   -7.2547    7.6852   -0.2310 H   0  0  0  0  0  0  0  0  0  0  0  0
   -9.7622    9.4310    1.8351 H   0  0  0  0  0  0  0  0  0  0  0  0
   -9.2870    9.0076    0.1839 H   0  0  0  0  0  0  0  0  0  0  0  0
  -10.3736    7.0518    2.2675 H   0  0  0  0  0  0  0  0  0  0  0  0
  -11.2758    7.6971    0.8919 H   0  0  0  0  0  0  0  0  0  0  0  0
   -9.8951    6.6267    0.6247 H   0  0  0  0  0  0  0  0  0  0  0  0
   -8.3908    8.7272    3.7454 H   0  0  0  0  0  0  0  0  0  0  0  0
   -6.1860    8.0438    4.5605 H   0  0  0  0  0  0  0  0  0  0  0  0
   -5.5214    0.8663   -2.7366 H   0  0  0  0  0  0  0  0  0  0  0  0
   -5.1917    2.1739   -4.9558 H   0  0  0  0  0  0  0  0  0  0  0  0
   -3.7451    4.0996   -5.9403 H   0  0  0  0  0  0  0  0  0  0  0  0
   -2.3255    4.5491   -4.9819 H   0  0  0  0  0  0  0  0  0  0  0  0
   -3.7279    6.5429   -5.4434 H   0  0  0  0  0  0  0  0  0  0  0  0
   -3.6950    6.1969   -3.7102 H   0  0  0  0  0  0  0  0  0  0  0  0
   -5.1128    5.7647   -4.6693 H   0  0  0  0  0  0  0  0  0  0  0  0
   -5.9185    1.1582    4.4240 H   0  0  0  0  0  0  0  0  0  0  0  0
   -5.4704   -0.0722    6.6673 H   0  0  0  0  0  0  0  0  0  0  0  0
   -3.7607   -1.6829    7.7538 H   0  0  0  0  0  0  0  0  0  0  0  0
   -2.1421   -1.5406    7.0532 H   0  0  0  0  0  0  0  0  0  0  0  0
   -2.6202   -3.4538    5.5321 H   0  0  0  0  0  0  0  0  0  0  0  0
   -4.2295   -3.6196    6.2373 H   0  0  0  0  0  0  0  0  0  0  0  0
   -2.7978   -3.9257    7.2274 H   0  0  0  0  0  0  0  0  0  0  0  0
   -1.1347   -6.6146   -2.6531 H   0  0  0  0  0  0  0  0  0  0  0  0
   -5.3098   -3.8867   -1.1011 H   0  0  0  0  0  0  0  0  0  0  0  0
   -7.1336   -5.4925   -0.8188 H   0  0  0  0  0  0  0  0  0  0  0  0
   -6.6838   -9.1490   -0.7918 H   0  0  0  0  0  0  0  0  0  0  0  0
   -7.8611   -7.8363   -0.9395 H   0  0  0  0  0  0  0  0  0  0  0  0
   -6.4250   -8.6358    1.6385 H   0  0  0  0  0  0  0  0  0  0  0  0
   -7.6066   -7.3358    1.4898 H   0  0  0  0  0  0  0  0  0  0  0  0
   -8.1049   -9.0126    1.2398 H   0  0  0  0  0  0  0  0  0  0  0  0
   -4.3004   -8.6576   -0.4387 H   0  0  0  0  0  0  0  0  0  0  0  0
   -2.4719   -7.0511   -0.6927 H   0  0  0  0  0  0  0  0  0  0  0  0
    0.1566   -4.4788   -1.3271 H   0  0  0  0  0  0  0  0  0  0  0  0
    1.7794   -4.8183    0.4514 H   0  0  0  0  0  0  0  0  0  0  0  0
    0.9056   -5.0387    4.0680 H   0  0  0  0  0  0  0  0  0  0  0  0
    2.1967   -4.5690    2.9523 H   0  0  0  0  0  0  0  0  0  0  0  0
    2.2424   -6.8877    2.0286 H   0  0  0  0  0  0  0  0  0  0  0  0
    2.5511   -6.8870    3.7702 H   0  0  0  0  0  0  0  0  0  0  0  0
    0.9659   -7.3594    3.1503 H   0  0  0  0  0  0  0  0  0  0  0  0
   -1.3790   -5.0103    3.3148 H   0  0  0  0  0  0  0  0  0  0  0  0
   -3.0203   -4.6925    1.5229 H   0  0  0  0  0  0  0  0  0  0  0  0
   -0.1501   -8.9911   -5.0047 H   0  0  0  0  0  0  0  0  0  0  0  0
   -1.9075  -10.6002   -4.4353 H   0  0  0  0  0  0  0  0  0  0  0  0
   -2.7218  -12.1756   -2.4904 H   0  0  0  0  0  0  0  0  0  0  0  0
   -2.9560  -11.3895   -0.9238 H   0  0  0  0  0  0  0  0  0  0  0  0
   -3.8594  -10.8410   -2.3410 H   0  0  0  0  0  0  0  0  0  0  0  0
   -1.4512   -9.6479   -0.3033 H   0  0  0  0  0  0  0  0  0  0  0  0
    0.2726   -8.0084   -0.8632 H   0  0  0  0  0  0  0  0  0  0  0  0
    2.4363   -8.9965   -1.5587 H   0  0  0  0  0  0  0  0  0  0  0  0
    4.1630   -8.2667    0.0200 H   0  0  0  0  0  0  0  0  0  0  0  0
    5.3314   -4.7216    0.3393 H   0  0  0  0  0  0  0  0  0  0  0  0
    5.0112   -6.1601    1.3198 H   0  0  0  0  0  0  0  0  0  0  0  0
    6.2069   -6.2225    0.0298 H   0  0  0  0  0  0  0  0  0  0  0  0
    3.9787   -4.3213   -1.5889 H   0  0  0  0  0  0  0  0  0  0  0  0
    2.2286   -5.0336   -3.1452 H   0  0  0  0  0  0  0  0  0  0  0  0
    3.2002   -3.7916   -7.5123 H   0  0  0  0  0  0  0  0  0  0  0  0
    1.8592   -1.7612   -7.9268 H   0  0  0  0  0  0  0  0  0  0  0  0
   -0.4314   -1.3552  -10.8555 H   0  0  0  0  0  0  0  0  0  0  0  0
    0.6653   -0.4355   -9.8141 H   0  0  0  0  0  0  0  0  0  0  0  0
   -0.7309   -1.2498   -9.1184 H   0  0  0  0  0  0  0  0  0  0  0  0
    0.0825   -3.6360  -11.3217 H   0  0  0  0  0  0  0  0  0  0  0  0
    1.3931   -5.6703  -10.8882 H   0  0  0  0  0  0  0  0  0  0  0  0
    4.3600   -4.8012  -10.8373 H   0  0  0  0  0  0  0  0  0  0  0  0
    5.5881   -5.8515  -12.6858 H   0  0  0  0  0  0  0  0  0  0  0  0
    6.1541   -7.7947  -13.9719 H   0  0  0  0  0  0  0  0  0  0  0  0
    5.3603   -9.3386  -13.6172 H   0  0  0  0  0  0  0  0  0  0  0  0
    6.8499   -8.9042  -12.7907 H   0  0  0  0  0  0  0  0  0  0  0  0
    4.4475   -9.7050  -11.2525 H   0  0  0  0  0  0  0  0  0  0  0  0
    3.2358   -8.6668   -9.4005 H   0  0  0  0  0  0  0  0  0  0  0  0
    5.7086   -8.7613   -7.1607 H   0  0  0  0  0  0  0  0  0  0  0  0
    7.0576   -3.2462   -9.7370 H   0  0  0  0  0  0  0  0  0  0  0  0
    9.4629   -7.4890  -11.0997 H   0  0  0  0  0  0  0  0  0  0  0  0
   10.3467   -4.8824  -13.1684 H   0  0  0  0  0  0  0  0  0  0  0  0
   12.5050   -5.0768  -11.9438 H   0  0  0  0  0  0  0  0  0  0  0  0
   11.9101   -5.2169   -9.4013 H   0  0  0  0  0  0  0  0  0  0  0  0
   10.6678   -2.9732   -8.7127 H   0  0  0  0  0  0  0  0  0  0  0  0
   10.4979   -1.4483  -10.8315 H   0  0  0  0  0  0  0  0  0  0  0  0
   11.8339   -2.6311  -12.8469 H   0  0  0  0  0  0  0  0  0  0  0  0
   12.8575   -2.5101  -11.3938 H   0  0  0  0  0  0  0  0  0  0  0  0
    9.1389   -2.7029  -12.4997 H   0  0  0  0  0  0  0  0  0  0  0  0
  1  2  2  0  0  0  0
  2  3  1  0  0  0  0
  3  4  2  0  0  0  0
  3  5  1  0  0  0  0
  5  6  2  0  0  0  0
  6  7  1  0  0  0  0
  7  8  2  0  0  0  0
  8  9  1  0  0  0  0
  9 10  2  0  0  0  0
 10 11  1  0  0  0  0
 11 12  2  0  0  0  0
 12 13  1  0  0  0  0
 13 14  3  0  0  0  0
 12 15  1  0  0  0  0
 15 16  3  0  0  0  0
  8 17  1  0  0  0  0
 17 18  1  0  0  0  0
 18 19  1  0  0  0  0
 19 20  2  0  0  0  0
 20 21  1  0  0  0  0
 21 22  1  0  0  0  0
 21 23  1  0  0  0  0
  1 24  1  0  0  0  0
 24 25  2  0  0  0  0
 25 26  1  0  0  0  0
 26 27  1  0  0  0  0
 27 28  1  0  0  0  0
 28 29  1  0  0  0  0
 26 30  2  0  0  0  0
 30 31  1  0  0  0  0
 30 32  1  0  0  0  0
 32 33  2  0  0  0  0
 33 34  1  0  0  0  0
 34 35  1  0  0  0  0
 35 36  1  0  0  0  0
 36 37  2  0  0  0  0
 37 38  1  0  0  0  0
 38 39  2  0  0  0  0
 39 40  1  0  0  0  0
 40 41  1  0  0  0  0
 39 42  1  0  0  0  0
 42 43  2  0  0  0  0
 35 44  1  0  0  0  0
 44 45  2  0  0  0  0
 45 46  1  0  0  0  0
 46 47  2  0  0  0  0
 47 48  1  0  0  0  0
 48 49  1  0  0  0  0
 47 50  1  0  0  0  0
 50 51  2  0  0  0  0
 35 52  1  0  0  0  0
 52 53  2  0  0  0  0
 53 54  1  0  0  0  0
 54 55  1  0  0  0  0
 53 56  1  0  0  0  0
 56 57  1  0  0  0  0
 57 58  2  0  0  0  0
 58 59  1  0  0  0  0
 59 60  1  0  0  0  0
 60 61  2  0  0  0  0
 61 62  1  0  0  0  0
 62 63  2  0  0  0  0
 63 64  1  0  0  0  0
 64 65  2  0  0  0  0
 65 66  1  0  0  0  0
 66 67  1  0  0  0  0
 65 68  1  0  0  0  0
 61 69  1  0  0  0  0
 69 70  2  0  0  0  0
 70 71  1  0  0  0  0
 71 72  1  0  0  0  0
 72 73  2  0  0  0  0
 73 74  1  0  0  0  0
 74 75  2  0  0  0  0
 75 76  1  0  0  0  0
 76 77  1  0  0  0  0
 75 78  1  0  0  0  0
 71 79  2  0  0  0  0
 70 80  1  0  0  0  0
 80 81  1  0  0  0  0
 81 82  1  0  0  0  0
 82 83  2  0  0  0  0
 83 84  1  0  0  0  0
 84 85  1  0  0  0  0
 83 86  1  0  0  0  0
 86 87  1  0  0  0  0
 87 88  1  0  0  0  0
 88 89  2  0  0  0  0
 89 90  1  0  0  0  0
 90 91  1  0  0  0  0
 91 92  1  0  0  0  0
 92 93  2  0  0  0  0
 93 94  1  0  0  0  0
 94 95  2  0  0  0  0
 95 96  1  0  0  0  0
 96 97  1  0  0  0  0
 95 98  1  0  0  0  0
 98 99  2  0  0  0  0
 91100  1  0  0  0  0
100101  2  0  0  0  0
101102  1  0  0  0  0
102103  2  0  0  0  0
103104  1  0  0  0  0
104105  1  0  0  0  0
103106  1  0  0  0  0
106107  2  0  0  0  0
 88108  1  0  0  0  0
108109  2  0  0  0  0
109110  1  0  0  0  0
110111  1  0  0  0  0
111112  2  0  0  0  0
112113  1  0  0  0  0
113114  2  0  0  0  0
114115  1  0  0  0  0
114116  1  0  0  0  0
116117  2  0  0  0  0
110118  1  0  0  0  0
118119  2  0  0  0  0
119120  1  0  0  0  0
120121  2  0  0  0  0
121122  1  0  0  0  0
121123  1  0  0  0  0
123124  2  0  0  0  0
109125  1  0  0  0  0
125126  1  0  0  0  0
126127  1  0  0  0  0
127128  2  0  0  0  0
128129  1  0  0  0  0
129130  1  0  0  0  0
130131  2  0  0  0  0
131132  1  0  0  0  0
132133  2  0  0  0  0
133134  1  0  0  0  0
133135  1  0  0  0  0
135136  2  0  0  0  0
129137  1  0  0  0  0
137138  2  0  0  0  0
138139  1  0  0  0  0
139140  2  0  0  0  0
140141  1  0  0  0  0
140142  1  0  0  0  0
142143  2  0  0  0  0
128144  1  0  0  0  0
144145  1  0  0  0  0
127146  1  0  0  0  0
146147  2  0  0  0  0
147148  1  0  0  0  0
148149  2  0  0  0  0
148150  1  0  0  0  0
150151  2  0  0  0  0
151152  1  0  0  0  0
152153  2  0  0  0  0
153154  1  0  0  0  0
154155  2  0  0  0  0
155156  1  0  0  0  0
156157  2  0  0  0  0
157158  1  0  0  0  0
158159  3  0  0  0  0
157160  1  0  0  0  0
160161  3  0  0  0  0
153162  1  0  0  0  0
162163  1  0  0  0  0
163164  1  0  0  0  0
164165  2  0  0  0  0
165166  1  0  0  0  0
166167  1  0  0  0  0
166168  1  0  0  0  0
 11  2  1  0  0  0  0
 23 17  1  0  0  0  0
 31 24  1  0  0  0  0
 55 32  1  0  0  0  0
 79 57  1  0  0  0  0
 85 81  2  0  0  0  0
 90 86  2  0  0  0  0
 99 92  1  0  0  0  0
107100  1  0  0  0  0
145108  1  0  0  0  0
156147  1  0  0  0  0
168162  1  0  0  0  0
 10  5  1  0  0  0  0
 22 18  1  0  0  0  0
 54 34  2  0  0  0  0
 79 60  1  0  0  0  0
 91 82  1  0  0  0  0
117111  1  0  0  0  0
124118  1  0  0  0  0
144125  2  0  0  0  0
155150  1  0  0  0  0
167163  1  0  0  0  0
 23  7  1  0  0  0  0
 43 36  1  0  0  0  0
 51 44  1  0  0  0  0
 58 52  1  0  0  0  0
 68 62  1  0  0  0  0
 85 69  1  0  0  0  0
136130  1  0  0  0  0
143137  1  0  0  0  0
168152  1  0  0  0  0
 78 72  1  0  0  0  0
  1169  1  0  0  0  0
  6170  1  0  0  0  0
  9171  1  0  0  0  0
 17172  1  0  0  0  0
 18173  1  0  0  0  0
 19174  1  0  0  0  0
 20175  1  0  0  0  0
 21176  1  0  0  0  0
 22177  1  0  0  0  0
 22178  1  0  0  0  0
 23179  1  0  0  0  0
 25180  1  0  0  0  0
 28181  1  0  0  0  0
 28182  1  0  0  0  0
 29183  1  0  0  0  0
 29184  1  0  0  0  0
 29185  1  0  0  0  0
 33186  1  0  0  0  0
 37187  1  0  0  0  0
 38188  1  0  0  0  0
 40189  1  0  0  0  0
 40190  1  0  0  0  0
 41191  1  0  0  0  0
 41192  1  0  0  0  0
 41193  1  0  0  0  0
 42194  1  0  0  0  0
 43195  1  0  0  0  0
 45196  1  0  0  0  0
 46197  1  0  0  0  0
 48198  1  0  0  0  0
 48199  1  0  0  0  0
 49200  1  0  0  0  0
 49201  1  0  0  0  0
 49202  1  0  0  0  0
 50203  1  0  0  0  0
 51204  1  0  0  0  0
 63205  1  0  0  0  0
 64206  1  0  0  0  0
 66207  1  0  0  0  0
 66208  1  0  0  0  0
 67209  1  0  0  0  0
 67210  1  0  0  0  0
 67211  1  0  0  0  0
 73212  1  0  0  0  0
 74213  1  0  0  0  0
 76214  1  0  0  0  0
 76215  1  0  0  0  0
 77216  1  0  0  0  0
 77217  1  0  0  0  0
 77218  1  0  0  0  0
 89219  1  0  0  0  0
 93220  1  0  0  0  0
 94221  1  0  0  0  0
 96222  1  0  0  0  0
 96223  1  0  0  0  0
 97224  1  0  0  0  0
 97225  1  0  0  0  0
 97226  1  0  0  0  0
 98227  1  0  0  0  0
 99228  1  0  0  0  0
101229  1  0  0  0  0
102230  1  0  0  0  0
104231  1  0  0  0  0
104232  1  0  0  0  0
105233  1  0  0  0  0
105234  1  0  0  0  0
105235  1  0  0  0  0
106236  1  0  0  0  0
107237  1  0  0  0  0
112238  1  0  0  0  0
113239  1  0  0  0  0
115240  1  0  0  0  0
115241  1  0  0  0  0
115242  1  0  0  0  0
116243  1  0  0  0  0
117244  1  0  0  0  0
119245  1  0  0  0  0
120246  1  0  0  0  0
122247  1  0  0  0  0
122248  1  0  0  0  0
122249  1  0  0  0  0
123250  1  0  0  0  0
124251  1  0  0  0  0
131252  1  0  0  0  0
132253  1  0  0  0  0
134254  1  0  0  0  0
134255  1  0  0  0  0
134256  1  0  0  0  0
135257  1  0  0  0  0
136258  1  0  0  0  0
138259  1  0  0  0  0
139260  1  0  0  0  0
141261  1  0  0  0  0
141262  1  0  0  0  0
141263  1  0  0  0  0
142264  1  0  0  0  0
143265  1  0  0  0  0
146266  1  0  0  0  0
151267  1  0  0  0  0
154268  1  0  0  0  0
162269  1  0  0  0  0
163270  1  0  0  0  0
164271  1  0  0  0  0
165272  1  0  0  0  0
166273  1  0  0  0  0
167274  1  0  0  0  0
167275  1  0  0  0  0
168276  1  0  0  0  0
M  END
