155

C         -0.70800        9.75330        1.32730
C         -1.83920       10.52180        1.23450
C         -3.16200       10.05130        0.80650
O         -3.46580        8.93650        0.41570
C         -4.07420       11.19760        0.94020
C         -5.44410       11.20970        0.68610
C         -6.04570       12.42120        0.92770
C         -5.33610       13.53680        1.39210
C         -3.98470       13.53790        1.64490
C         -3.35060       12.31590        1.40010
C         -1.94910       11.93000        1.56450
C         -0.93850       12.77270        1.95060
C          0.41480       12.41510        2.12460
N          1.53300       12.21510        2.29620
C         -1.10450       14.14670        2.22460
N         -1.15750       15.26960        2.45820
C         -6.56750       14.40730        1.42410
C         -6.72690       15.42100        0.27140
C         -8.19760       15.76930        0.29830
C         -8.87040       14.71390       -0.14230
C         -7.86560       13.63430       -0.47490
C         -6.69590       14.50200       -0.95670
C         -7.35880       13.16400        0.90510
C         -0.52410        8.38710        1.06400
C          0.69310        7.74120        1.26810
C          0.66100        6.38540        0.99110
S          2.07060        5.33270        1.19490
C          1.71560        4.69530        2.87840
C          1.81730        5.77630        3.93390
C         -0.58500        5.94820        0.53700
S         -1.72710        7.25480        0.48820
C         -0.95090        4.64700        0.12130
C         -2.18630        4.24890       -0.37170
C         -3.37800        5.10600       -0.47540
C         -4.17140        5.33570        0.64330
C         -5.29950        6.12470        0.53060
C         -5.64100        6.68040       -0.68860
C         -4.86360        6.45180       -1.81550
C         -5.26270        7.00500       -3.15260
C         -6.13550        5.99760       -3.90400
C         -3.73490        5.65450       -1.69900
C         -2.18090        2.90250       -0.75210
S         -3.41180        1.87090       -1.44150
C         -2.28400        0.55740       -1.41200
C         -2.22820       -0.80390       -1.75770
C         -3.11050       -1.66700       -2.44810
C         -2.68140       -3.00530       -2.76510
N         -3.57950       -3.66480       -3.47870
S         -4.85460       -2.69940       -3.72560
N         -4.31180       -1.39720       -2.93260
C         -1.45580       -3.47890       -2.24150
C         -0.85130       -4.74700       -2.20560
S         -1.09940       -6.33560       -2.84470
C          0.30800       -6.88510       -1.96540
C          0.90870       -8.14710       -1.82280
C          0.34720       -9.37310       -2.38650
C         -0.11420       -9.39670       -3.69910
C         -0.65840      -10.55730       -4.21460
C         -0.75530      -11.69280       -3.43020
C         -0.31160      -11.68340       -2.11290
C         -0.46510      -12.89700       -1.24210
C         -1.81710      -12.87140       -0.52630
C          0.23180      -10.51680       -1.60040
C          2.00550       -8.08090       -0.97200
S          2.25690       -6.47780       -0.30480
C          0.92290       -5.87360       -1.21680
C          0.26470       -4.64990       -1.36280
N          0.39630       -3.36400       -0.89990
C         -0.63480       -2.62950       -1.45330
C         -0.94060       -1.25600       -1.36700
N         -0.20440       -0.19350       -0.87580
C         -1.02780        0.90490       -0.89500
C         -0.96310        2.25170       -0.52830
S          0.21780        3.32650        0.13300
C          1.23480       -0.03830       -0.96050
C          1.63290        0.78060       -2.18780
C          1.06060       -3.09960        0.36060
C          0.40800       -3.87460        1.50500
C          2.93390       -9.10580       -0.60540
C          3.34760      -10.13730       -1.44470
F          2.92390      -10.18150       -2.71840
C          4.25310      -11.12200       -1.04130
F          4.59420      -12.05620       -1.94080
C          4.87630      -11.13770        0.20380
C          4.46730      -10.11280        1.09600
C          3.52870       -9.10670        0.68620
N          3.25630       -8.25030        1.66730
S          4.08700       -8.67840        2.97440
N          4.81790       -9.97330        2.37050
C          5.81520      -12.15770        0.55530
C          6.90350      -11.97250        1.35100
C          7.52070      -10.65240        1.64070
O          7.17570       -9.56020        1.24990
C          8.75590      -10.95900        2.39560
C          9.68650      -10.07690        2.90450
C         10.79530      -10.59150        3.56640
Cl        11.96880       -9.52350        4.22400
C         10.94970      -11.97530        3.69010
Br        12.46430      -12.67470        4.57950
C         10.01540      -12.86370        3.17270
C          8.90470      -12.35100        2.52160
C          7.76050      -13.00870        1.89750
C          7.50410      -14.35310        1.91360
C          6.33820      -14.96060        1.39850
N          5.41050      -15.52660        1.02920
C          8.36570      -15.31470        2.48410
N          9.02940      -16.13980        2.92590
H          0.19470       10.24360        1.67140
H         -5.94810       10.32090        0.33990
H         -3.45890       14.40430        2.00910
H         -6.82870       14.82290        2.39530
H         -6.02600       16.25070        0.29510
H         -8.58760       16.69650        0.67520
H         -9.93470       14.58350       -0.20710
H         -8.20350       12.83780       -1.13240
H         -5.76120       13.95810       -1.08040
H         -6.93090       15.03610       -1.87580
H         -8.14830       12.75090        1.53040
H          1.57570        8.25160        1.61160
H          2.46320        3.91850        3.03160
H          0.72470        4.24190        2.85780
H          1.64650        5.34630        4.91890
H          2.80490        6.23090        3.91760
H          1.07420        6.55290        3.76270
H         -3.89610        4.90120        1.59330
H         -5.91350        6.30840        1.39990
H         -6.52220        7.30070       -0.76830
H         -4.37120        7.22200       -3.74430
H         -5.81730        7.93550       -3.01790
H         -7.03750        5.78080       -3.33610
H         -5.59490        5.06540       -4.05210
H         -6.42270        6.39180       -4.87610
H         -3.11530        5.46720       -2.56490
H         -0.02030       -8.51680       -4.31660
H         -1.00520      -10.57730       -5.23690
H         -1.17720      -12.59810       -3.84190
H          0.33550      -12.92650       -0.50000
H         -0.39730      -13.79950       -1.85220
H         -1.93050      -13.75080        0.10310
H         -1.89890      -11.98400        0.09780
H         -2.62830      -12.85480       -1.25070
H          0.56340      -10.49000       -0.57070
H          1.69380       -1.02230       -1.04080
H          1.58820        0.46160       -0.05300
H          2.71600        0.83260       -2.25250
H          1.24940        0.31290       -3.09220
H          1.24470        1.79300       -2.12490
H          2.11200       -3.38910        0.26830
H          0.99160       -2.03690        0.58350
H          0.89030       -3.61000        2.44170
H          0.50680       -4.94620        1.35910
H         -0.64880       -3.62480        1.57220
H          5.63270      -13.13190        0.11850
H          9.55240       -9.01270        2.79280
H         10.17630      -13.92390        3.28470
