
  xtb     02122218183D
 energy: -334.986980636124 gnorm: 0.000554685456 xtb: 6.4.1 (unknown)
205230  0     0  0            999 V2000
    1.0476   13.5189   -0.6608 C   0  0  0  0  0  0  0  0  0  0  0  0
    0.7559   13.2609   -1.9761 C   0  0  0  0  0  0  0  0  0  0  0  0
    0.0353   12.0856   -2.4727 C   0  0  0  0  0  0  0  0  0  0  0  0
   -0.3770   11.1385   -1.8230 O   0  0  0  0  0  0  0  0  0  0  0  0
   -0.1009   12.2655   -3.9275 C   0  0  0  0  0  0  0  0  0  0  0  0
   -0.7372   11.4087   -4.8228 C   0  0  0  0  0  0  0  0  0  0  0  0
   -0.7088   11.8423   -6.1266 C   0  0  0  0  0  0  0  0  0  0  0  0
   -0.0967   13.0425   -6.5101 C   0  0  0  0  0  0  0  0  0  0  0  0
    0.5321   13.8978   -5.6362 C   0  0  0  0  0  0  0  0  0  0  0  0
    0.5202   13.4734   -4.3042 C   0  0  0  0  0  0  0  0  0  0  0  0
    1.0810   14.1032   -3.1085 C   0  0  0  0  0  0  0  0  0  0  0  0
    1.8050   15.2691   -3.0939 C   0  0  0  0  0  0  0  0  0  0  0  0
    2.1045   16.0392   -4.2368 C   0  0  0  0  0  0  0  0  0  0  0  0
    2.3908   16.7170   -5.1186 N   0  0  0  0  0  0  0  0  0  0  0  0
    2.3750   15.8702   -1.9530 C   0  0  0  0  0  0  0  0  0  0  0  0
    2.8777   16.4238   -1.0801 N   0  0  0  0  0  0  0  0  0  0  0  0
   -0.4429   12.8476   -7.9653 C   0  0  0  0  0  0  0  0  0  0  0  0
    0.6991   12.3704   -8.8873 C   0  0  0  0  0  0  0  0  0  0  0  0
   -0.0201   11.8160  -10.0958 C   0  0  0  0  0  0  0  0  0  0  0  0
   -0.6003   10.6790   -9.7336 C   0  0  0  0  0  0  0  0  0  0  0  0
   -0.2827   10.4456   -8.2741 C   0  0  0  0  0  0  0  0  0  0  0  0
    1.1209   11.0611   -8.2079 C   0  0  0  0  0  0  0  0  0  0  0  0
   -1.1254   11.5087   -7.5377 C   0  0  0  0  0  0  0  0  0  0  0  0
    0.7815   12.7591    0.4871 C   0  0  0  0  0  0  0  0  0  0  0  0
    1.1644   13.1816    1.7586 C   0  0  0  0  0  0  0  0  0  0  0  0
    0.8524   12.2938    2.7794 C   0  0  0  0  0  0  0  0  0  0  0  0
    1.3165   12.4778    4.4644 S   0  0  0  0  0  0  0  0  0  0  0  0
    2.7849   13.5674    4.3537 C   0  0  0  0  0  0  0  0  0  0  0  0
    3.9424   12.9190    3.6209 C   0  0  0  0  0  0  0  0  0  0  0  0
    0.1817   11.1642    2.2997 C   0  0  0  0  0  0  0  0  0  0  0  0
   -0.0177   11.2113    0.5757 S   0  0  0  0  0  0  0  0  0  0  0  0
   -0.2762   10.0204    3.0067 C   0  0  0  0  0  0  0  0  0  0  0  0
   -0.7880    9.8944    4.2885 C   0  0  0  0  0  0  0  0  0  0  0  0
   -1.1622   11.0029    5.1628 C   0  0  0  0  0  0  0  0  0  0  0  0
   -1.8206   12.1181    4.6483 C   0  0  0  0  0  0  0  0  0  0  0  0
   -2.1997   13.1434    5.4922 C   0  0  0  0  0  0  0  0  0  0  0  0
   -1.9238   13.0713    6.8464 C   0  0  0  0  0  0  0  0  0  0  0  0
   -1.2764   11.9628    7.3773 C   0  0  0  0  0  0  0  0  0  0  0  0
   -0.9198   11.9030    8.8343 C   0  0  0  0  0  0  0  0  0  0  0  0
    0.4840   12.4714    9.0520 C   0  0  0  0  0  0  0  0  0  0  0  0
   -0.9085   10.9315    6.5284 C   0  0  0  0  0  0  0  0  0  0  0  0
   -1.0413    8.5445    4.6026 C   0  0  0  0  0  0  0  0  0  0  0  0
   -1.6940    7.7681    6.0260 S   0  0  0  0  0  0  0  0  0  0  0  0
   -1.5913    6.2431    5.2141 C   0  0  0  0  0  0  0  0  0  0  0  0
   -1.9230    4.8965    5.4328 C   0  0  0  0  0  0  0  0  0  0  0  0
   -2.6076    4.2650    6.4936 C   0  0  0  0  0  0  0  0  0  0  0  0
   -2.9535    2.8773    6.3676 C   0  0  0  0  0  0  0  0  0  0  0  0
   -3.6491    2.4333    7.4025 N   0  0  0  0  0  0  0  0  0  0  0  0
   -3.8469    3.6535    8.4486 S   0  0  0  0  0  0  0  0  0  0  0  0
   -3.0539    4.7967    7.6208 N   0  0  0  0  0  0  0  0  0  0  0  0
   -2.4866    2.1559    5.2472 C   0  0  0  0  0  0  0  0  0  0  0  0
   -2.5458    0.7865    4.9373 C   0  0  0  0  0  0  0  0  0  0  0  0
   -3.2123   -0.6778    5.5782 S   0  0  0  0  0  0  0  0  0  0  0  0
   -2.4374   -1.5637    4.2870 C   0  0  0  0  0  0  0  0  0  0  0  0
   -2.4117   -2.9324    3.9564 C   0  0  0  0  0  0  0  0  0  0  0  0
   -3.1285   -3.9589    4.7213 C   0  0  0  0  0  0  0  0  0  0  0  0
   -2.8888   -4.1025    6.0834 C   0  0  0  0  0  0  0  0  0  0  0  0
   -3.5497   -5.0852    6.7956 C   0  0  0  0  0  0  0  0  0  0  0  0
   -4.4469   -5.9250    6.1594 C   0  0  0  0  0  0  0  0  0  0  0  0
   -4.7179   -5.7772    4.8055 C   0  0  0  0  0  0  0  0  0  0  0  0
   -5.6539   -6.7127    4.0968 C   0  0  0  0  0  0  0  0  0  0  0  0
   -4.8612   -7.8168    3.3940 C   0  0  0  0  0  0  0  0  0  0  0  0
   -4.0599   -4.7821    4.0983 C   0  0  0  0  0  0  0  0  0  0  0  0
   -1.6393   -3.1661    2.8345 C   0  0  0  0  0  0  0  0  0  0  0  0
   -0.9694   -1.6809    2.1633 S   0  0  0  0  0  0  0  0  0  0  0  0
   -1.7137   -0.7500    3.4139 C   0  0  0  0  0  0  0  0  0  0  0  0
   -1.7825    0.5986    3.7835 C   0  0  0  0  0  0  0  0  0  0  0  0
   -1.2852    1.7977    3.3396 N   0  0  0  0  0  0  0  0  0  0  0  0
   -1.7138    2.7761    4.2272 C   0  0  0  0  0  0  0  0  0  0  0  0
   -1.5440    4.1842    4.2597 C   0  0  0  0  0  0  0  0  0  0  0  0
   -1.0464    5.0897    3.3411 N   0  0  0  0  0  0  0  0  0  0  0  0
   -1.0705    6.3308    3.9204 C   0  0  0  0  0  0  0  0  0  0  0  0
   -0.7647    7.6502    3.5651 C   0  0  0  0  0  0  0  0  0  0  0  0
   -0.1694    8.4762    2.1702 S   0  0  0  0  0  0  0  0  0  0  0  0
   -0.8881    4.9699    1.9098 C   0  0  0  0  0  0  0  0  0  0  0  0
    0.5744    5.0676    1.4788 C   0  0  0  0  0  0  0  0  0  0  0  0
   -0.0918    1.7801    2.5205 C   0  0  0  0  0  0  0  0  0  0  0  0
    1.1646    1.8631    3.3848 C   0  0  0  0  0  0  0  0  0  0  0  0
   -1.2584   -4.3950    2.2243 C   0  0  0  0  0  0  0  0  0  0  0  0
   -0.5448   -4.5333    1.0655 C   0  0  0  0  0  0  0  0  0  0  0  0
   -0.2680   -5.8757    0.7162 C   0  0  0  0  0  0  0  0  0  0  0  0
    0.4247   -6.3554   -0.4069 C   0  0  0  0  0  0  0  0  0  0  0  0
    0.9258   -5.4418   -1.4428 C   0  0  0  0  0  0  0  0  0  0  0  0
    2.2515   -5.4953   -1.8622 C   0  0  0  0  0  0  0  0  0  0  0  0
    2.7120   -4.6320   -2.8370 C   0  0  0  0  0  0  0  0  0  0  0  0
    1.8655   -3.7009   -3.4252 C   0  0  0  0  0  0  0  0  0  0  0  0
    2.3812   -2.7320   -4.4499 C   0  0  0  0  0  0  0  0  0  0  0  0
    2.8787   -1.4539   -3.7714 C   0  0  0  0  0  0  0  0  0  0  0  0
    0.5405   -3.6546   -3.0099 C   0  0  0  0  0  0  0  0  0  0  0  0
    0.0740   -4.5112   -2.0324 C   0  0  0  0  0  0  0  0  0  0  0  0
    0.5944   -7.7298   -0.4971 C   0  0  0  0  0  0  0  0  0  0  0  0
    0.0537   -8.6343    0.4578 C   0  0  0  0  0  0  0  0  0  0  0  0
   -0.6665   -8.1546    1.5736 C   0  0  0  0  0  0  0  0  0  0  0  0
   -1.2855   -9.0579    2.5506 C   0  0  0  0  0  0  0  0  0  0  0  0
   -2.1173  -10.0934    2.1316 C   0  0  0  0  0  0  0  0  0  0  0  0
   -2.7258  -10.9204    3.0553 C   0  0  0  0  0  0  0  0  0  0  0  0
   -2.5185  -10.7440    4.4177 C   0  0  0  0  0  0  0  0  0  0  0  0
   -3.2143  -11.6133    5.4245 C   0  0  0  0  0  0  0  0  0  0  0  0
   -4.5034  -10.9458    5.9090 C   0  0  0  0  0  0  0  0  0  0  0  0
   -1.6877   -9.7099    4.8327 C   0  0  0  0  0  0  0  0  0  0  0  0
   -1.0802   -8.8757    3.9158 C   0  0  0  0  0  0  0  0  0  0  0  0
   -0.7766   -6.7826    1.6837 C   0  0  0  0  0  0  0  0  0  0  0  0
   -1.6062   -5.9419    2.9712 S   0  0  0  0  0  0  0  0  0  0  0  0
    0.3611   -9.9637    0.1340 C   0  0  0  0  0  0  0  0  0  0  0  0
    1.0969  -10.1072   -1.0288 C   0  0  0  0  0  0  0  0  0  0  0  0
    1.4436   -8.5583   -1.7729 S   0  0  0  0  0  0  0  0  0  0  0  0
    1.4836  -11.3785   -1.5011 C   0  0  0  0  0  0  0  0  0  0  0  0
    2.2421  -11.7374   -2.5788 C   0  0  0  0  0  0  0  0  0  0  0  0
    2.9246  -10.8239   -3.5133 C   0  0  0  0  0  0  0  0  0  0  0  0
    2.8449   -9.6119   -3.5625 O   0  0  0  0  0  0  0  0  0  0  0  0
    3.7483  -11.6760   -4.3888 C   0  0  0  0  0  0  0  0  0  0  0  0
    4.6112  -11.2506   -5.3959 C   0  0  0  0  0  0  0  0  0  0  0  0
    5.2662  -12.2725   -6.0392 C   0  0  0  0  0  0  0  0  0  0  0  0
    5.0815  -13.6201   -5.7015 C   0  0  0  0  0  0  0  0  0  0  0  0
    4.2335  -14.0527   -4.7102 C   0  0  0  0  0  0  0  0  0  0  0  0
    3.5500  -13.0288   -4.0473 C   0  0  0  0  0  0  0  0  0  0  0  0
    2.5795  -13.0981   -2.9574 C   0  0  0  0  0  0  0  0  0  0  0  0
    2.0585  -14.2532   -2.4332 C   0  0  0  0  0  0  0  0  0  0  0  0
    1.0811  -14.3345   -1.4192 C   0  0  0  0  0  0  0  0  0  0  0  0
    0.2829  -14.4998   -0.6092 N   0  0  0  0  0  0  0  0  0  0  0  0
    2.4067  -15.5522   -2.8594 C   0  0  0  0  0  0  0  0  0  0  0  0
    2.6346  -16.6394   -3.1509 N   0  0  0  0  0  0  0  0  0  0  0  0
    6.0528  -14.0988   -6.7513 C   0  0  0  0  0  0  0  0  0  0  0  0
    5.4688  -14.7047   -8.0513 C   0  0  0  0  0  0  0  0  0  0  0  0
    4.1039  -14.0891   -8.2353 C   0  0  0  0  0  0  0  0  0  0  0  0
    4.2751  -12.8137   -8.5562 C   0  0  0  0  0  0  0  0  0  0  0  0
    5.7590  -12.5438   -8.5953 C   0  0  0  0  0  0  0  0  0  0  0  0
    6.2689  -13.9058   -9.0925 C   0  0  0  0  0  0  0  0  0  0  0  0
    6.2561  -12.5977   -7.1294 C   0  0  0  0  0  0  0  0  0  0  0  0
    1.5606   14.4481   -0.4445 H   0  0  0  0  0  0  0  0  0  0  0  0
   -1.2011   10.4966   -4.4813 H   0  0  0  0  0  0  0  0  0  0  0  0
    0.9912   14.8202   -5.9495 H   0  0  0  0  0  0  0  0  0  0  0  0
   -1.0569   13.6251   -8.4157 H   0  0  0  0  0  0  0  0  0  0  0  0
    1.4724   13.1104   -9.0739 H   0  0  0  0  0  0  0  0  0  0  0  0
   -0.0775   12.3195  -11.0429 H   0  0  0  0  0  0  0  0  0  0  0  0
   -1.2394   10.0431  -10.3177 H   0  0  0  0  0  0  0  0  0  0  0  0
   -0.4035    9.4312   -7.9033 H   0  0  0  0  0  0  0  0  0  0  0  0
    1.5025   11.1887   -7.1965 H   0  0  0  0  0  0  0  0  0  0  0  0
    1.8433   10.5036   -8.8019 H   0  0  0  0  0  0  0  0  0  0  0  0
   -2.1951   11.3935   -7.7029 H   0  0  0  0  0  0  0  0  0  0  0  0
    1.6673   14.1210    1.9027 H   0  0  0  0  0  0  0  0  0  0  0  0
    2.4847   14.5112    3.9013 H   0  0  0  0  0  0  0  0  0  0  0  0
    3.0368   13.7482    5.3987 H   0  0  0  0  0  0  0  0  0  0  0  0
    3.6792   12.7062    2.5868 H   0  0  0  0  0  0  0  0  0  0  0  0
    4.2192   11.9856    4.1053 H   0  0  0  0  0  0  0  0  0  0  0  0
    4.8023   13.5856    3.6280 H   0  0  0  0  0  0  0  0  0  0  0  0
   -2.0448   12.1685    3.5929 H   0  0  0  0  0  0  0  0  0  0  0  0
   -2.7131   14.0052    5.0914 H   0  0  0  0  0  0  0  0  0  0  0  0
   -2.2170   13.8813    7.4989 H   0  0  0  0  0  0  0  0  0  0  0  0
   -1.6386   12.4800    9.4191 H   0  0  0  0  0  0  0  0  0  0  0  0
   -0.9479   10.8678    9.1796 H   0  0  0  0  0  0  0  0  0  0  0  0
    0.7584   12.4204   10.1032 H   0  0  0  0  0  0  0  0  0  0  0  0
    0.5244   13.5100    8.7311 H   0  0  0  0  0  0  0  0  0  0  0  0
    1.2115   11.9076    8.4724 H   0  0  0  0  0  0  0  0  0  0  0  0
   -0.3942   10.0699    6.9279 H   0  0  0  0  0  0  0  0  0  0  0  0
   -2.1770   -3.4550    6.5734 H   0  0  0  0  0  0  0  0  0  0  0  0
   -3.3591   -5.2004    7.8525 H   0  0  0  0  0  0  0  0  0  0  0  0
   -4.9498   -6.6994    6.7210 H   0  0  0  0  0  0  0  0  0  0  0  0
   -6.2400   -6.1628    3.3573 H   0  0  0  0  0  0  0  0  0  0  0  0
   -6.3433   -7.1625    4.8139 H   0  0  0  0  0  0  0  0  0  0  0  0
   -4.1956   -7.3920    2.6466 H   0  0  0  0  0  0  0  0  0  0  0  0
   -4.2522   -8.3627    4.1101 H   0  0  0  0  0  0  0  0  0  0  0  0
   -5.5330   -8.5162    2.9018 H   0  0  0  0  0  0  0  0  0  0  0  0
   -4.2725   -4.6426    3.0476 H   0  0  0  0  0  0  0  0  0  0  0  0
   -1.4404    5.7954    1.4460 H   0  0  0  0  0  0  0  0  0  0  0  0
   -1.3555    4.0405    1.5818 H   0  0  0  0  0  0  0  0  0  0  0  0
    0.9558    6.0626    1.6913 H   0  0  0  0  0  0  0  0  0  0  0  0
    0.6547    4.8935    0.4092 H   0  0  0  0  0  0  0  0  0  0  0  0
    1.1953    4.3471    2.0035 H   0  0  0  0  0  0  0  0  0  0  0  0
   -0.1017    2.5830    1.7892 H   0  0  0  0  0  0  0  0  0  0  0  0
   -0.1015    0.8331    1.9750 H   0  0  0  0  0  0  0  0  0  0  0  0
    1.1737    2.7876    3.9587 H   0  0  0  0  0  0  0  0  0  0  0  0
    2.0513    1.8256    2.7577 H   0  0  0  0  0  0  0  0  0  0  0  0
    1.1968    1.0281    4.0810 H   0  0  0  0  0  0  0  0  0  0  0  0
   -0.2160   -3.6910    0.4821 H   0  0  0  0  0  0  0  0  0  0  0  0
    2.9269   -6.2059   -1.4102 H   0  0  0  0  0  0  0  0  0  0  0  0
    3.7451   -4.6843   -3.1493 H   0  0  0  0  0  0  0  0  0  0  0  0
    3.2019   -3.1859   -5.0086 H   0  0  0  0  0  0  0  0  0  0  0  0
    1.5864   -2.4790   -5.1546 H   0  0  0  0  0  0  0  0  0  0  0  0
    3.2532   -0.7498   -4.5110 H   0  0  0  0  0  0  0  0  0  0  0  0
    3.6805   -1.6845   -3.0734 H   0  0  0  0  0  0  0  0  0  0  0  0
    2.0704   -0.9803   -3.2183 H   0  0  0  0  0  0  0  0  0  0  0  0
   -0.1355   -2.9428   -3.4629 H   0  0  0  0  0  0  0  0  0  0  0  0
   -0.9653   -4.4793   -1.7378 H   0  0  0  0  0  0  0  0  0  0  0  0
   -2.3064  -10.2314    1.0770 H   0  0  0  0  0  0  0  0  0  0  0  0
   -3.3719  -11.7162    2.7133 H   0  0  0  0  0  0  0  0  0  0  0  0
   -3.4547  -12.5795    4.9773 H   0  0  0  0  0  0  0  0  0  0  0  0
   -2.5572  -11.7861    6.2795 H   0  0  0  0  0  0  0  0  0  0  0  0
   -5.1808  -10.7809    5.0740 H   0  0  0  0  0  0  0  0  0  0  0  0
   -5.0032  -11.5731    6.6436 H   0  0  0  0  0  0  0  0  0  0  0  0
   -4.2825   -9.9838    6.3668 H   0  0  0  0  0  0  0  0  0  0  0  0
   -1.5117   -9.5586    5.8882 H   0  0  0  0  0  0  0  0  0  0  0  0
   -0.4230   -8.0900    4.2576 H   0  0  0  0  0  0  0  0  0  0  0  0
    0.0703  -10.8058    0.7376 H   0  0  0  0  0  0  0  0  0  0  0  0
    1.1154  -12.1826   -0.8747 H   0  0  0  0  0  0  0  0  0  0  0  0
    4.7278  -10.2013   -5.6180 H   0  0  0  0  0  0  0  0  0  0  0  0
    4.1085  -15.0927   -4.4594 H   0  0  0  0  0  0  0  0  0  0  0  0
    6.9144  -14.6537   -6.3854 H   0  0  0  0  0  0  0  0  0  0  0  0
    5.5177  -15.7889   -8.1053 H   0  0  0  0  0  0  0  0  0  0  0  0
    3.1826  -14.6136   -8.0616 H   0  0  0  0  0  0  0  0  0  0  0  0
    3.5250  -12.0589   -8.7039 H   0  0  0  0  0  0  0  0  0  0  0  0
    6.0720  -11.6604   -9.1458 H   0  0  0  0  0  0  0  0  0  0  0  0
    5.9634  -14.1222  -10.1151 H   0  0  0  0  0  0  0  0  0  0  0  0
    7.3472  -14.0266   -8.9973 H   0  0  0  0  0  0  0  0  0  0  0  0
    7.2514  -12.1729   -7.0131 H   0  0  0  0  0  0  0  0  0  0  0  0
  1  2  2  0  0  0  0
  2  3  1  0  0  0  0
  3  4  2  0  0  0  0
  3  5  1  0  0  0  0
  5  6  2  0  0  0  0
  6  7  1  0  0  0  0
  7  8  2  0  0  0  0
  8  9  1  0  0  0  0
  9 10  2  0  0  0  0
 10 11  1  0  0  0  0
 11 12  2  0  0  0  0
 12 13  1  0  0  0  0
 13 14  3  0  0  0  0
 12 15  1  0  0  0  0
 15 16  3  0  0  0  0
  8 17  1  0  0  0  0
 17 18  1  0  0  0  0
 18 19  1  0  0  0  0
 19 20  2  0  0  0  0
 20 21  1  0  0  0  0
 21 22  1  0  0  0  0
 21 23  1  0  0  0  0
  1 24  1  0  0  0  0
 24 25  2  0  0  0  0
 25 26  1  0  0  0  0
 26 27  1  0  0  0  0
 27 28  1  0  0  0  0
 28 29  1  0  0  0  0
 26 30  2  0  0  0  0
 30 31  1  0  0  0  0
 30 32  1  0  0  0  0
 32 33  2  0  0  0  0
 33 34  1  0  0  0  0
 34 35  2  0  0  0  0
 35 36  1  0  0  0  0
 36 37  2  0  0  0  0
 37 38  1  0  0  0  0
 38 39  1  0  0  0  0
 39 40  1  0  0  0  0
 38 41  2  0  0  0  0
 33 42  1  0  0  0  0
 42 43  1  0  0  0  0
 43 44  1  0  0  0  0
 44 45  1  0  0  0  0
 45 46  1  0  0  0  0
 46 47  1  0  0  0  0
 47 48  2  0  0  0  0
 48 49  1  0  0  0  0
 49 50  1  0  0  0  0
 47 51  1  0  0  0  0
 51 52  1  0  0  0  0
 52 53  1  0  0  0  0
 53 54  1  0  0  0  0
 54 55  1  0  0  0  0
 55 56  1  0  0  0  0
 56 57  2  0  0  0  0
 57 58  1  0  0  0  0
 58 59  2  0  0  0  0
 59 60  1  0  0  0  0
 60 61  1  0  0  0  0
 61 62  1  0  0  0  0
 60 63  2  0  0  0  0
 55 64  2  0  0  0  0
 64 65  1  0  0  0  0
 65 66  1  0  0  0  0
 66 67  1  0  0  0  0
 67 68  1  0  0  0  0
 68 69  1  0  0  0  0
 69 70  1  0  0  0  0
 70 71  1  0  0  0  0
 71 72  1  0  0  0  0
 72 73  1  0  0  0  0
 73 74  1  0  0  0  0
 71 75  1  0  0  0  0
 75 76  1  0  0  0  0
 68 77  1  0  0  0  0
 77 78  1  0  0  0  0
 64 79  1  0  0  0  0
 79 80  2  0  0  0  0
 80 81  1  0  0  0  0
 81 82  2  0  0  0  0
 82 83  1  0  0  0  0
 83 84  2  0  0  0  0
 84 85  1  0  0  0  0
 85 86  2  0  0  0  0
 86 87  1  0  0  0  0
 87 88  1  0  0  0  0
 86 89  1  0  0  0  0
 89 90  2  0  0  0  0
 82 91  1  0  0  0  0
 91 92  2  0  0  0  0
 92 93  1  0  0  0  0
 93 94  1  0  0  0  0
 94 95  2  0  0  0  0
 95 96  1  0  0  0  0
 96 97  2  0  0  0  0
 97 98  1  0  0  0  0
 98 99  1  0  0  0  0
 97100  1  0  0  0  0
100101  2  0  0  0  0
 93102  2  0  0  0  0
102103  1  0  0  0  0
 92104  1  0  0  0  0
104105  2  0  0  0  0
105106  1  0  0  0  0
105107  1  0  0  0  0
107108  2  0  0  0  0
108109  1  0  0  0  0
109110  2  0  0  0  0
109111  1  0  0  0  0
111112  2  0  0  0  0
112113  1  0  0  0  0
113114  2  0  0  0  0
114115  1  0  0  0  0
115116  2  0  0  0  0
116117  1  0  0  0  0
117118  2  0  0  0  0
118119  1  0  0  0  0
119120  3  0  0  0  0
118121  1  0  0  0  0
121122  3  0  0  0  0
114123  1  0  0  0  0
123124  1  0  0  0  0
124125  1  0  0  0  0
125126  2  0  0  0  0
126127  1  0  0  0  0
127128  1  0  0  0  0
127129  1  0  0  0  0
 11  2  1  0  0  0  0
 23 17  1  0  0  0  0
 31 24  1  0  0  0  0
 74 32  1  0  0  0  0
103 79  1  0  0  0  0
117108  1  0  0  0  0
129123  1  0  0  0  0
 10  5  1  0  0  0  0
 22 18  1  0  0  0  0
 41 34  1  0  0  0  0
 73 42  2  0  0  0  0
102 81  1  0  0  0  0
116111  1  0  0  0  0
128124  1  0  0  0  0
 23  7  1  0  0  0  0
 72 44  2  0  0  0  0
 90 83  1  0  0  0  0
106 91  1  0  0  0  0
129113  1  0  0  0  0
 70 45  2  0  0  0  0
101 94  1  0  0  0  0
 50 46  2  0  0  0  0
 69 51  2  0  0  0  0
 67 52  2  0  0  0  0
 66 54  2  0  0  0  0
 63 56  1  0  0  0  0
  1130  1  0  0  0  0
  6131  1  0  0  0  0
  9132  1  0  0  0  0
 17133  1  0  0  0  0
 18134  1  0  0  0  0
 19135  1  0  0  0  0
 20136  1  0  0  0  0
 21137  1  0  0  0  0
 22138  1  0  0  0  0
 22139  1  0  0  0  0
 23140  1  0  0  0  0
 25141  1  0  0  0  0
 28142  1  0  0  0  0
 28143  1  0  0  0  0
 29144  1  0  0  0  0
 29145  1  0  0  0  0
 29146  1  0  0  0  0
 35147  1  0  0  0  0
 36148  1  0  0  0  0
 37149  1  0  0  0  0
 39150  1  0  0  0  0
 39151  1  0  0  0  0
 40152  1  0  0  0  0
 40153  1  0  0  0  0
 40154  1  0  0  0  0
 41155  1  0  0  0  0
 57156  1  0  0  0  0
 58157  1  0  0  0  0
 59158  1  0  0  0  0
 61159  1  0  0  0  0
 61160  1  0  0  0  0
 62161  1  0  0  0  0
 62162  1  0  0  0  0
 62163  1  0  0  0  0
 63164  1  0  0  0  0
 75165  1  0  0  0  0
 75166  1  0  0  0  0
 76167  1  0  0  0  0
 76168  1  0  0  0  0
 76169  1  0  0  0  0
 77170  1  0  0  0  0
 77171  1  0  0  0  0
 78172  1  0  0  0  0
 78173  1  0  0  0  0
 78174  1  0  0  0  0
 80175  1  0  0  0  0
 84176  1  0  0  0  0
 85177  1  0  0  0  0
 87178  1  0  0  0  0
 87179  1  0  0  0  0
 88180  1  0  0  0  0
 88181  1  0  0  0  0
 88182  1  0  0  0  0
 89183  1  0  0  0  0
 90184  1  0  0  0  0
 95185  1  0  0  0  0
 96186  1  0  0  0  0
 98187  1  0  0  0  0
 98188  1  0  0  0  0
 99189  1  0  0  0  0
 99190  1  0  0  0  0
 99191  1  0  0  0  0
100192  1  0  0  0  0
101193  1  0  0  0  0
104194  1  0  0  0  0
107195  1  0  0  0  0
112196  1  0  0  0  0
115197  1  0  0  0  0
123198  1  0  0  0  0
124199  1  0  0  0  0
125200  1  0  0  0  0
126201  1  0  0  0  0
127202  1  0  0  0  0
128203  1  0  0  0  0
128204  1  0  0  0  0
129205  1  0  0  0  0
M  END
