
  xtb     02182223343D
 energy: -443.948954280381 gnorm: 0.000335965547 xtb: 6.4.1 (unknown)
284313  0     0  0            999 V2000
  -12.0982   -7.3260   -4.1426 C   0  0  0  0  0  0  0  0  0  0  0  0
  -13.0278   -6.5958   -3.4497 C   0  0  0  0  0  0  0  0  0  0  0  0
  -12.8060   -5.9311   -2.1598 C   0  0  0  0  0  0  0  0  0  0  0  0
  -11.7967   -5.9574   -1.4761 O   0  0  0  0  0  0  0  0  0  0  0  0
  -14.0533   -5.2172   -1.8410 C   0  0  0  0  0  0  0  0  0  0  0  0
  -14.3006   -4.4168   -0.7276 C   0  0  0  0  0  0  0  0  0  0  0  0
  -15.5559   -3.8579   -0.7091 C   0  0  0  0  0  0  0  0  0  0  0  0
  -16.4951   -4.0767   -1.7255 C   0  0  0  0  0  0  0  0  0  0  0  0
  -16.2641   -4.8646   -2.8281 C   0  0  0  0  0  0  0  0  0  0  0  0
  -14.9935   -5.4472   -2.8657 C   0  0  0  0  0  0  0  0  0  0  0  0
  -14.3873   -6.3195   -3.8710 C   0  0  0  0  0  0  0  0  0  0  0  0
  -15.0151   -6.7777   -5.0015 C   0  0  0  0  0  0  0  0  0  0  0  0
  -16.3501   -6.4846   -5.3501 C   0  0  0  0  0  0  0  0  0  0  0  0
  -17.4270   -6.2953   -5.7013 N   0  0  0  0  0  0  0  0  0  0  0  0
  -14.4420   -7.6083   -5.9867 C   0  0  0  0  0  0  0  0  0  0  0  0
  -14.0583   -8.2760   -6.8397 N   0  0  0  0  0  0  0  0  0  0  0  0
  -17.5337   -3.2052   -1.0646 C   0  0  0  0  0  0  0  0  0  0  0  0
  -18.6772   -3.9325   -0.3264 C   0  0  0  0  0  0  0  0  0  0  0  0
  -19.2394   -2.8765    0.5977 C   0  0  0  0  0  0  0  0  0  0  0  0
  -18.3512   -2.6698    1.5616 C   0  0  0  0  0  0  0  0  0  0  0  0
  -17.1738   -3.5828    1.3053 C   0  0  0  0  0  0  0  0  0  0  0  0
  -17.9009   -4.7837    0.6867 C   0  0  0  0  0  0  0  0  0  0  0  0
  -16.4872   -2.9622    0.0700 C   0  0  0  0  0  0  0  0  0  0  0  0
  -10.7525   -7.5945   -3.8461 C   0  0  0  0  0  0  0  0  0  0  0  0
   -9.9271   -8.2990   -4.7193 C   0  0  0  0  0  0  0  0  0  0  0  0
   -8.6145   -8.4081   -4.2898 C   0  0  0  0  0  0  0  0  0  0  0  0
   -7.3541   -9.2216   -5.2332 S   0  0  0  0  0  0  0  0  0  0  0  0
   -6.6864   -7.7715   -6.1365 C   0  0  0  0  0  0  0  0  0  0  0  0
   -7.6715   -7.2139   -7.1426 C   0  0  0  0  0  0  0  0  0  0  0  0
   -8.3991   -7.8135   -3.0488 C   0  0  0  0  0  0  0  0  0  0  0  0
   -9.8530   -7.0903   -2.4342 S   0  0  0  0  0  0  0  0  0  0  0  0
   -7.1930   -7.7258   -2.3104 C   0  0  0  0  0  0  0  0  0  0  0  0
   -7.0414   -7.1536   -1.0755 C   0  0  0  0  0  0  0  0  0  0  0  0
   -5.7119   -7.1453   -0.6040 C   0  0  0  0  0  0  0  0  0  0  0  0
   -5.2476   -6.5700    0.5916 C   0  0  0  0  0  0  0  0  0  0  0  0
   -6.0845   -5.9904    1.5095 O   0  0  0  0  0  0  0  0  0  0  0  0
   -6.8840   -6.8883    2.2671 C   0  0  0  0  0  0  0  0  0  0  0  0
   -6.0520   -7.7214    3.2356 C   0  0  0  0  0  0  0  0  0  0  0  0
   -3.8790   -6.5113    0.7633 C   0  0  0  0  0  0  0  0  0  0  0  0
   -3.1027   -5.6720    2.0882 S   0  0  0  0  0  0  0  0  0  0  0  0
   -1.5679   -5.9779    1.3531 C   0  0  0  0  0  0  0  0  0  0  0  0
   -0.2561   -5.4358    1.5410 C   0  0  0  0  0  0  0  0  0  0  0  0
    0.5273   -5.8851    0.4562 C   0  0  0  0  0  0  0  0  0  0  0  0
   -0.2432   -6.9127   -0.3653 C   0  0  0  0  0  0  0  0  0  0  0  0
   -1.6302   -6.7422    0.2119 C   0  0  0  0  0  0  0  0  0  0  0  0
   -2.9570   -7.0576   -0.1696 C   0  0  0  0  0  0  0  0  0  0  0  0
   -3.4285   -7.7255   -1.3236 C   0  0  0  0  0  0  0  0  0  0  0  0
   -4.8013   -7.7290   -1.5288 C   0  0  0  0  0  0  0  0  0  0  0  0
   -5.6711   -8.3233   -2.9362 S   0  0  0  0  0  0  0  0  0  0  0  0
   -2.4685   -8.2664   -2.1082 O   0  0  0  0  0  0  0  0  0  0  0  0
   -2.8033   -9.1171   -3.1864 C   0  0  0  0  0  0  0  0  0  0  0  0
   -1.5243   -9.7954   -3.6492 C   0  0  0  0  0  0  0  0  0  0  0  0
   -0.1786   -6.5695   -1.8396 C   0  0  0  0  0  0  0  0  0  0  0  0
    0.6650   -7.2302   -2.7193 C   0  0  0  0  0  0  0  0  0  0  0  0
    0.6940   -6.8835   -4.0589 C   0  0  0  0  0  0  0  0  0  0  0  0
   -0.1157   -5.8718   -4.5544 C   0  0  0  0  0  0  0  0  0  0  0  0
   -0.1487   -5.5607   -6.0232 C   0  0  0  0  0  0  0  0  0  0  0  0
   -1.2094   -6.4160   -6.7200 C   0  0  0  0  0  0  0  0  0  0  0  0
   -0.9378   -5.1933   -3.6639 C   0  0  0  0  0  0  0  0  0  0  0  0
   -0.9614   -5.5284   -2.3248 C   0  0  0  0  0  0  0  0  0  0  0  0
    0.2884   -8.3100   -0.0662 C   0  0  0  0  0  0  0  0  0  0  0  0
    1.6521   -8.5409    0.0771 C   0  0  0  0  0  0  0  0  0  0  0  0
    2.1359   -9.8143    0.3137 C   0  0  0  0  0  0  0  0  0  0  0  0
    1.2768  -10.8995    0.4163 C   0  0  0  0  0  0  0  0  0  0  0  0
    1.8002  -12.2762    0.7088 C   0  0  0  0  0  0  0  0  0  0  0  0
    1.8553  -12.5183    2.2185 C   0  0  0  0  0  0  0  0  0  0  0  0
   -0.0849  -10.6650    0.2912 C   0  0  0  0  0  0  0  0  0  0  0  0
   -0.5725   -9.3923    0.0572 C   0  0  0  0  0  0  0  0  0  0  0  0
    1.7486   -5.3099    0.1898 C   0  0  0  0  0  0  0  0  0  0  0  0
    2.1870   -4.3169    1.0614 C   0  0  0  0  0  0  0  0  0  0  0  0
    3.2494   -3.3650    0.9327 C   0  0  0  0  0  0  0  0  0  0  0  0
    3.1972   -2.4256    1.9341 C   0  0  0  0  0  0  0  0  0  0  0  0
    2.1575   -2.8206    2.9575 C   0  0  0  0  0  0  0  0  0  0  0  0
    1.4534   -3.9503    2.2104 C   0  0  0  0  0  0  0  0  0  0  0  0
    0.2091   -4.4874    2.4467 C   0  0  0  0  0  0  0  0  0  0  0  0
    2.8210   -3.3813    4.2083 C   0  0  0  0  0  0  0  0  0  0  0  0
    2.1196   -4.2315    5.0566 C   0  0  0  0  0  0  0  0  0  0  0  0
    2.7105   -4.7462    6.1951 C   0  0  0  0  0  0  0  0  0  0  0  0
    4.0229   -4.4349    6.5227 C   0  0  0  0  0  0  0  0  0  0  0  0
    4.6530   -4.9602    7.7808 C   0  0  0  0  0  0  0  0  0  0  0  0
    4.4676   -3.9656    8.9285 C   0  0  0  0  0  0  0  0  0  0  0  0
    4.7221   -3.5879    5.6751 C   0  0  0  0  0  0  0  0  0  0  0  0
    4.1343   -3.0711    4.5346 C   0  0  0  0  0  0  0  0  0  0  0  0
    1.1548   -1.7230    3.2489 C   0  0  0  0  0  0  0  0  0  0  0  0
    0.5524   -1.0817    2.1720 C   0  0  0  0  0  0  0  0  0  0  0  0
   -0.4422   -0.1452    2.3739 C   0  0  0  0  0  0  0  0  0  0  0  0
   -0.8708    0.1734    3.6571 C   0  0  0  0  0  0  0  0  0  0  0  0
   -1.9540    1.1912    3.8790 C   0  0  0  0  0  0  0  0  0  0  0  0
   -1.3668    2.5905    4.0743 C   0  0  0  0  0  0  0  0  0  0  0  0
   -0.2495   -0.4516    4.7301 C   0  0  0  0  0  0  0  0  0  0  0  0
    0.7507   -1.3876    4.5321 C   0  0  0  0  0  0  0  0  0  0  0  0
    4.0624   -1.3275    1.7062 C   0  0  0  0  0  0  0  0  0  0  0  0
    4.2114   -0.1384    2.4547 C   0  0  0  0  0  0  0  0  0  0  0  0
    3.5500   -0.1394    3.6371 O   0  0  0  0  0  0  0  0  0  0  0  0
    3.4379    1.0128    4.4451 C   0  0  0  0  0  0  0  0  0  0  0  0
    2.3819    1.9864    3.9376 C   0  0  0  0  0  0  0  0  0  0  0  0
    5.0159    0.8469    1.8981 C   0  0  0  0  0  0  0  0  0  0  0  0
    5.7131    0.6631    0.6700 C   0  0  0  0  0  0  0  0  0  0  0  0
    5.6449   -0.5607   -0.0164 C   0  0  0  0  0  0  0  0  0  0  0  0
    6.2733   -0.8125   -1.2032 O   0  0  0  0  0  0  0  0  0  0  0  0
    7.6868   -0.6523   -1.2558 C   0  0  0  0  0  0  0  0  0  0  0  0
    8.0840    0.0100   -2.5672 C   0  0  0  0  0  0  0  0  0  0  0  0
    4.7873   -1.5139    0.5014 C   0  0  0  0  0  0  0  0  0  0  0  0
    4.4091   -3.0190   -0.3047 S   0  0  0  0  0  0  0  0  0  0  0  0
    6.3445    1.8481    0.2288 C   0  0  0  0  0  0  0  0  0  0  0  0
    6.1688    2.9235    1.0550 C   0  0  0  0  0  0  0  0  0  0  0  0
    5.2601    2.4857    2.4823 S   0  0  0  0  0  0  0  0  0  0  0  0
    6.5013    4.2679    0.7431 C   0  0  0  0  0  0  0  0  0  0  0  0
    6.3063    5.4350    1.4737 C   0  0  0  0  0  0  0  0  0  0  0  0
    5.9318    5.5095    2.8041 N   0  0  0  0  0  0  0  0  0  0  0  0
    5.0780    6.5718    3.1625 C   0  0  0  0  0  0  0  0  0  0  0  0
    5.3743    7.4049    4.2354 C   0  0  0  0  0  0  0  0  0  0  0  0
    4.5560    8.4800    4.5191 C   0  0  0  0  0  0  0  0  0  0  0  0
    3.4349    8.7534    3.7459 C   0  0  0  0  0  0  0  0  0  0  0  0
    2.5917    9.9616    4.0103 C   0  0  0  0  0  0  0  0  0  0  0  0
    3.1338    7.9010    2.6913 C   0  0  0  0  0  0  0  0  0  0  0  0
    3.9397    6.8193    2.4010 C   0  0  0  0  0  0  0  0  0  0  0  0
    6.5412    4.7289    3.7884 C   0  0  0  0  0  0  0  0  0  0  0  0
    5.8507    4.4326    4.9648 C   0  0  0  0  0  0  0  0  0  0  0  0
    6.4297    3.6356    5.9287 C   0  0  0  0  0  0  0  0  0  0  0  0
    7.7053    3.1066    5.7566 C   0  0  0  0  0  0  0  0  0  0  0  0
    8.3107    2.2315    6.8115 C   0  0  0  0  0  0  0  0  0  0  0  0
    8.3907    3.4152    4.5899 C   0  0  0  0  0  0  0  0  0  0  0  0
    7.8255    4.2181    3.6182 C   0  0  0  0  0  0  0  0  0  0  0  0
    6.5258    6.5838    0.6717 C   0  0  0  0  0  0  0  0  0  0  0  0
    6.2628    8.2719    0.9230 S   0  0  0  0  0  0  0  0  0  0  0  0
    6.7731    8.6091   -0.7341 C   0  0  0  0  0  0  0  0  0  0  0  0
    7.0739    7.4232   -1.4501 C   0  0  0  0  0  0  0  0  0  0  0  0
    7.3952    7.3436   -2.7810 N   0  0  0  0  0  0  0  0  0  0  0  0
    6.8513    8.2057   -3.7523 C   0  0  0  0  0  0  0  0  0  0  0  0
    7.6306    8.6087   -4.8329 C   0  0  0  0  0  0  0  0  0  0  0  0
    7.1127    9.4788   -5.7719 C   0  0  0  0  0  0  0  0  0  0  0  0
    5.8213    9.9781   -5.6541 C   0  0  0  0  0  0  0  0  0  0  0  0
    5.3002   10.9807   -6.6363 C   0  0  0  0  0  0  0  0  0  0  0  0
    5.0395    9.5414   -4.5900 C   0  0  0  0  0  0  0  0  0  0  0  0
    5.5362    8.6555   -3.6556 C   0  0  0  0  0  0  0  0  0  0  0  0
    8.1821    6.2582   -3.2135 C   0  0  0  0  0  0  0  0  0  0  0  0
    7.8231    5.5282   -4.3434 C   0  0  0  0  0  0  0  0  0  0  0  0
    8.5886    4.4515   -4.7402 C   0  0  0  0  0  0  0  0  0  0  0  0
    9.7238    4.0741   -4.0295 C   0  0  0  0  0  0  0  0  0  0  0  0
   10.5380    2.8991   -4.4758 C   0  0  0  0  0  0  0  0  0  0  0  0
   10.0830    4.8193   -2.9144 C   0  0  0  0  0  0  0  0  0  0  0  0
    9.3271    5.9016   -2.5075 C   0  0  0  0  0  0  0  0  0  0  0  0
    6.9356    6.2967   -0.6240 C   0  0  0  0  0  0  0  0  0  0  0  0
    7.0752    4.5902   -0.8918 S   0  0  0  0  0  0  0  0  0  0  0  0
    6.8880    9.8856   -1.2824 C   0  0  0  0  0  0  0  0  0  0  0  0
    6.4178   11.0981   -0.8322 C   0  0  0  0  0  0  0  0  0  0  0  0
    5.6282   11.3329    0.3787 C   0  0  0  0  0  0  0  0  0  0  0  0
    5.4215   10.5619    1.3010 O   0  0  0  0  0  0  0  0  0  0  0  0
    5.1100   12.7102    0.2694 C   0  0  0  0  0  0  0  0  0  0  0  0
    4.2799   13.3700    1.1708 C   0  0  0  0  0  0  0  0  0  0  0  0
    3.9474   14.6493    0.7939 C   0  0  0  0  0  0  0  0  0  0  0  0
    4.4152   15.2334   -0.3896 C   0  0  0  0  0  0  0  0  0  0  0  0
    5.2449   14.5966   -1.2828 C   0  0  0  0  0  0  0  0  0  0  0  0
    5.5862   13.2908   -0.9229 C   0  0  0  0  0  0  0  0  0  0  0  0
    6.4442   12.3189   -1.6009 C   0  0  0  0  0  0  0  0  0  0  0  0
    7.1395   12.5475   -2.7650 C   0  0  0  0  0  0  0  0  0  0  0  0
    7.0079   13.7008   -3.5613 C   0  0  0  0  0  0  0  0  0  0  0  0
    6.9265   14.5898   -4.2851 N   0  0  0  0  0  0  0  0  0  0  0  0
    8.0968   11.6811   -3.3257 C   0  0  0  0  0  0  0  0  0  0  0  0
    8.9213   11.0574   -3.8296 N   0  0  0  0  0  0  0  0  0  0  0  0
    3.6833   16.5276   -0.1343 C   0  0  0  0  0  0  0  0  0  0  0  0
    2.3793   16.7901   -0.9275 C   0  0  0  0  0  0  0  0  0  0  0  0
    1.8107   15.4376   -1.2778 C   0  0  0  0  0  0  0  0  0  0  0  0
    1.3666   14.8829   -0.1579 C   0  0  0  0  0  0  0  0  0  0  0  0
    1.6271   15.8504    0.9698 C   0  0  0  0  0  0  0  0  0  0  0  0
    1.4465   17.1848    0.2287 C   0  0  0  0  0  0  0  0  0  0  0  0
    3.1608   15.8757    1.1846 C   0  0  0  0  0  0  0  0  0  0  0  0
  -12.4132   -7.7553   -5.0859 H   0  0  0  0  0  0  0  0  0  0  0  0
  -13.5438   -4.2686    0.0267 H   0  0  0  0  0  0  0  0  0  0  0  0
  -16.9969   -5.0151   -3.6028 H   0  0  0  0  0  0  0  0  0  0  0  0
  -17.8776   -2.3530   -1.6476 H   0  0  0  0  0  0  0  0  0  0  0  0
  -19.3841   -4.4436   -0.9741 H   0  0  0  0  0  0  0  0  0  0  0  0
  -20.1691   -2.3654    0.4294 H   0  0  0  0  0  0  0  0  0  0  0  0
  -18.3909   -1.9514    2.3593 H   0  0  0  0  0  0  0  0  0  0  0  0
  -16.5123   -3.7755    2.1457 H   0  0  0  0  0  0  0  0  0  0  0  0
  -17.2381   -5.5184    0.2334 H   0  0  0  0  0  0  0  0  0  0  0  0
  -18.5594   -5.2777    1.3991 H   0  0  0  0  0  0  0  0  0  0  0  0
  -16.1341   -1.9474    0.2443 H   0  0  0  0  0  0  0  0  0  0  0  0
  -10.2807   -8.7133   -5.6470 H   0  0  0  0  0  0  0  0  0  0  0  0
   -5.7920   -8.1544   -6.6261 H   0  0  0  0  0  0  0  0  0  0  0  0
   -6.3984   -7.0260   -5.3955 H   0  0  0  0  0  0  0  0  0  0  0  0
   -7.9672   -7.9839   -7.8511 H   0  0  0  0  0  0  0  0  0  0  0  0
   -7.2131   -6.3924   -7.6898 H   0  0  0  0  0  0  0  0  0  0  0  0
   -8.5633   -6.8399   -6.6430 H   0  0  0  0  0  0  0  0  0  0  0  0
   -7.8636   -6.7080   -0.5438 H   0  0  0  0  0  0  0  0  0  0  0  0
   -7.4572   -7.5490    1.6044 H   0  0  0  0  0  0  0  0  0  0  0  0
   -7.5761   -6.2425    2.8119 H   0  0  0  0  0  0  0  0  0  0  0  0
   -5.4561   -7.0701    3.8702 H   0  0  0  0  0  0  0  0  0  0  0  0
   -5.3810   -8.3812    2.6884 H   0  0  0  0  0  0  0  0  0  0  0  0
   -6.7072   -8.3249    3.8577 H   0  0  0  0  0  0  0  0  0  0  0  0
   -3.5315   -9.8711   -2.8632 H   0  0  0  0  0  0  0  0  0  0  0  0
   -3.2396   -8.5345   -4.0076 H   0  0  0  0  0  0  0  0  0  0  0  0
   -0.8187   -9.0484   -4.0000 H   0  0  0  0  0  0  0  0  0  0  0  0
   -1.7506  -10.4897   -4.4530 H   0  0  0  0  0  0  0  0  0  0  0  0
   -1.0711  -10.3349   -2.8215 H   0  0  0  0  0  0  0  0  0  0  0  0
    1.2939   -8.0341   -2.3670 H   0  0  0  0  0  0  0  0  0  0  0  0
    1.3545   -7.4146   -4.7312 H   0  0  0  0  0  0  0  0  0  0  0  0
    0.8272   -5.7631   -6.4693 H   0  0  0  0  0  0  0  0  0  0  0  0
   -0.3814   -4.5046   -6.1745 H   0  0  0  0  0  0  0  0  0  0  0  0
   -1.2480   -6.1870   -7.7826 H   0  0  0  0  0  0  0  0  0  0  0  0
   -2.1898   -6.2269   -6.2876 H   0  0  0  0  0  0  0  0  0  0  0  0
   -0.9819   -7.4732   -6.6002 H   0  0  0  0  0  0  0  0  0  0  0  0
   -1.5672   -4.3915   -4.0246 H   0  0  0  0  0  0  0  0  0  0  0  0
   -1.6033   -4.9811   -1.6492 H   0  0  0  0  0  0  0  0  0  0  0  0
    2.3513   -7.7226    0.0085 H   0  0  0  0  0  0  0  0  0  0  0  0
    3.2013   -9.9658    0.4169 H   0  0  0  0  0  0  0  0  0  0  0  0
    1.1517  -13.0245    0.2482 H   0  0  0  0  0  0  0  0  0  0  0  0
    2.8024  -12.3881    0.2899 H   0  0  0  0  0  0  0  0  0  0  0  0
    2.5064  -11.7884    2.6945 H   0  0  0  0  0  0  0  0  0  0  0  0
    0.8624  -12.4239    2.6527 H   0  0  0  0  0  0  0  0  0  0  0  0
    2.2349  -13.5150    2.4314 H   0  0  0  0  0  0  0  0  0  0  0  0
   -0.7774  -11.4912    0.3760 H   0  0  0  0  0  0  0  0  0  0  0  0
   -1.6359   -9.2506   -0.0327 H   0  0  0  0  0  0  0  0  0  0  0  0
    2.3150   -5.5465   -0.6989 H   0  0  0  0  0  0  0  0  0  0  0  0
   -0.4287   -4.1379    3.2450 H   0  0  0  0  0  0  0  0  0  0  0  0
    1.1000   -4.5004    4.8309 H   0  0  0  0  0  0  0  0  0  0  0  0
    2.1420   -5.4054    6.8363 H   0  0  0  0  0  0  0  0  0  0  0  0
    5.7202   -5.1263    7.6182 H   0  0  0  0  0  0  0  0  0  0  0  0
    4.1965   -5.9139    8.0534 H   0  0  0  0  0  0  0  0  0  0  0  0
    3.4092   -3.7966    9.1146 H   0  0  0  0  0  0  0  0  0  0  0  0
    4.9245   -4.3445    9.8399 H   0  0  0  0  0  0  0  0  0  0  0  0
    4.9273   -3.0115    8.6795 H   0  0  0  0  0  0  0  0  0  0  0  0
    5.7468   -3.3312    5.9055 H   0  0  0  0  0  0  0  0  0  0  0  0
    4.7117   -2.4191    3.9006 H   0  0  0  0  0  0  0  0  0  0  0  0
    0.8589   -1.3313    1.1658 H   0  0  0  0  0  0  0  0  0  0  0  0
   -0.9040    0.3358    1.5230 H   0  0  0  0  0  0  0  0  0  0  0  0
   -2.5354    0.9211    4.7632 H   0  0  0  0  0  0  0  0  0  0  0  0
   -2.6272    1.2018    3.0195 H   0  0  0  0  0  0  0  0  0  0  0  0
   -0.7152    2.6113    4.9449 H   0  0  0  0  0  0  0  0  0  0  0  0
   -0.7841    2.8831    3.2036 H   0  0  0  0  0  0  0  0  0  0  0  0
   -2.1620    3.3182    4.2198 H   0  0  0  0  0  0  0  0  0  0  0  0
   -0.5595   -0.2105    5.7376 H   0  0  0  0  0  0  0  0  0  0  0  0
    1.2125   -1.8602    5.3857 H   0  0  0  0  0  0  0  0  0  0  0  0
    3.1334    0.6146    5.4177 H   0  0  0  0  0  0  0  0  0  0  0  0
    4.4079    1.5097    4.5631 H   0  0  0  0  0  0  0  0  0  0  0  0
    1.4241    1.4794    3.8683 H   0  0  0  0  0  0  0  0  0  0  0  0
    2.3006    2.8237    4.6247 H   0  0  0  0  0  0  0  0  0  0  0  0
    2.6448    2.3682    2.9550 H   0  0  0  0  0  0  0  0  0  0  0  0
    8.1367   -1.6537   -1.1961 H   0  0  0  0  0  0  0  0  0  0  0  0
    8.0414   -0.0672   -0.4011 H   0  0  0  0  0  0  0  0  0  0  0  0
    7.7023   -0.5740   -3.4001 H   0  0  0  0  0  0  0  0  0  0  0  0
    9.1671    0.0662   -2.6348 H   0  0  0  0  0  0  0  0  0  0  0  0
    7.6733    1.0149   -2.6357 H   0  0  0  0  0  0  0  0  0  0  0  0
    6.8593    1.9339   -0.7108 H   0  0  0  0  0  0  0  0  0  0  0  0
    6.2564    7.2163    4.8296 H   0  0  0  0  0  0  0  0  0  0  0  0
    4.8063    9.1311    5.3440 H   0  0  0  0  0  0  0  0  0  0  0  0
    1.5410    9.7559    3.8163 H   0  0  0  0  0  0  0  0  0  0  0  0
    2.7043   10.3029    5.0365 H   0  0  0  0  0  0  0  0  0  0  0  0
    2.9060   10.7663    3.3456 H   0  0  0  0  0  0  0  0  0  0  0  0
    2.2604    8.0916    2.0843 H   0  0  0  0  0  0  0  0  0  0  0  0
    3.7019    6.1638    1.5751 H   0  0  0  0  0  0  0  0  0  0  0  0
    4.8524    4.8195    5.1034 H   0  0  0  0  0  0  0  0  0  0  0  0
    5.8780    3.4072    6.8295 H   0  0  0  0  0  0  0  0  0  0  0  0
    7.6541    1.3906    7.0316 H   0  0  0  0  0  0  0  0  0  0  0  0
    8.4519    2.7927    7.7349 H   0  0  0  0  0  0  0  0  0  0  0  0
    9.2753    1.8460    6.4913 H   0  0  0  0  0  0  0  0  0  0  0  0
    9.3869    3.0252    4.4361 H   0  0  0  0  0  0  0  0  0  0  0  0
    8.3807    4.4494    2.7209 H   0  0  0  0  0  0  0  0  0  0  0  0
    8.6458    8.2543   -4.9202 H   0  0  0  0  0  0  0  0  0  0  0  0
    7.7336    9.7972   -6.5953 H   0  0  0  0  0  0  0  0  0  0  0  0
    5.7018   11.9682   -6.4047 H   0  0  0  0  0  0  0  0  0  0  0  0
    4.2150   11.0377   -6.5994 H   0  0  0  0  0  0  0  0  0  0  0  0
    5.6081   10.7269   -7.6484 H   0  0  0  0  0  0  0  0  0  0  0  0
    4.0234    9.8966   -4.4929 H   0  0  0  0  0  0  0  0  0  0  0  0
    4.9143    8.3227   -2.8373 H   0  0  0  0  0  0  0  0  0  0  0  0
    6.9376    5.8043   -4.8964 H   0  0  0  0  0  0  0  0  0  0  0  0
    8.2959    3.8845   -5.6119 H   0  0  0  0  0  0  0  0  0  0  0  0
   11.2704    2.6233   -3.7214 H   0  0  0  0  0  0  0  0  0  0  0  0
   11.0682    3.1380   -5.3976 H   0  0  0  0  0  0  0  0  0  0  0  0
    9.8959    2.0427   -4.6743 H   0  0  0  0  0  0  0  0  0  0  0  0
   10.9682    4.5529   -2.3553 H   0  0  0  0  0  0  0  0  0  0  0  0
    9.6201    6.4784   -1.6425 H   0  0  0  0  0  0  0  0  0  0  0  0
    7.3779    9.9047   -2.2471 H   0  0  0  0  0  0  0  0  0  0  0  0
    3.9499   12.8869    2.0774 H   0  0  0  0  0  0  0  0  0  0  0  0
    5.6019   15.0622   -2.1864 H   0  0  0  0  0  0  0  0  0  0  0  0
    4.3038   17.4178   -0.0512 H   0  0  0  0  0  0  0  0  0  0  0  0
    2.4845   17.4937   -1.7490 H   0  0  0  0  0  0  0  0  0  0  0  0
    1.8422   15.0123   -2.2638 H   0  0  0  0  0  0  0  0  0  0  0  0
    0.9525   13.9009   -0.0214 H   0  0  0  0  0  0  0  0  0  0  0  0
    1.0462   15.6989    1.8762 H   0  0  0  0  0  0  0  0  0  0  0  0
    0.4203   17.3515   -0.0956 H   0  0  0  0  0  0  0  0  0  0  0  0
    1.7980   18.0464    0.7948 H   0  0  0  0  0  0  0  0  0  0  0  0
    3.4394   16.3419    2.1279 H   0  0  0  0  0  0  0  0  0  0  0  0
  1  2  2  0  0  0  0
  2  3  1  0  0  0  0
  3  4  2  0  0  0  0
  3  5  1  0  0  0  0
  5  6  2  0  0  0  0
  6  7  1  0  0  0  0
  7  8  2  0  0  0  0
  8  9  1  0  0  0  0
  9 10  2  0  0  0  0
 10 11  1  0  0  0  0
 11 12  2  0  0  0  0
 12 13  1  0  0  0  0
 13 14  3  0  0  0  0
 12 15  1  0  0  0  0
 15 16  3  0  0  0  0
  8 17  1  0  0  0  0
 17 18  1  0  0  0  0
 18 19  1  0  0  0  0
 19 20  2  0  0  0  0
 20 21  1  0  0  0  0
 21 22  1  0  0  0  0
 21 23  1  0  0  0  0
  1 24  1  0  0  0  0
 24 25  2  0  0  0  0
 25 26  1  0  0  0  0
 26 27  1  0  0  0  0
 27 28  1  0  0  0  0
 28 29  1  0  0  0  0
 26 30  2  0  0  0  0
 30 31  1  0  0  0  0
 30 32  1  0  0  0  0
 32 33  2  0  0  0  0
 33 34  1  0  0  0  0
 34 35  2  0  0  0  0
 35 36  1  0  0  0  0
 36 37  1  0  0  0  0
 37 38  1  0  0  0  0
 35 39  1  0  0  0  0
 39 40  1  0  0  0  0
 40 41  1  0  0  0  0
 41 42  1  0  0  0  0
 42 43  2  0  0  0  0
 43 44  1  0  0  0  0
 44 45  1  0  0  0  0
 45 46  1  0  0  0  0
 46 47  1  0  0  0  0
 47 48  2  0  0  0  0
 48 49  1  0  0  0  0
 47 50  1  0  0  0  0
 50 51  1  0  0  0  0
 51 52  1  0  0  0  0
 44 53  1  0  0  0  0
 53 54  2  0  0  0  0
 54 55  1  0  0  0  0
 55 56  2  0  0  0  0
 56 57  1  0  0  0  0
 57 58  1  0  0  0  0
 56 59  1  0  0  0  0
 59 60  2  0  0  0  0
 44 61  1  0  0  0  0
 61 62  2  0  0  0  0
 62 63  1  0  0  0  0
 63 64  2  0  0  0  0
 64 65  1  0  0  0  0
 65 66  1  0  0  0  0
 64 67  1  0  0  0  0
 67 68  2  0  0  0  0
 43 69  1  0  0  0  0
 69 70  2  0  0  0  0
 70 71  1  0  0  0  0
 71 72  2  0  0  0  0
 72 73  1  0  0  0  0
 73 74  1  0  0  0  0
 74 75  2  0  0  0  0
 73 76  1  0  0  0  0
 76 77  2  0  0  0  0
 77 78  1  0  0  0  0
 78 79  2  0  0  0  0
 79 80  1  0  0  0  0
 80 81  1  0  0  0  0
 79 82  1  0  0  0  0
 82 83  2  0  0  0  0
 73 84  1  0  0  0  0
 84 85  2  0  0  0  0
 85 86  1  0  0  0  0
 86 87  2  0  0  0  0
 87 88  1  0  0  0  0
 88 89  1  0  0  0  0
 87 90  1  0  0  0  0
 90 91  2  0  0  0  0
 72 92  1  0  0  0  0
 92 93  2  0  0  0  0
 93 94  1  0  0  0  0
 94 95  1  0  0  0  0
 95 96  1  0  0  0  0
 93 97  1  0  0  0  0
 97 98  2  0  0  0  0
 98 99  1  0  0  0  0
 99100  1  0  0  0  0
100101  1  0  0  0  0
101102  1  0  0  0  0
 99103  2  0  0  0  0
103104  1  0  0  0  0
 98105  1  0  0  0  0
105106  2  0  0  0  0
106107  1  0  0  0  0
106108  1  0  0  0  0
108109  2  0  0  0  0
109110  1  0  0  0  0
110111  1  0  0  0  0
111112  2  0  0  0  0
112113  1  0  0  0  0
113114  2  0  0  0  0
114115  1  0  0  0  0
114116  1  0  0  0  0
116117  2  0  0  0  0
110118  1  0  0  0  0
118119  2  0  0  0  0
119120  1  0  0  0  0
120121  2  0  0  0  0
121122  1  0  0  0  0
121123  1  0  0  0  0
123124  2  0  0  0  0
109125  1  0  0  0  0
125126  1  0  0  0  0
126127  1  0  0  0  0
127128  2  0  0  0  0
128129  1  0  0  0  0
129130  1  0  0  0  0
130131  2  0  0  0  0
131132  1  0  0  0  0
132133  2  0  0  0  0
133134  1  0  0  0  0
133135  1  0  0  0  0
135136  2  0  0  0  0
129137  1  0  0  0  0
137138  2  0  0  0  0
138139  1  0  0  0  0
139140  2  0  0  0  0
140141  1  0  0  0  0
140142  1  0  0  0  0
142143  2  0  0  0  0
128144  1  0  0  0  0
144145  1  0  0  0  0
127146  1  0  0  0  0
146147  2  0  0  0  0
147148  1  0  0  0  0
148149  2  0  0  0  0
148150  1  0  0  0  0
150151  2  0  0  0  0
151152  1  0  0  0  0
152153  2  0  0  0  0
153154  1  0  0  0  0
154155  2  0  0  0  0
155156  1  0  0  0  0
156157  2  0  0  0  0
157158  1  0  0  0  0
158159  3  0  0  0  0
157160  1  0  0  0  0
160161  3  0  0  0  0
153162  1  0  0  0  0
162163  1  0  0  0  0
163164  1  0  0  0  0
164165  2  0  0  0  0
165166  1  0  0  0  0
166167  1  0  0  0  0
166168  1  0  0  0  0
 11  2  1  0  0  0  0
 23 17  1  0  0  0  0
 31 24  1  0  0  0  0
 49 32  1  0  0  0  0
 60 53  1  0  0  0  0
 68 61  1  0  0  0  0
 74 70  1  0  0  0  0
 83 76  1  0  0  0  0
 91 84  1  0  0  0  0
103 92  1  0  0  0  0
145108  1  0  0  0  0
156147  1  0  0  0  0
168162  1  0  0  0  0
 10  5  1  0  0  0  0
 22 18  1  0  0  0  0
 48 34  1  0  0  0  0
104 71  1  0  0  0  0
117111  1  0  0  0  0
124118  1  0  0  0  0
144125  2  0  0  0  0
155150  1  0  0  0  0
167163  1  0  0  0  0
 23  7  1  0  0  0  0
 46 39  2  0  0  0  0
107 97  1  0  0  0  0
136130  1  0  0  0  0
143137  1  0  0  0  0
168152  1  0  0  0  0
 45 41  2  0  0  0  0
 75 42  1  0  0  0  0
  1169  1  0  0  0  0
  6170  1  0  0  0  0
  9171  1  0  0  0  0
 17172  1  0  0  0  0
 18173  1  0  0  0  0
 19174  1  0  0  0  0
 20175  1  0  0  0  0
 21176  1  0  0  0  0
 22177  1  0  0  0  0
 22178  1  0  0  0  0
 23179  1  0  0  0  0
 25180  1  0  0  0  0
 28181  1  0  0  0  0
 28182  1  0  0  0  0
 29183  1  0  0  0  0
 29184  1  0  0  0  0
 29185  1  0  0  0  0
 33186  1  0  0  0  0
 37187  1  0  0  0  0
 37188  1  0  0  0  0
 38189  1  0  0  0  0
 38190  1  0  0  0  0
 38191  1  0  0  0  0
 51192  1  0  0  0  0
 51193  1  0  0  0  0
 52194  1  0  0  0  0
 52195  1  0  0  0  0
 52196  1  0  0  0  0
 54197  1  0  0  0  0
 55198  1  0  0  0  0
 57199  1  0  0  0  0
 57200  1  0  0  0  0
 58201  1  0  0  0  0
 58202  1  0  0  0  0
 58203  1  0  0  0  0
 59204  1  0  0  0  0
 60205  1  0  0  0  0
 62206  1  0  0  0  0
 63207  1  0  0  0  0
 65208  1  0  0  0  0
 65209  1  0  0  0  0
 66210  1  0  0  0  0
 66211  1  0  0  0  0
 66212  1  0  0  0  0
 67213  1  0  0  0  0
 68214  1  0  0  0  0
 69215  1  0  0  0  0
 75216  1  0  0  0  0
 77217  1  0  0  0  0
 78218  1  0  0  0  0
 80219  1  0  0  0  0
 80220  1  0  0  0  0
 81221  1  0  0  0  0
 81222  1  0  0  0  0
 81223  1  0  0  0  0
 82224  1  0  0  0  0
 83225  1  0  0  0  0
 85226  1  0  0  0  0
 86227  1  0  0  0  0
 88228  1  0  0  0  0
 88229  1  0  0  0  0
 89230  1  0  0  0  0
 89231  1  0  0  0  0
 89232  1  0  0  0  0
 90233  1  0  0  0  0
 91234  1  0  0  0  0
 95235  1  0  0  0  0
 95236  1  0  0  0  0
 96237  1  0  0  0  0
 96238  1  0  0  0  0
 96239  1  0  0  0  0
101240  1  0  0  0  0
101241  1  0  0  0  0
102242  1  0  0  0  0
102243  1  0  0  0  0
102244  1  0  0  0  0
105245  1  0  0  0  0
112246  1  0  0  0  0
113247  1  0  0  0  0
115248  1  0  0  0  0
115249  1  0  0  0  0
115250  1  0  0  0  0
116251  1  0  0  0  0
117252  1  0  0  0  0
119253  1  0  0  0  0
120254  1  0  0  0  0
122255  1  0  0  0  0
122256  1  0  0  0  0
122257  1  0  0  0  0
123258  1  0  0  0  0
124259  1  0  0  0  0
131260  1  0  0  0  0
132261  1  0  0  0  0
134262  1  0  0  0  0
134263  1  0  0  0  0
134264  1  0  0  0  0
135265  1  0  0  0  0
136266  1  0  0  0  0
138267  1  0  0  0  0
139268  1  0  0  0  0
141269  1  0  0  0  0
141270  1  0  0  0  0
141271  1  0  0  0  0
142272  1  0  0  0  0
143273  1  0  0  0  0
146274  1  0  0  0  0
151275  1  0  0  0  0
154276  1  0  0  0  0
162277  1  0  0  0  0
163278  1  0  0  0  0
164279  1  0  0  0  0
165280  1  0  0  0  0
166281  1  0  0  0  0
167282  1  0  0  0  0
167283  1  0  0  0  0
168284  1  0  0  0  0
M  END
