211

C         -8.24370       -8.50680       -3.05140
C         -9.59460       -8.31400       -2.95970
C        -10.34020       -7.39350       -2.07070
O         -9.95380       -6.81730       -1.07460
C        -11.69820       -7.30200       -2.64090
C        -12.72700       -6.47050       -2.20540
C        -13.87900       -6.57160       -2.94710
C        -14.00130       -7.43970       -4.04060
C        -12.99830       -8.27440       -4.47260
C        -11.81620       -8.18490       -3.73190
C        -10.55030       -8.89500       -3.88730
C        -10.33950       -9.97350       -4.70750
C         -9.15620      -10.74050       -4.76480
N         -8.24580      -11.43580       -4.85400
C        -11.31090      -10.51290       -5.57600
N        -12.04840      -11.00080       -6.30870
C        -15.41450       -7.00110       -4.33210
C        -15.63630       -6.02790       -5.51640
C        -14.35270       -5.25290       -5.68220
C        -14.23790       -4.43290       -4.64610
C        -15.44220       -4.63850       -3.76090
C        -16.50490       -4.96690       -4.82170
C        -15.27900       -6.03570       -3.11260
C         -7.18230       -8.00090       -2.27810
C         -7.11910       -7.31330       -1.08050
C         -5.81940       -7.02400       -0.67970
S         -5.46940       -6.16630        0.82630
C         -4.84230       -7.57260        1.82380
C         -5.92270       -8.60020        2.09070
C         -4.83240       -7.47130       -1.55910
S         -5.56190       -8.30660       -2.89160
C         -3.44000       -7.21650       -1.50350
C         -2.43620       -7.72970       -2.31790
C         -2.59670       -8.84430       -3.25390
C         -2.17610       -8.71240       -4.57270
C         -2.33180       -9.76900       -5.45080
C         -2.90000      -10.95470       -5.02290
C         -3.30940      -11.11010       -3.70310
C         -3.88800      -12.41260       -3.23240
C         -2.77510      -13.40080       -2.87850
C         -3.14170      -10.05180       -2.82520
C         -1.22140       -7.05670       -2.11960
S          0.35000       -7.20570       -2.87410
C          0.91540       -5.89450       -1.89470
C          2.04650       -5.07130       -1.77240
C          3.21270       -4.94900       -2.56190
C          4.05580       -3.79570       -2.38730
N          5.04040       -3.75240       -3.27050
S          4.93180       -5.05570       -4.22800
N          3.61420       -5.71960       -3.55940
C          3.77980       -2.89690       -1.33370
C          4.39320       -1.70460       -0.91050
S          5.58700       -0.57520       -1.46670
C          5.13640        0.50280       -0.16840
C          5.46290        1.85020        0.09540
C          6.39860        2.59410       -0.75670
C          6.15040        2.67010       -2.12470
C          7.05530        3.30270       -2.95130
C          8.22550        3.83240       -2.43340
C          8.49880        3.75080       -1.07530
C          9.78260        4.24870       -0.46880
C         10.66120        5.07810       -1.39600
C          7.56310        3.14440       -0.24290
C          4.71610        2.34670        1.13890
S          3.70810        1.10640        1.89200
C          4.16630       -0.02870        0.67740
C          3.72620       -1.28480        0.24370
N          2.72120       -2.16190        0.54840
C          2.70120       -3.12760       -0.43900
C          1.74670       -4.12260       -0.75690
N          0.45880       -4.33540       -0.31000
C         -0.04770       -5.40120       -1.00590
C         -1.27420       -6.05780       -1.14290
S         -2.84760       -5.94000       -0.44110
C         -0.43000       -3.41790        0.36990
C         -0.92400       -3.96490        1.70780
C          2.19460       -2.25290        1.89090
C          3.31450       -2.43460        2.91500
C          4.48220        3.70560        1.53270
C          3.23370        4.31190        1.59680
N          2.01190        3.74940        1.26890
C          1.83030        2.74550        0.31350
C          2.57420        2.69250       -0.86200
C          2.41620        1.64050       -1.74760
C          1.50660        0.62830       -1.48050
S          1.25450       -0.79700       -2.49550
C          2.49550       -0.64390       -3.80650
C          0.71850        0.70970       -0.33380
C          0.87600        1.75010        0.54960
C          0.88150        4.19450        1.98750
C         -0.28860        4.53710        1.31390
C         -1.36410        5.04050        2.01160
C         -1.28770        5.21520        3.39020
S         -2.68050        5.92050        4.21210
C         -1.88730        6.77030        5.60910
C         -0.14370        4.82340        4.07090
C          0.93220        4.31420        3.37270
C          3.34170        5.64390        2.06980
S          2.16190        6.84400        2.44710
C          3.43390        7.93720        2.98450
C          4.71310        7.31220        2.96900
N          5.82790        7.84080        3.55680
C          7.11700        7.51030        3.10980
C          8.12720        7.27990        4.03940
C          9.42370        7.05070        3.62850
C          9.73240        7.05470        2.27410
S         11.36260        6.83420        1.64190
C         12.40890        6.75990        3.12240
C          8.71580        7.25270        1.33950
C          7.41980        7.47320        1.74950
C          5.72540        8.69220        4.67780
C          6.55180        9.80590        4.78520
C          6.39730       10.69290        5.83320
C          5.40330       10.48540        6.77890
S          5.04900       11.61640        8.08470
C          5.79410       13.16600        7.50390
C          4.62770        9.32700        6.71610
C          4.79280        8.43320        5.68380
C          4.63840        6.03520        2.38520
S          5.78480        4.78120        2.01980
C          3.22860        9.27740        3.29450
C          2.05810        9.98660        3.48450
C          0.70120        9.42610        3.53590
O          0.36280        8.26650        3.37020
C         -0.17170       10.55210        3.89010
C          0.62710       11.72390        4.08860
C         -0.10110       12.81880        4.42820
S         -1.78760       12.44630        4.50880
C         -1.50170       10.77530        4.07120
Cl        -2.78700        9.68230        3.89740
C          2.01400       11.38950        3.82080
C          3.04680       12.29570        3.88860
C          4.37970       12.06760        3.51440
N          5.48580       11.97470        3.21140
C          2.84550       13.60960        4.35250
N          2.72840       14.67920        4.75420
H         -7.90320       -9.11100       -3.88500
H        -12.58860       -5.81510       -1.35970
H        -13.10640       -8.93420       -5.31720
H        -16.17480       -7.77820       -4.28610
H        -16.03530       -6.49310       -6.41380
H        -13.65320       -5.41650       -6.48110
H        -13.42320       -3.77480       -4.40630
H        -15.66490       -3.83820       -3.05990
H        -17.42710       -5.36730       -4.40280
H        -16.73140       -4.11950       -5.46710
H        -15.95070       -6.18280       -2.26910
H         -7.98730       -7.02630       -0.51650
H         -3.99280       -8.00560        1.29550
H         -4.49360       -7.11290        2.74730
H         -6.27660       -9.03860        1.15930
H         -5.52950       -9.39550        2.72090
H         -6.76750       -8.13820        2.59560
H         -1.74840       -7.77970       -4.90820
H         -2.01230       -9.66260       -6.47690
H         -3.03120      -11.77090       -5.71820
H         -4.51440      -12.24320       -2.35470
H         -4.51430      -12.83860       -4.01810
H         -3.19820      -14.34400       -2.54100
H         -2.14780      -12.99770       -2.08620
H         -2.14750      -13.59230       -3.74580
H         -3.43900      -10.16160       -1.79110
H          5.24970        2.23660       -2.53010
H          6.85820        3.37100       -4.01110
H          8.92770        4.30020       -3.10410
H          9.53800        4.83430        0.42050
H         10.35230        3.37870       -0.12660
H         11.02440        4.48050       -2.22860
H         11.52070        5.45260       -0.84620
H         10.11300        5.93170       -1.78840
H          7.76260        3.07010        0.81730
H         -1.29830       -3.25430       -0.27850
H          0.07940       -2.46190        0.48610
H         -1.51550       -3.20730        2.21380
H         -0.10080       -4.25720        2.35590
H         -1.55210       -4.83680        1.54800
H          1.53730       -3.11570        1.94440
H          1.63130       -1.34110        2.11870
H          3.90910       -3.31260        2.67160
H          3.96700       -1.56660        2.93960
H          2.88300       -2.56730        3.90340
H          3.28490        3.47520       -1.08310
H          3.00800        1.62320       -2.64870
H          2.28600        0.23020       -4.41650
H          2.39590       -1.54370       -4.40590
H          3.49170       -0.60190       -3.37600
H         -0.01290       -0.06150       -0.14460
H          0.27920        1.79150        1.44820
H         -0.33690        4.42630        0.24080
H         -2.26520        5.32930        1.49320
H         -1.01000        7.29040        5.23570
H         -1.62870        6.06240        6.39160
H         -2.61670        7.47930        5.98810
H         -0.08010        4.91300        5.14340
H          1.82610        4.01380        3.90100
H          7.89310        7.28960        5.09350
H         10.18200        6.87670        4.37410
H         12.16780        5.87770        3.70830
H         12.29210        7.66860        3.70540
H         13.42730        6.68750        2.75350
H          8.96030        7.25710        0.28890
H          6.64380        7.65340        1.02130
H          7.29590        9.99780        4.02840
H          7.03850       11.55720        5.87940
H          6.87520       13.12680        7.60010
H          5.49580       13.35040        6.47620
H          5.39590       13.94290        8.14880
H          3.89140        9.14630        7.48390
H          4.18130        7.54490        5.63340
H          4.13770        9.85430        3.40810
H          0.22490       13.81790        4.63840
