181

C          7.41440        3.69690       -7.87130
C          8.21130        4.80270       -7.72360
C          7.94990        5.93330       -6.82530
O          7.00810        6.07710       -6.06380
C          9.06180        6.87900       -7.01460
C          9.23930        8.10150       -6.37040
C         10.38020        8.76940       -6.74540
C         11.27500        8.26060       -7.69600
C         11.10890        7.05810       -8.34160
C          9.95700        6.35780       -7.97020
C          9.45510        5.06020       -8.42200
C         10.07970        4.24490       -9.33180
C         11.29780        4.54850       -9.97500
N         12.28480        4.72070      -10.53630
C          9.62240        2.98160       -9.76030
N          9.33180        1.94380      -10.15970
C         12.19990        9.44640       -7.57850
C         13.48930        9.23450       -6.75720
C         13.93410       10.63790       -6.41410
C         13.08760       11.12060       -5.51350
C         12.05650       10.05130       -5.23250
C         12.92490        8.79760       -5.39920
C         11.20260       10.01370       -6.51790
C          6.21440        3.35780       -7.22870
C          5.52860        2.17790       -7.50480
C          4.38020        2.00560       -6.74980
S          3.31910        0.60080       -6.90370
C          4.50590       -0.73090       -6.48670
C          4.97190       -0.63850       -5.04800
C          4.13200        3.07330       -5.88450
S          5.36630        4.28920       -6.01590
C          3.10690        3.18510       -4.91500
C          2.79490        4.30000       -4.14790
C          3.29510        5.65870       -4.37430
C          3.12530        6.27720       -5.61040
C          3.57320        7.56940       -5.79650
C          4.18280        8.25310       -4.75860
C          4.34550        7.65560       -3.51670
C          4.94340        8.41110       -2.36540
C          3.83700        9.03400       -1.51150
C          3.89160        6.35790       -3.33370
C          1.88540        3.98580       -3.12750
S          1.17660        4.94430       -1.84820
C          0.34360        3.53130       -1.29470
C         -0.48630        3.13400       -0.23660
C         -0.93200        3.84800        0.89640
C         -1.64760        3.14330        1.91840
N         -1.95260        3.91630        2.94910
S         -1.39220        5.40650        2.65370
N         -0.73460        5.12100        1.20180
C         -1.96620        1.78410        1.71160
C         -2.70060        0.88800        2.50250
S         -3.48100        0.84200        4.04680
C         -3.94250       -0.81090        3.72780
C         -4.65570       -1.75550        4.48560
C         -5.25320       -1.47700        5.79700
C         -6.63330       -1.54860        5.95930
C         -7.19320       -1.28740        7.19490
C         -6.38420       -0.96770        8.27040
C         -5.00520       -0.88660        8.12180
C         -4.12960       -0.60870        9.30920
C         -3.88080       -1.90510       10.08290
C         -4.44920       -1.13230        6.87560
C         -4.76150       -2.96210        3.82280
S         -4.00700       -2.92180        2.23340
C         -3.51810       -1.28100        2.48230
C         -2.80020       -0.30370        1.78100
N         -2.13710       -0.18850        0.58830
C         -1.59860        1.08910        0.52400
C         -0.76310        1.74740       -0.41860
N         -0.09480        1.32270       -1.55600
C          0.58370        2.39420       -2.07060
C          1.47360        2.65040       -3.12000
S          2.20590        1.75790       -4.40650
C          0.23790       -0.00680       -2.01300
C          1.07890       -0.75860       -0.98380
C         -2.41150       -1.14030       -0.46500
C         -3.26070       -0.52060       -1.57220
C         -5.28510       -4.19270        4.31000
C         -5.58920       -5.31150        3.58470
C         -6.01540       -6.40390        4.37510
C         -6.44680       -7.67200        3.94460
C         -6.43860       -8.05310        2.52690
C         -7.57360       -8.59960        1.92830
C         -7.56010       -8.96570        0.60250
C         -6.40700       -8.80840       -0.17130
O         -6.52270       -9.18580       -1.47000
C         -5.38900       -9.18550       -2.31370
C         -4.45910      -10.36560       -2.04760
C         -5.26950       -8.26950        0.42340
C         -5.29390       -7.89510        1.75430
C         -6.87010       -8.54580        4.93230
C         -6.86880       -8.22400        6.31700
C         -6.44420       -6.94960        6.74740
C         -6.46220       -6.55580        8.15880
C         -7.60640       -6.73030        8.93860
C         -7.62700       -6.32700       10.25340
C         -6.50010       -5.74420       10.84180
O         -6.64790       -5.37060       12.13690
C         -5.54210       -4.87090       12.86370
C         -4.57820       -5.97190       13.29510
C         -5.35420       -5.57400       10.06980
C         -5.34630       -5.96900        8.74570
C         -6.02070       -6.08140        5.75740
S         -5.50150       -4.43850        6.03210
C         -7.26940       -9.31390        7.11080
C         -7.59180      -10.43600        6.38050
S         -7.40280      -10.18280        4.65480
C         -8.03030      -11.67020        6.93900
C         -8.37660      -12.81480        6.25600
C         -8.79430      -13.96920        6.95320
N         -9.13460      -14.91580        7.50360
C         -8.35860      -12.95890        4.85580
N         -8.36850      -13.14390        3.72290
C         -8.11860      -11.71440        8.35570
N         -8.19010      -11.74340        9.49840
H          7.73970        2.94800       -8.58300
H          8.51970        8.45410       -5.64800
H         11.80600        6.68650       -9.07350
H         12.36610       10.01200       -8.49330
H         14.22600        8.58780       -7.22580
H         14.75850       11.13840       -6.88710
H         13.06350       12.10500       -5.08400
H         11.48890       10.14900       -4.31090
H         12.36040        7.86750       -5.43120
H         13.69790        8.72810       -4.63560
H         10.70350       10.95840       -6.72530
H          5.87010        1.47290       -8.24260
H          3.95090       -1.65030       -6.66720
H          5.33910       -0.67070       -7.18510
H          5.50320        0.29620       -4.87700
H          4.12190       -0.68160       -4.37080
H          5.64400       -1.46410       -4.82310
H          2.64120        5.74200       -6.41460
H          3.44470        8.04830       -6.75610
H          4.53410        9.26300       -4.91500
H          5.60050        9.19890       -2.73840
H          5.53700        7.73410       -1.74770
H          3.24500        9.72570       -2.10680
H          4.26350        9.57620       -0.67060
H          3.17420        8.26140       -1.12820
H          4.01840        5.87600       -2.37470
H         -7.25790       -1.80620        5.11620
H         -8.26440       -1.33900        7.32100
H         -6.82730       -0.77570        9.23690
H         -4.61380        0.11610        9.96680
H         -3.17610       -0.19110        8.98170
H         -3.38520       -2.63370        9.44470
H         -3.25550       -1.71740       10.95320
H         -4.82720       -2.32930       10.41260
H         -3.37850       -1.07360        6.74100
H          0.81860        0.11860       -2.93040
H         -0.66330       -0.55880       -2.27910
H          2.01820       -0.23520       -0.82090
H          0.56180       -0.83030       -0.02970
H          1.29870       -1.76050       -1.34300
H         -2.96630       -1.96070       -0.00270
H         -1.48550       -1.56240       -0.85610
H         -3.44030       -1.25130       -2.35620
H         -2.77050        0.34840       -2.00490
H         -4.21940       -0.20190       -1.16950
H         -5.53290       -5.34050        2.51090
H         -8.47970       -8.71740        2.50350
H         -8.43670       -9.38210        0.13300
H         -4.84750       -8.23400       -2.23660
H         -5.80460       -9.26170       -3.32240
H         -3.63710      -10.35250       -2.75820
H         -4.05610      -10.32450       -1.03860
H         -5.00810      -11.29710       -2.15840
H         -4.35560       -8.13490       -0.13390
H         -4.39640       -7.49850        2.20690
H         -8.49430       -7.15790        8.49670
H         -8.51210       -6.44820       10.85750
H         -5.98950       -4.40390       13.74550
H         -5.01870       -4.09530       12.29110
H         -3.78060       -5.54490       13.89680
H         -4.14260       -6.46890       12.43170
H         -5.10850       -6.71430       13.88600
H         -4.46050       -5.13380       10.48230
H         -4.44320       -5.84370        8.16690
H         -7.30430       -9.28690        8.18600
