177

C         -1.26740       -7.17800       -9.68410
C         -1.12500       -5.99210      -10.35860
C         -1.25110       -4.65660       -9.76860
O         -1.46410       -4.37920       -8.59950
C         -1.06810       -3.69650      -10.86970
C         -1.12300       -2.30670      -10.78960
C         -0.91840       -1.66930      -11.98990
C         -0.68120       -2.36430      -13.18280
C         -0.62750       -3.73510      -13.27580
C         -0.82760       -4.40410      -12.06470
C         -0.84120       -5.83730      -11.77050
C         -0.60510       -6.83450      -12.68330
C         -0.59770       -8.21760      -12.40960
N         -0.56650       -9.35870      -12.27460
C         -0.31750       -6.61940      -14.04710
N         -0.07540       -6.52510      -15.16570
C         -0.56330       -1.09700      -13.99220
C          0.86500       -0.65030      -14.36980
C          0.70550        0.81220      -14.71740
C          0.47890        1.47260      -13.58910
C          0.48240        0.46760      -12.45960
C          1.52610       -0.52300      -12.99130
C         -0.82870       -0.32130      -12.66210
C         -1.53830       -7.41780       -8.32940
C         -1.64470       -8.70770       -7.81290
C         -1.89380       -8.76390       -6.44790
S         -1.96010      -10.22900       -5.48040
C         -1.01720      -11.42460       -6.49780
C          0.44670      -11.05540       -6.63280
C         -2.01560       -7.48780       -5.88900
S         -1.77920       -6.23660       -7.07000
C         -2.23960       -7.10520       -4.53940
C         -2.98700       -7.69970       -3.53480
C         -3.90300       -8.82480       -3.70120
C         -4.73070       -8.90940       -4.81910
C         -5.62810       -9.95270       -4.93260
C         -5.71350      -10.91310       -3.93930
C         -4.90070      -10.84070       -2.81550
C         -5.02010      -11.84200       -1.70330
C         -5.90240      -11.28540       -0.58390
C         -4.00350       -9.79020       -2.70540
C         -2.87380       -6.98190       -2.32660
S         -3.58940       -7.20700       -0.74630
C         -2.82190       -5.74890       -0.21430
C         -2.75380       -4.93010        0.92260
C         -3.41790       -5.03660        2.16300
C         -3.25650       -3.98730        3.12450
N         -3.96470       -4.19260        4.22420
S         -4.76410       -5.59210        4.06230
N         -4.23790       -5.98760        2.58270
C         -2.37730       -2.92410        2.82920
C         -1.97960       -1.83240        3.61560
S         -2.30360       -1.14020        5.16970
C         -1.11970        0.10250        4.83570
C         -0.64600        1.19540        5.58960
C         -1.09360        1.47600        6.95590
C         -0.17380        1.68620        7.98070
C         -0.61940        1.92330        9.26650
C         -1.97630        1.94710        9.54310
C         -2.90610        1.72520        8.53620
C         -4.37640        1.68100        8.83430
C         -4.82710        0.23440        9.04750
C         -2.45230        1.48700        7.24670
C          0.31460        1.90250        4.89040
S          0.66200        1.20040        3.31960
C         -0.51330       -0.03600        3.58600
C         -1.01550       -1.13920        2.88420
N         -0.80950       -1.75280        1.68000
C         -1.65300       -2.84810        1.60250
C         -1.90510       -3.82870        0.60070
N         -1.50600       -3.97680       -0.71620
C         -2.05040       -5.13370       -1.20030
C         -2.08350       -5.83390       -2.41250
S         -1.44430       -5.62980       -4.00310
C         -0.78880       -3.12230       -1.63230
C          0.64360       -3.60790       -1.85710
C          0.25330       -1.26570        0.83350
C         -0.17010       -0.02470        0.04640
C          0.96350        3.12230        5.24280
C          0.55550        4.08210        6.12070
C          1.42930        5.19250        6.20550
C          1.25470        6.32090        7.02200
O          0.17740        6.46110        7.85970
C          0.20330        5.67030        9.04130
C          1.29900        6.10180       10.00870
C          2.19200        7.33000        6.89750
C          3.29720        7.23620        6.01490
C          3.50170        6.08100        5.21890
O          4.58940        6.14420        4.42460
C          5.13800        4.99730        3.80490
C          5.82390        4.07320        4.80420
C          2.54630        5.08130        5.32900
S          2.45740        3.56510        4.44740
C          4.11550        8.37870        6.05250
C          3.67070        9.34450        6.92490
S          2.19420        8.83410        7.75560
C          4.16730       10.61900        7.27400
C          5.20020       11.36130        6.77280
C          6.07630       11.07910        5.60790
O          6.20430       10.04780        4.98090
C          6.79790       12.33650        5.34320
C          7.68170       12.62730        4.32150
C          8.23160       13.89750        4.26940
C          7.90630       14.86640        5.21730
C          8.49190       16.23930        5.11870
C          7.01780       14.56240        6.24720
C          6.46540       13.29450        6.31440
C          5.53620       12.68940        7.26510
C          5.13260       13.26350        8.44160
C          5.51540       14.55530        8.86090
N          5.78060       15.59770        9.26270
C          4.33150       12.65650        9.43310
N          3.71010       12.24200       10.30570
H         -1.16420       -8.08760      -10.26280
H         -1.31550       -1.81360       -9.84960
H         -0.45120       -4.25140      -14.20430
H         -1.27310       -0.98800      -14.80990
H          1.35820       -1.27830      -15.10660
H          0.71740        1.19490      -15.72100
H          0.26370        2.51740      -13.46200
H          0.62830        0.85980      -11.45660
H          2.51970       -0.08170      -13.05090
H          1.57550       -1.45710      -12.43460
H         -1.71700        0.30390      -12.59250
H         -1.53100       -9.56880       -8.44660
H         -1.51100      -11.52390       -7.46310
H         -1.13450      -12.35980       -5.95040
H          0.90750      -10.97870       -5.65080
H          0.96760      -11.82030       -7.20500
H          0.56370      -10.10210       -7.14390
H         -4.67680       -8.14970       -5.58500
H         -6.26860      -10.01630       -5.80010
H         -6.41870      -11.72610       -4.03710
H         -5.45440      -12.76940       -2.08130
H         -4.02980      -12.06580       -1.30180
H         -5.98370      -12.00300        0.22910
H         -6.90040      -11.07250       -0.96060
H         -5.48060      -10.36210       -0.19360
H         -3.35550       -9.73270       -1.84340
H          0.88420        1.65450        7.76500
H          0.09480        2.08490       10.06090
H         -2.31520        2.13500       10.55160
H         -4.93590        2.11230        8.00160
H         -4.59230        2.26460        9.73120
H         -5.89300        0.19610        9.25880
H         -4.62580       -0.35990        8.15920
H         -4.29070       -0.20880        9.88360
H         -3.16570        1.32100        6.45260
H         -1.31910       -3.15780       -2.59020
H         -0.82000       -2.09630       -1.27930
H          1.17400       -3.73880       -0.91580
H          0.63430       -4.56490       -2.37160
H          1.18360       -2.89310       -2.47170
H          0.59770       -2.06270        0.18140
H          1.08820       -0.99170        1.48800
H         -1.09320       -0.19580       -0.50380
H          0.61270        0.25390       -0.65360
H         -0.33630        0.80800        0.72450
H         -0.36990        4.02500        6.66310
H          0.32120        4.60780        8.79120
H         -0.78280        5.82020        9.48640
H          1.21530        5.53450       10.93140
H          1.20490        7.16150       10.23220
H          2.28180        5.92400        9.57550
H          5.87400        5.40820        3.10860
H          4.38030        4.45550        3.22860
H          6.57100        4.62810        5.36640
H          6.30970        3.25980        4.27370
H          5.10330        3.65330        5.50170
H          4.99900        8.48590        5.45080
H          3.58920       11.08750        8.06250
H          7.92810       11.87410        3.58890
H          8.92530       14.14820        3.48010
H          7.91510       16.83550        4.41080
H          9.51850       16.19880        4.76170
H          8.46800       16.74240        6.08180
H          6.77070       15.32120        6.97200
