202

C         -4.35900       10.96690       -4.72210
C         -5.21190       11.67820       -3.92790
C         -5.41790       11.49060       -2.48050
O         -4.84880       10.70950       -1.74210
C         -6.46660       12.44590       -2.08770
C         -7.01160       12.60850       -0.81550
C         -7.98830       13.57190       -0.74540
C         -8.39380       14.31940       -1.85950
C         -7.86670       14.16650       -3.11960
C         -6.86870       13.19040       -3.21470
C         -6.09870       12.74030       -4.37240
C         -6.21350       13.24360       -5.64270
C         -5.49330       12.81270       -6.77700
N         -4.96320       12.52960       -7.75650
C         -7.08560       14.28960       -6.01260
N         -7.76390       15.13470       -6.39220
C         -9.41030       15.10110       -1.06480
C         -9.02000       16.54070       -0.66810
C         -9.95900       16.86810        0.47060
C         -9.57720       16.15900        1.52520
C         -8.37360       15.34050        1.11720
C         -7.72360       16.30650        0.11830
C         -8.95940       14.26610        0.17660
C         -3.48430        9.90420       -4.41170
C         -2.74870        9.26510       -5.39270
C         -1.96430        8.20360       -4.92000
C         -1.10060        7.36280       -5.65890
C         -0.94830        7.48490       -7.09660
S         -2.33250        7.52120       -8.15280
C         -1.35060        7.57760       -9.57530
C         -1.95700        7.69080      -10.93010
C         -2.17250        9.15870      -11.30820
C         -0.03050        7.57930       -9.23660
Cl         1.24940        7.62510      -10.37690
C          0.20240        7.52480       -7.83690
Cl         1.77940        7.61010       -7.17740
C         -0.43240        6.38380       -4.94420
C         -0.54470        6.23020       -3.53590
C         -1.37190        7.09420       -2.79210
C         -1.47970        7.01680       -1.35010
C         -2.58280        7.22330       -0.56860
C         -2.31660        7.13130        0.81080
C         -1.01270        6.86670        1.09760
C         -0.35700        6.75910        2.43100
C          0.38100        8.05240        2.78540
S         -0.08050        6.71410       -0.35360
C         -2.08750        8.04920       -3.51410
S         -3.19620        9.20470       -2.83360
C          0.18670        5.10990       -3.08210
C          0.83730        4.42940       -4.07440
S          0.57610        5.15000       -5.64720
C          1.56880        3.21880       -3.92650
C          2.33680        2.53480       -4.85000
C          2.73100        3.04710       -6.16560
C          3.38750        4.27030       -6.27730
C          3.77160        4.73180       -7.52120
C          3.50740        3.98320       -8.65480
C          2.86800        2.75410       -8.55840
C          2.63960        1.90480       -9.77510
C          3.78690        0.90670       -9.94460
C          2.49010        2.29210       -7.30630
C          2.73540        1.27890       -4.35380
S          3.64280       -0.03510       -5.06260
C          3.42440       -0.94130       -3.60280
C          3.65810       -2.23650       -3.11050
C          4.13670       -3.40970       -3.73600
C          4.00350       -4.66920       -3.05390
N          4.40580       -5.68900       -3.79560
S          4.91770       -5.11840       -5.22160
N          4.63900       -3.54620       -4.95270
C          3.52690       -4.68270       -1.72440
C          3.33020       -5.72190       -0.79550
S          3.39410       -7.45070       -0.71830
C          2.88940       -7.37820        0.95410
C          2.64070       -8.36920        1.93000
C          2.88400       -9.79380        1.71490
C          3.52170      -10.55770        2.68960
C          3.79150      -11.89120        2.45160
C          3.43160      -12.47360        1.24740
C          2.79190      -11.72670        0.26610
C          2.43630      -12.33280       -1.06070
C          3.52190      -12.01990       -2.09240
C          2.52830      -10.38740        0.50960
C          2.25140       -7.80580        3.12640
S          2.23810       -6.04850        3.07220
C          2.71000       -6.07340        1.41230
C          2.95100       -5.12730        0.40930
N          2.88660       -3.76350        0.26760
C          3.20270       -3.47510       -1.05090
C          3.12750       -2.27110       -1.79210
N          2.55090       -1.04700       -1.51310
C          2.72140       -0.24790       -2.61240
C          2.31220        1.01780       -3.04890
S          1.38670        2.33310       -2.41690
C          1.59290       -0.68900       -0.49130
C          2.12450        0.39800        0.44290
C          3.10330       -2.92540        1.42730
C          4.47080       -3.19410        2.05610
C          1.79130       -8.43300        4.34350
C          2.17050       -7.89620        5.57140
C          1.71650       -8.41860        6.76970
O          2.11970       -8.00570        7.99090
C          2.71060       -6.72890        8.16240
C          1.69590       -5.60770        7.97740
C          0.78080       -9.49360        6.74090
C          0.40170      -10.02350        5.49790
C          0.89050       -9.52790        4.30800
O          0.51300       -9.94440        3.07650
C         -0.41980      -11.00180        2.93130
C          0.17660      -12.38080        3.18560
C          0.19320       -9.85470        7.98310
C         -0.68540      -10.82920        8.37490
C         -1.09330      -12.07730        7.69380
O         -0.85550      -12.44740        6.56210
C         -1.84790      -12.85360        8.70330
C         -2.40780      -14.10610        8.57670
C         -3.07760      -14.64490        9.67650
C         -3.68890      -15.99170        9.53120
O         -3.62810      -16.65690        8.52730
O         -4.32400      -16.39040       10.64180
C         -4.93690      -17.66960       10.57890
C         -3.16100      -13.92670       10.86880
C         -2.59690      -12.66620       10.99220
C         -1.93860      -12.12070        9.89940
C         -1.27830      -10.83340        9.70260
C         -1.32000       -9.78310       10.58410
C         -0.83500       -8.47820       10.34740
N         -0.52040       -7.37740       10.24470
C         -1.92000       -9.84750       11.85920
N         -2.38090       -9.83140       12.91080
H         -4.34030       11.22350       -5.77440
H         -6.67190       12.00630        0.01250
H         -8.19780       14.74440       -3.96590
H        -10.44140       15.01800       -1.40280
H         -8.98570       17.24670       -1.49310
H        -10.80960       17.51750        0.37880
H        -10.04540       16.09770        2.49020
H         -7.75040       14.95340        1.91890
H         -6.92150       15.86390       -0.46950
H         -7.36430       17.21490        0.59890
H         -9.69000       13.62440        0.66560
H         -2.79040        9.56620       -6.42420
H         -2.91390        7.16650      -10.94430
H         -1.28830        7.22140      -11.65430
H         -1.22430        9.69040      -11.30840
H         -2.61050        9.22730      -12.30020
H         -2.84100        9.63930      -10.59800
H         -3.56390        7.40620       -0.96630
H         -3.07100        7.25800        1.56690
H         -1.12090        6.55490        3.18440
H          0.35420        5.92970        2.42740
H          0.85120        7.96390        3.76160
H         -0.31340        8.88920        2.80670
H          1.15040        8.26120        2.04540
H          0.22150        4.79120       -2.05610
H          3.60010        4.84760       -5.38920
H          4.28040        5.68040       -7.60780
H          3.80390        4.35530       -9.62500
H          2.57460        2.53690      -10.66280
H          1.69960        1.35820       -9.67410
H          3.62240        0.28250      -10.81980
H          3.86370        0.26630       -9.06870
H          4.73080        1.43360      -10.06570
H          1.98720        1.33970       -7.21570
H          3.81350      -10.10130        3.62410
H          4.28640      -12.48190        3.20860
H          3.64680      -13.51770        1.06940
H          2.33160      -13.41490       -0.96040
H          1.48400      -11.92720       -1.40850
H          4.47650      -12.43190       -1.77250
H          3.26450      -12.44890       -3.05790
H          3.63530      -10.94440       -2.20770
H          2.02050       -9.80130       -0.24220
H          1.30440       -1.58770        0.05460
H          0.69800       -0.30370       -0.99380
H          1.42060        0.55960        1.25440
H          3.09140        0.13130        0.86400
H          2.24330        1.33140       -0.10000
H          2.31280       -3.13300        2.15560
H          3.06000       -1.88360        1.13080
H          5.26000       -3.01690        1.32820
H          4.61940       -2.52990        2.90310
H          4.54380       -4.22040        2.40490
H          2.85490       -7.06160        5.55990
H          3.57330       -6.60360        7.49740
H          3.06890       -6.74360        9.19470
H          0.85540       -5.76960        8.64800
H          2.15800       -4.65260        8.20950
H          1.32810       -5.58400        6.95370
H         -0.30950      -10.82920        5.49820
H         -1.29360      -10.83180        3.57160
H         -0.73280      -10.92260        1.88610
H         -0.55080      -13.13820        2.90760
H          1.07290      -12.51050        2.58470
H          0.43050      -12.51650        4.23250
H          0.50050       -9.18220        8.77590
H         -2.33910      -14.66310        7.65470
H         -5.49680      -17.78470       11.50330
H         -4.17700      -18.44910       10.49170
H         -5.60130      -17.72970        9.71440
H         -3.67710      -14.36510       11.70830
H         -2.67340      -12.13570       11.92710
