174

C         -1.03170        3.01500      -10.30460
C          0.15320        2.45040       -9.94730
C          1.43840        2.91430      -10.53450
O          1.58410        3.57680      -11.53650
C          2.47850        2.45130       -9.59160
C          3.83730        2.76170       -9.61180
C          4.55500        2.20780       -8.57830
C          3.97080        1.39910       -7.59340
C          2.63580        1.07500       -7.56420
C          1.88870        1.63230       -8.60500
C          0.46970        1.49210       -8.90850
C         -0.34370        0.47090       -8.48920
C         -1.61580        0.23300       -9.04890
N         -2.63230       -0.01430       -9.52250
C          0.00920       -0.48120       -7.51450
N          0.23040       -1.26470       -6.70450
C          5.27570        1.20530       -6.86280
C          5.47510        2.03370       -5.57600
C          6.97090        2.01020       -5.35880
C          7.52550        2.77480       -6.29060
C          6.41390        3.32860       -7.15280
C          5.30720        3.46610       -6.09920
C          5.92810        2.10580       -7.96030
C         -2.22580        3.02390       -9.54010
C         -3.52080        3.20070       -9.97580
C         -4.48070        3.13900       -8.95600
S         -6.21860        3.18210       -9.21170
C         -6.37240        2.18580      -10.74380
C         -5.89230        0.76110      -10.55640
C         -3.91920        2.98650       -7.69650
S         -2.18730        2.88150       -7.80210
C         -4.49770        2.83240       -6.40700
C         -5.62700        3.38380       -5.82600
C         -6.46390        4.42050       -6.42430
C         -7.84410        4.39960       -6.24260
C         -8.62580        5.39470       -6.79580
C         -8.04450        6.41930       -7.52170
C         -6.66780        6.46470       -7.70090
C         -6.02530        7.60230       -8.44140
C         -5.68400        8.74150       -7.47900
C         -5.88800        5.46410       -7.14410
C         -5.79940        2.90580       -4.50860
S         -6.95150        3.28490       -3.24660
C         -6.06710        2.26920       -2.15490
C         -6.05610        1.90310       -0.79850
C         -6.83200        2.35220        0.29290
C         -6.44610        1.97230        1.62290
N         -7.21270        2.52580        2.54920
S         -8.32970        3.43830        1.81290
N         -7.87420        3.16800        0.28280
C         -5.37400        1.06930        1.79440
C         -4.80930        0.50190        2.94950
S         -4.92020        0.62630        4.67450
C         -3.62310       -0.53780        4.82200
C         -2.93590       -1.07460        5.93150
C         -3.27130       -0.75550        7.31970
C         -3.43830       -1.76800        8.26080
C         -3.78590       -1.44820        9.55880
C         -3.96970       -0.12680        9.92720
C         -3.81870        0.89420        8.99770
C         -3.97740        2.33240        9.39870
C         -2.62890        2.91580        9.82560
C         -3.47120        0.56770        7.69590
C         -1.94440       -1.94950        5.53230
S         -1.88540       -2.14650        3.78340
C         -3.16860       -1.00860        3.59000
C         -3.83960       -0.40570        2.51990
N         -3.76390       -0.41140        1.15370
C         -4.68060        0.51540        0.68160
C         -4.94770        1.02760       -0.61480
N         -4.29750        0.88770       -1.82840
C         -4.96240        1.65260       -2.74590
C         -4.80310        2.02450       -4.08480
S         -3.63660        1.74500       -5.32260
C         -2.96890        0.40550       -2.12920
C         -1.90010        1.19010       -1.37290
C         -3.14750       -1.53570        0.48270
C         -4.17730       -2.37710       -0.26590
C         -0.90350       -2.57750        6.27870
C         -0.11700       -3.60390        5.83200
C          0.94390       -3.92230        6.70710
C          1.97130       -4.86200        6.52760
O          1.98940       -5.68040        5.42840
C          2.92450       -5.30980        4.41840
C          3.04510       -6.46290        3.43880
C          2.93980       -4.91540        7.50970
C          2.95790       -4.08720        8.67060
C          1.93320       -3.12970        8.83380
O          1.75630       -2.25010        9.84890
C          2.85230       -1.63770       10.51110
C          3.85510       -1.00180        9.55760
C          0.95260       -3.09510        7.84940
S         -0.37230       -1.96290        7.83400
C          4.08020       -4.38430        9.47930
C          4.92580       -5.32430        8.95290
S          4.30390       -5.99440        7.45660
C          6.16100       -5.75220        9.51080
C          7.24900       -6.21310        8.84010
C          8.29650       -7.00770        9.55030
O          8.43300       -7.11830       10.74810
C          9.06000       -7.64630        8.47410
C          8.59110       -7.17290        7.20220
C          9.25840       -7.72370        6.15530
S         10.46130       -8.83310        6.70960
C         10.07720       -8.54580        8.38970
C         10.80670       -9.21890        9.48720
C          7.56550       -6.17590        7.42370
C          7.18020       -5.22690        6.51140
C          7.57700       -5.29780        5.16250
N          7.86830       -5.35810        4.05370
C          6.44910       -4.07050        6.84370
N          5.91680       -3.08400        7.09650
H         -1.03840        3.58570      -11.22720
H          4.25280        3.38380      -10.38900
H          2.19030        0.45640       -6.80220
H          5.61470        0.17600       -6.76320
H          4.85400        1.72950       -4.73790
H          7.45890        1.41520       -4.60940
H          8.56980        2.94600       -6.47500
H          6.64890        4.20540       -7.75020
H          4.32260        3.67490       -6.51380
H          5.54940        4.21120       -5.34320
H          6.70390        1.67730       -8.59190
H         -3.76030        3.31780      -11.01710
H         -5.84370        2.69710      -11.54680
H         -7.44170        2.21840      -10.95370
H         -6.06220        0.19510      -11.47020
H         -4.83040        0.72700      -10.32310
H         -6.43760        0.28380       -9.74550
H         -8.30030        3.59290       -5.68980
H         -9.69720        5.36990       -6.66210
H         -8.66360        7.19200       -7.95450
H         -6.70470        7.97220       -9.21160
H         -5.11170        7.25570       -8.92900
H         -4.99930        8.39310       -6.70900
H         -5.21660        9.56540       -8.01340
H         -6.58530        9.10830       -6.99320
H         -4.81380        5.50070       -7.25900
H         -3.31250       -2.79950        7.96650
H         -3.91850       -2.23450       10.28720
H         -4.24130        0.11490       10.94480
H         -4.68320        2.41100       10.22770
H         -4.37010        2.90830        8.55860
H         -1.91480        2.85410        9.00750
H         -2.73900        3.95860       10.11400
H         -2.22750        2.36100       10.67070
H         -3.34370        1.35280        6.96480
H         -2.82230        0.54490       -3.20300
H         -2.89670       -0.66460       -1.93590
H         -0.91550        0.79800       -1.61300
H         -2.05220        1.13050       -0.29800
H         -1.93560        2.23770       -1.66320
H         -2.34430       -1.20380       -0.17630
H         -2.68570       -2.14450        1.26420
H         -4.70400       -1.78680       -1.01180
H         -4.91160       -2.77320        0.43190
H         -3.68460       -3.20980       -0.76070
H         -0.28260       -4.11800        4.90180
H          3.90160       -5.08540        4.86560
H          2.56580       -4.40260        3.91040
H          3.40110       -7.34990        3.95550
H          3.74560       -6.20260        2.65060
H          2.07460       -6.68160        3.00200
H          2.37290       -0.86690       11.12170
H          3.34100       -2.34620       11.18990
H          3.34330       -0.30460        8.89840
H          4.35930       -1.74710        8.94660
H          4.60220       -0.45930       10.13020
H          4.31400       -3.89960       10.40860
H          6.22940       -5.75990       10.59400
H          9.12620       -7.57080        5.10290
H         10.70330      -10.30100        9.41170
H         10.40390       -8.88500       10.44070
H         11.86950       -8.98240        9.44370
