
  xtb     02132220523D
 energy: -289.198103024492 gnorm: 0.000737888146 xtb: 6.4.1 (unknown)
176195  0     0  0            999 V2000
   -8.6617    2.7567   -5.7997 C   0  0  0  0  0  0  0  0  0  0  0  0
   -9.8246    2.0490   -5.6293 C   0  0  0  0  0  0  0  0  0  0  0  0
  -10.1824    1.2626   -4.4437 C   0  0  0  0  0  0  0  0  0  0  0  0
   -9.5308    1.1103   -3.4239 O   0  0  0  0  0  0  0  0  0  0  0  0
  -11.5046    0.6771   -4.7172 C   0  0  0  0  0  0  0  0  0  0  0  0
  -12.2364   -0.1606   -3.8787 C   0  0  0  0  0  0  0  0  0  0  0  0
  -13.4324   -0.5765   -4.4123 C   0  0  0  0  0  0  0  0  0  0  0  0
  -13.8698   -0.1827   -5.6838 C   0  0  0  0  0  0  0  0  0  0  0  0
  -13.1601    0.6499   -6.5169 C   0  0  0  0  0  0  0  0  0  0  0  0
  -11.9361    1.0811   -5.9962 C   0  0  0  0  0  0  0  0  0  0  0  0
  -10.9099    1.9432   -6.5838 C   0  0  0  0  0  0  0  0  0  0  0  0
  -10.9819    2.5216   -7.8261 C   0  0  0  0  0  0  0  0  0  0  0  0
   -9.9947    3.3369   -8.4169 C   0  0  0  0  0  0  0  0  0  0  0  0
   -9.2454    4.0034   -8.9784 N   0  0  0  0  0  0  0  0  0  0  0  0
  -12.0699    2.3808   -8.7127 C   0  0  0  0  0  0  0  0  0  0  0  0
  -12.9112    2.3102   -9.4913 N   0  0  0  0  0  0  0  0  0  0  0  0
  -15.1404   -0.9902   -5.5846 C   0  0  0  0  0  0  0  0  0  0  0  0
  -15.1698   -2.3223   -6.3638 C   0  0  0  0  0  0  0  0  0  0  0  0
  -16.2908   -3.0991   -5.7117 C   0  0  0  0  0  0  0  0  0  0  0  0
  -15.8760   -3.4722   -4.5078 C   0  0  0  0  0  0  0  0  0  0  0  0
  -14.4678   -2.9537   -4.3260 C   0  0  0  0  0  0  0  0  0  0  0  0
  -13.9606   -3.0567   -5.7702 C   0  0  0  0  0  0  0  0  0  0  0  0
  -14.6522   -1.4294   -4.1669 C   0  0  0  0  0  0  0  0  0  0  0  0
   -7.5474    2.8725   -4.9564 C   0  0  0  0  0  0  0  0  0  0  0  0
   -6.4319    3.6378   -5.2880 C   0  0  0  0  0  0  0  0  0  0  0  0
   -5.4170    3.5892   -4.3471 C   0  0  0  0  0  0  0  0  0  0  0  0
   -3.8982    4.4771   -4.5157 S   0  0  0  0  0  0  0  0  0  0  0  0
   -3.2852    3.7453   -6.0789 C   0  0  0  0  0  0  0  0  0  0  0  0
   -2.9847    2.2681   -5.9277 C   0  0  0  0  0  0  0  0  0  0  0  0
   -5.7346    2.7955   -3.2415 C   0  0  0  0  0  0  0  0  0  0  0  0
   -7.3239    2.1116   -3.3979 S   0  0  0  0  0  0  0  0  0  0  0  0
   -4.9051    2.4586   -2.1456 C   0  0  0  0  0  0  0  0  0  0  0  0
   -5.2655    1.7490   -1.0059 C   0  0  0  0  0  0  0  0  0  0  0  0
   -6.6358    1.3854   -0.6299 C   0  0  0  0  0  0  0  0  0  0  0  0
   -6.9699    0.0518   -0.4294 C   0  0  0  0  0  0  0  0  0  0  0  0
   -8.2653   -0.2852   -0.0835 C   0  0  0  0  0  0  0  0  0  0  0  0
   -9.2232    0.6986    0.0727 C   0  0  0  0  0  0  0  0  0  0  0  0
   -8.8992    2.0387   -0.1022 C   0  0  0  0  0  0  0  0  0  0  0  0
   -9.9282    3.1090    0.1193 C   0  0  0  0  0  0  0  0  0  0  0  0
   -9.9940    3.4921    1.5990 C   0  0  0  0  0  0  0  0  0  0  0  0
   -7.5997    2.3717   -0.4449 C   0  0  0  0  0  0  0  0  0  0  0  0
   -4.1485    1.4251   -0.2248 C   0  0  0  0  0  0  0  0  0  0  0  0
   -3.9809    0.5460    1.2779 S   0  0  0  0  0  0  0  0  0  0  0  0
   -2.2698    0.7950    1.1933 C   0  0  0  0  0  0  0  0  0  0  0  0
   -1.1087    0.4358    1.8901 C   0  0  0  0  0  0  0  0  0  0  0  0
   -0.9542   -0.3811    3.0301 C   0  0  0  0  0  0  0  0  0  0  0  0
    0.3686   -0.6913    3.4796 C   0  0  0  0  0  0  0  0  0  0  0  0
    0.3730   -1.4987    4.5291 N   0  0  0  0  0  0  0  0  0  0  0  0
   -1.1629   -1.8349    4.9191 S   0  0  0  0  0  0  0  0  0  0  0  0
   -1.8897   -0.9658    3.7620 N   0  0  0  0  0  0  0  0  0  0  0  0
    1.4657   -0.1106    2.8093 C   0  0  0  0  0  0  0  0  0  0  0  0
    2.8373   -0.2001    3.0825 C   0  0  0  0  0  0  0  0  0  0  0  0
    3.9081   -0.9969    4.1833 S   0  0  0  0  0  0  0  0  0  0  0  0
    5.2596   -0.2063    3.4063 C   0  0  0  0  0  0  0  0  0  0  0  0
    6.6502   -0.2332    3.6484 C   0  0  0  0  0  0  0  0  0  0  0  0
    7.2405   -0.8669    4.8237 C   0  0  0  0  0  0  0  0  0  0  0  0
    8.2241   -0.2014    5.5522 C   0  0  0  0  0  0  0  0  0  0  0  0
    8.6741   -0.7292    6.7461 C   0  0  0  0  0  0  0  0  0  0  0  0
    8.1444   -1.9126    7.2306 C   0  0  0  0  0  0  0  0  0  0  0  0
    7.1598   -2.5873    6.5209 C   0  0  0  0  0  0  0  0  0  0  0  0
    6.5662   -3.8626    7.0462 C   0  0  0  0  0  0  0  0  0  0  0  0
    7.2579   -5.0773    6.4296 C   0  0  0  0  0  0  0  0  0  0  0  0
    6.7271   -2.0633    5.3129 C   0  0  0  0  0  0  0  0  0  0  0  0
    7.3218    0.5709    2.7466 C   0  0  0  0  0  0  0  0  0  0  0  0
    6.2371    1.4148    1.6456 S   0  0  0  0  0  0  0  0  0  0  0  0
    4.8745    0.6330    2.3584 C   0  0  0  0  0  0  0  0  0  0  0  0
    3.4866    0.6300    2.1688 C   0  0  0  0  0  0  0  0  0  0  0  0
    2.5715    1.2248    1.3446 N   0  0  0  0  0  0  0  0  0  0  0  0
    1.3117    0.7697    1.6962 C   0  0  0  0  0  0  0  0  0  0  0  0
    0.0012    0.9910    1.1831 C   0  0  0  0  0  0  0  0  0  0  0  0
   -0.4969    1.6419    0.0681 N   0  0  0  0  0  0  0  0  0  0  0  0
   -1.8599    1.5305    0.0786 C   0  0  0  0  0  0  0  0  0  0  0  0
   -2.9353    1.8921   -0.7400 C   0  0  0  0  0  0  0  0  0  0  0  0
   -3.1709    2.7665   -2.2120 S   0  0  0  0  0  0  0  0  0  0  0  0
    0.1278    2.2686   -1.0727 C   0  0  0  0  0  0  0  0  0  0  0  0
    0.0916    3.7937   -0.9732 C   0  0  0  0  0  0  0  0  0  0  0  0
    3.0316    2.2382    0.4237 C   0  0  0  0  0  0  0  0  0  0  0  0
    3.6526    1.6273   -0.8329 C   0  0  0  0  0  0  0  0  0  0  0  0
    8.7190    0.7077    2.4918 C   0  0  0  0  0  0  0  0  0  0  0  0
    9.7030   -0.2720    2.4467 C   0  0  0  0  0  0  0  0  0  0  0  0
    9.4683   -1.7044    2.7084 C   0  0  0  0  0  0  0  0  0  0  0  0
    8.6356   -2.4362    1.8535 C   0  0  0  0  0  0  0  0  0  0  0  0
    8.4499   -3.7892    2.0908 C   0  0  0  0  0  0  0  0  0  0  0  0
    9.0759   -4.4412    3.1417 C   0  0  0  0  0  0  0  0  0  0  0  0
    8.9355   -5.9279    3.3048 C   0  0  0  0  0  0  0  0  0  0  0  0
    9.9077   -6.6540    2.3724 C   0  0  0  0  0  0  0  0  0  0  0  0
    9.9021   -3.7021    3.9714 C   0  0  0  0  0  0  0  0  0  0  0  0
   10.1161   -2.3467    3.7666 C   0  0  0  0  0  0  0  0  0  0  0  0
   11.0847   -1.6351    4.6717 C   0  0  0  0  0  0  0  0  0  0  0  0
   12.5265   -2.0551    4.3780 C   0  0  0  0  0  0  0  0  0  0  0  0
    8.0505   -1.8565    0.5952 C   0  0  0  0  0  0  0  0  0  0  0  0
    8.9985   -2.1113   -0.5786 C   0  0  0  0  0  0  0  0  0  0  0  0
   10.9299    0.2436    2.0168 C   0  0  0  0  0  0  0  0  0  0  0  0
   10.9055    1.5825    1.6738 C   0  0  0  0  0  0  0  0  0  0  0  0
    9.3238    2.2519    1.9791 S   0  0  0  0  0  0  0  0  0  0  0  0
   11.9900    2.3538    1.2041 C   0  0  0  0  0  0  0  0  0  0  0  0
   11.9668    3.5452    0.5407 C   0  0  0  0  0  0  0  0  0  0  0  0
   13.1788    4.4145    0.5577 C   0  0  0  0  0  0  0  0  0  0  0  0
   14.2926    4.0967    0.9058 O   0  0  0  0  0  0  0  0  0  0  0  0
   12.6917    5.7310    0.1161 C   0  0  0  0  0  0  0  0  0  0  0  0
   13.1868    6.9861   -0.0223 C   0  0  0  0  0  0  0  0  0  0  0  0
   11.9736    8.0614   -0.6143 S   0  0  0  0  0  0  0  0  0  0  0  0
   10.7907    6.8066   -0.6886 C   0  0  0  0  0  0  0  0  0  0  0  0
   11.3132    5.6250   -0.2659 C   0  0  0  0  0  0  0  0  0  0  0  0
   10.8936    4.2424   -0.1389 C   0  0  0  0  0  0  0  0  0  0  0  0
    9.8134    3.6989   -0.7866 C   0  0  0  0  0  0  0  0  0  0  0  0
    8.8688    4.5041   -1.4504 C   0  0  0  0  0  0  0  0  0  0  0  0
    8.0728    5.1443   -1.9749 N   0  0  0  0  0  0  0  0  0  0  0  0
    9.5863    2.3170   -0.9344 C   0  0  0  0  0  0  0  0  0  0  0  0
    9.3917    1.2028   -1.1336 N   0  0  0  0  0  0  0  0  0  0  0  0
   -8.5532    3.3092   -6.7251 H   0  0  0  0  0  0  0  0  0  0  0  0
  -11.8576   -0.4365   -2.9070 H   0  0  0  0  0  0  0  0  0  0  0  0
  -13.5152    0.9439   -7.4902 H   0  0  0  0  0  0  0  0  0  0  0  0
  -16.0689   -0.4286   -5.6660 H   0  0  0  0  0  0  0  0  0  0  0  0
  -15.2114   -2.2163   -7.4443 H   0  0  0  0  0  0  0  0  0  0  0  0
  -17.2575   -3.2449   -6.1565 H   0  0  0  0  0  0  0  0  0  0  0  0
  -16.4271   -3.9919   -3.7459 H   0  0  0  0  0  0  0  0  0  0  0  0
  -13.8693   -3.4236   -3.5500 H   0  0  0  0  0  0  0  0  0  0  0  0
  -13.0089   -2.5578   -5.9434 H   0  0  0  0  0  0  0  0  0  0  0  0
  -13.8979   -4.0887   -6.1116 H   0  0  0  0  0  0  0  0  0  0  0  0
  -15.2559   -1.1614   -3.3018 H   0  0  0  0  0  0  0  0  0  0  0  0
   -6.3770    4.2117   -6.1965 H   0  0  0  0  0  0  0  0  0  0  0  0
   -2.3845    4.3138   -6.3055 H   0  0  0  0  0  0  0  0  0  0  0  0
   -4.0302    3.9281   -6.8518 H   0  0  0  0  0  0  0  0  0  0  0  0
   -2.2545    2.1091   -5.1375 H   0  0  0  0  0  0  0  0  0  0  0  0
   -2.5854    1.8744   -6.8602 H   0  0  0  0  0  0  0  0  0  0  0  0
   -3.8897    1.7163   -5.6790 H   0  0  0  0  0  0  0  0  0  0  0  0
   -6.2213   -0.7145   -0.5654 H   0  0  0  0  0  0  0  0  0  0  0  0
   -8.5278   -1.3232    0.0589 H   0  0  0  0  0  0  0  0  0  0  0  0
  -10.2367    0.4277    0.3318 H   0  0  0  0  0  0  0  0  0  0  0  0
  -10.9065    2.7493   -0.2058 H   0  0  0  0  0  0  0  0  0  0  0  0
   -9.6767    3.9913   -0.4724 H   0  0  0  0  0  0  0  0  0  0  0  0
   -9.0287    3.8635    1.9360 H   0  0  0  0  0  0  0  0  0  0  0  0
  -10.7400    4.2671    1.7599 H   0  0  0  0  0  0  0  0  0  0  0  0
  -10.2557    2.6264    2.2033 H   0  0  0  0  0  0  0  0  0  0  0  0
   -7.3277    3.4094   -0.5821 H   0  0  0  0  0  0  0  0  0  0  0  0
    8.6051    0.7451    5.1983 H   0  0  0  0  0  0  0  0  0  0  0  0
    9.4267   -0.2023    7.3147 H   0  0  0  0  0  0  0  0  0  0  0  0
    8.4860   -2.3069    8.1771 H   0  0  0  0  0  0  0  0  0  0  0  0
    6.6702   -3.8973    8.1324 H   0  0  0  0  0  0  0  0  0  0  0  0
    5.5022   -3.8942    6.8034 H   0  0  0  0  0  0  0  0  0  0  0  0
    8.3178   -5.0717    6.6737 H   0  0  0  0  0  0  0  0  0  0  0  0
    7.1547   -5.0542    5.3482 H   0  0  0  0  0  0  0  0  0  0  0  0
    6.8187   -5.9984    6.8057 H   0  0  0  0  0  0  0  0  0  0  0  0
    5.9722   -2.5886    4.7473 H   0  0  0  0  0  0  0  0  0  0  0  0
    1.1392    1.8925   -1.1926 H   0  0  0  0  0  0  0  0  0  0  0  0
   -0.4443    1.9671   -1.9569 H   0  0  0  0  0  0  0  0  0  0  0  0
    0.5160    4.1425   -0.0338 H   0  0  0  0  0  0  0  0  0  0  0  0
    0.6490    4.2310   -1.7967 H   0  0  0  0  0  0  0  0  0  0  0  0
   -0.9351    4.1454   -1.0296 H   0  0  0  0  0  0  0  0  0  0  0  0
    3.8022    2.8198    0.9417 H   0  0  0  0  0  0  0  0  0  0  0  0
    2.2168    2.9160    0.1867 H   0  0  0  0  0  0  0  0  0  0  0  0
    4.5604    1.0876   -0.5771 H   0  0  0  0  0  0  0  0  0  0  0  0
    3.9109    2.4142   -1.5359 H   0  0  0  0  0  0  0  0  0  0  0  0
    2.9731    0.9278   -1.3160 H   0  0  0  0  0  0  0  0  0  0  0  0
    7.8129   -4.3529    1.4231 H   0  0  0  0  0  0  0  0  0  0  0  0
    7.9150   -6.2354    3.0654 H   0  0  0  0  0  0  0  0  0  0  0  0
    9.1486   -6.2149    4.3357 H   0  0  0  0  0  0  0  0  0  0  0  0
   10.9323   -6.3681    2.5995 H   0  0  0  0  0  0  0  0  0  0  0  0
    9.7041   -6.3965    1.3356 H   0  0  0  0  0  0  0  0  0  0  0  0
    9.8133   -7.7313    2.4882 H   0  0  0  0  0  0  0  0  0  0  0  0
   10.4035   -4.1915    4.7945 H   0  0  0  0  0  0  0  0  0  0  0  0
   10.9898   -0.5546    4.5601 H   0  0  0  0  0  0  0  0  0  0  0  0
   10.8507   -1.8874    5.7082 H   0  0  0  0  0  0  0  0  0  0  0  0
   13.2147   -1.5263    5.0336 H   0  0  0  0  0  0  0  0  0  0  0  0
   12.7934   -1.8337    3.3475 H   0  0  0  0  0  0  0  0  0  0  0  0
   12.6524   -3.1237    4.5344 H   0  0  0  0  0  0  0  0  0  0  0  0
    7.0862   -2.3286    0.3931 H   0  0  0  0  0  0  0  0  0  0  0  0
    7.8919   -0.7838    0.6734 H   0  0  0  0  0  0  0  0  0  0  0  0
    9.9520   -1.6206   -0.4002 H   0  0  0  0  0  0  0  0  0  0  0  0
    8.5774   -1.7072   -1.4949 H   0  0  0  0  0  0  0  0  0  0  0  0
    9.1742   -3.1772   -0.7074 H   0  0  0  0  0  0  0  0  0  0  0  0
   11.8073   -0.3630    1.8808 H   0  0  0  0  0  0  0  0  0  0  0  0
   12.9784    1.9890    1.4678 H   0  0  0  0  0  0  0  0  0  0  0  0
   14.1746    7.3492    0.1786 H   0  0  0  0  0  0  0  0  0  0  0  0
    9.7990    7.0329   -1.0258 H   0  0  0  0  0  0  0  0  0  0  0  0
  1  2  2  0  0  0  0
  2  3  1  0  0  0  0
  3  4  2  0  0  0  0
  3  5  1  0  0  0  0
  5  6  2  0  0  0  0
  6  7  1  0  0  0  0
  7  8  2  0  0  0  0
  8  9  1  0  0  0  0
  9 10  2  0  0  0  0
 10 11  1  0  0  0  0
 11 12  2  0  0  0  0
 12 13  1  0  0  0  0
 13 14  3  0  0  0  0
 12 15  1  0  0  0  0
 15 16  3  0  0  0  0
  8 17  1  0  0  0  0
 17 18  1  0  0  0  0
 18 19  1  0  0  0  0
 19 20  2  0  0  0  0
 20 21  1  0  0  0  0
 21 22  1  0  0  0  0
 21 23  1  0  0  0  0
  1 24  1  0  0  0  0
 24 25  2  0  0  0  0
 25 26  1  0  0  0  0
 26 27  1  0  0  0  0
 27 28  1  0  0  0  0
 28 29  1  0  0  0  0
 26 30  2  0  0  0  0
 30 31  1  0  0  0  0
 30 32  1  0  0  0  0
 32 33  2  0  0  0  0
 33 34  1  0  0  0  0
 34 35  2  0  0  0  0
 35 36  1  0  0  0  0
 36 37  2  0  0  0  0
 37 38  1  0  0  0  0
 38 39  1  0  0  0  0
 39 40  1  0  0  0  0
 38 41  2  0  0  0  0
 33 42  1  0  0  0  0
 42 43  1  0  0  0  0
 43 44  1  0  0  0  0
 44 45  1  0  0  0  0
 45 46  1  0  0  0  0
 46 47  1  0  0  0  0
 47 48  2  0  0  0  0
 48 49  1  0  0  0  0
 49 50  1  0  0  0  0
 47 51  1  0  0  0  0
 51 52  1  0  0  0  0
 52 53  1  0  0  0  0
 53 54  1  0  0  0  0
 54 55  1  0  0  0  0
 55 56  1  0  0  0  0
 56 57  2  0  0  0  0
 57 58  1  0  0  0  0
 58 59  2  0  0  0  0
 59 60  1  0  0  0  0
 60 61  1  0  0  0  0
 61 62  1  0  0  0  0
 60 63  2  0  0  0  0
 55 64  2  0  0  0  0
 64 65  1  0  0  0  0
 65 66  1  0  0  0  0
 66 67  1  0  0  0  0
 67 68  1  0  0  0  0
 68 69  1  0  0  0  0
 69 70  1  0  0  0  0
 70 71  1  0  0  0  0
 71 72  1  0  0  0  0
 72 73  1  0  0  0  0
 73 74  1  0  0  0  0
 71 75  1  0  0  0  0
 75 76  1  0  0  0  0
 68 77  1  0  0  0  0
 77 78  1  0  0  0  0
 64 79  1  0  0  0  0
 79 80  2  0  0  0  0
 80 81  1  0  0  0  0
 81 82  2  0  0  0  0
 82 83  1  0  0  0  0
 83 84  2  0  0  0  0
 84 85  1  0  0  0  0
 85 86  1  0  0  0  0
 84 87  1  0  0  0  0
 87 88  2  0  0  0  0
 88 89  1  0  0  0  0
 89 90  1  0  0  0  0
 82 91  1  0  0  0  0
 91 92  1  0  0  0  0
 80 93  1  0  0  0  0
 93 94  2  0  0  0  0
 94 95  1  0  0  0  0
 94 96  1  0  0  0  0
 96 97  2  0  0  0  0
 97 98  1  0  0  0  0
 98 99  2  0  0  0  0
 98100  1  0  0  0  0
100101  2  0  0  0  0
101102  1  0  0  0  0
102103  1  0  0  0  0
103104  2  0  0  0  0
104105  1  0  0  0  0
105106  2  0  0  0  0
106107  1  0  0  0  0
107108  3  0  0  0  0
106109  1  0  0  0  0
109110  3  0  0  0  0
 11  2  1  0  0  0  0
 23 17  1  0  0  0  0
 31 24  1  0  0  0  0
 74 32  1  0  0  0  0
 95 79  1  0  0  0  0
105 97  1  0  0  0  0
 10  5  1  0  0  0  0
 22 18  1  0  0  0  0
 41 34  1  0  0  0  0
 73 42  2  0  0  0  0
 88 81  1  0  0  0  0
104100  1  0  0  0  0
 23  7  1  0  0  0  0
 72 44  2  0  0  0  0
 70 45  2  0  0  0  0
 50 46  2  0  0  0  0
 69 51  2  0  0  0  0
 67 52  2  0  0  0  0
 66 54  2  0  0  0  0
 63 56  1  0  0  0  0
  1111  1  0  0  0  0
  6112  1  0  0  0  0
  9113  1  0  0  0  0
 17114  1  0  0  0  0
 18115  1  0  0  0  0
 19116  1  0  0  0  0
 20117  1  0  0  0  0
 21118  1  0  0  0  0
 22119  1  0  0  0  0
 22120  1  0  0  0  0
 23121  1  0  0  0  0
 25122  1  0  0  0  0
 28123  1  0  0  0  0
 28124  1  0  0  0  0
 29125  1  0  0  0  0
 29126  1  0  0  0  0
 29127  1  0  0  0  0
 35128  1  0  0  0  0
 36129  1  0  0  0  0
 37130  1  0  0  0  0
 39131  1  0  0  0  0
 39132  1  0  0  0  0
 40133  1  0  0  0  0
 40134  1  0  0  0  0
 40135  1  0  0  0  0
 41136  1  0  0  0  0
 57137  1  0  0  0  0
 58138  1  0  0  0  0
 59139  1  0  0  0  0
 61140  1  0  0  0  0
 61141  1  0  0  0  0
 62142  1  0  0  0  0
 62143  1  0  0  0  0
 62144  1  0  0  0  0
 63145  1  0  0  0  0
 75146  1  0  0  0  0
 75147  1  0  0  0  0
 76148  1  0  0  0  0
 76149  1  0  0  0  0
 76150  1  0  0  0  0
 77151  1  0  0  0  0
 77152  1  0  0  0  0
 78153  1  0  0  0  0
 78154  1  0  0  0  0
 78155  1  0  0  0  0
 83156  1  0  0  0  0
 85157  1  0  0  0  0
 85158  1  0  0  0  0
 86159  1  0  0  0  0
 86160  1  0  0  0  0
 86161  1  0  0  0  0
 87162  1  0  0  0  0
 89163  1  0  0  0  0
 89164  1  0  0  0  0
 90165  1  0  0  0  0
 90166  1  0  0  0  0
 90167  1  0  0  0  0
 91168  1  0  0  0  0
 91169  1  0  0  0  0
 92170  1  0  0  0  0
 92171  1  0  0  0  0
 92172  1  0  0  0  0
 93173  1  0  0  0  0
 96174  1  0  0  0  0
101175  1  0  0  0  0
103176  1  0  0  0  0
M  END
