
  xtb     02132201003D
 energy: -300.273090517281 gnorm: 0.000195745593 xtb: 6.4.1 (unknown)
178199  0     0  0            999 V2000
    7.2626    3.1896   -6.9280 C   0  0  0  0  0  0  0  0  0  0  0  0
    6.9566    1.8651   -6.9929 C   0  0  0  0  0  0  0  0  0  0  0  0
    7.6106    0.9722   -7.9850 C   0  0  0  0  0  0  0  0  0  0  0  0
    8.6202    1.1977   -8.6134 O   0  0  0  0  0  0  0  0  0  0  0  0
    6.7270   -0.2089   -8.0804 C   0  0  0  0  0  0  0  0  0  0  0  0
    6.8364   -1.2772   -8.9689 C   0  0  0  0  0  0  0  0  0  0  0  0
    5.8449   -2.2201   -8.8376 C   0  0  0  0  0  0  0  0  0  0  0  0
    4.8080   -2.1093   -7.9007 C   0  0  0  0  0  0  0  0  0  0  0  0
    4.6899   -1.0679   -7.0120 C   0  0  0  0  0  0  0  0  0  0  0  0
    5.6958   -0.1044   -7.1224 C   0  0  0  0  0  0  0  0  0  0  0  0
    5.9274    1.0934   -6.3244 C   0  0  0  0  0  0  0  0  0  0  0  0
    5.4624    1.3044   -5.0512 C   0  0  0  0  0  0  0  0  0  0  0  0
    5.9936    2.3001   -4.2036 C   0  0  0  0  0  0  0  0  0  0  0  0
    6.4504    3.0583   -3.4723 N   0  0  0  0  0  0  0  0  0  0  0  0
    4.4518    0.5502   -4.4279 C   0  0  0  0  0  0  0  0  0  0  0  0
    3.5979    0.0098   -3.8810 N   0  0  0  0  0  0  0  0  0  0  0  0
    4.1681   -3.4041   -8.3354 C   0  0  0  0  0  0  0  0  0  0  0  0
    4.3913   -4.6233   -7.4160 C   0  0  0  0  0  0  0  0  0  0  0  0
    4.0862   -5.8076   -8.3044 C   0  0  0  0  0  0  0  0  0  0  0  0
    5.0738   -5.9170   -9.1838 C   0  0  0  0  0  0  0  0  0  0  0  0
    6.0627   -4.8081   -8.9050 C   0  0  0  0  0  0  0  0  0  0  0  0
    5.9227   -4.7076   -7.3805 C   0  0  0  0  0  0  0  0  0  0  0  0
    5.3290   -3.5330   -9.3731 C   0  0  0  0  0  0  0  0  0  0  0  0
    6.4644    4.2065   -6.3466 C   0  0  0  0  0  0  0  0  0  0  0  0
    6.8693    5.4116   -5.8125 C   0  0  0  0  0  0  0  0  0  0  0  0
    5.8408    6.1342   -5.1905 C   0  0  0  0  0  0  0  0  0  0  0  0
    6.0404    7.6017   -4.2500 S   0  0  0  0  0  0  0  0  0  0  0  0
    7.7888    7.4825   -3.7083 C   0  0  0  0  0  0  0  0  0  0  0  0
    8.7366    8.2224   -4.6334 C   0  0  0  0  0  0  0  0  0  0  0  0
    4.6031    5.5134   -5.3067 C   0  0  0  0  0  0  0  0  0  0  0  0
    4.7358    4.0363   -6.2129 S   0  0  0  0  0  0  0  0  0  0  0  0
    3.3568    5.7573   -4.6672 C   0  0  0  0  0  0  0  0  0  0  0  0
    2.6957    6.9202   -4.3044 C   0  0  0  0  0  0  0  0  0  0  0  0
    3.0864    8.2561   -4.7403 C   0  0  0  0  0  0  0  0  0  0  0  0
    2.9065    9.3587   -3.9081 C   0  0  0  0  0  0  0  0  0  0  0  0
    3.2970   10.6130   -4.3329 C   0  0  0  0  0  0  0  0  0  0  0  0
    3.8696   10.7847   -5.5817 C   0  0  0  0  0  0  0  0  0  0  0  0
    4.0422    9.7007   -6.4320 C   0  0  0  0  0  0  0  0  0  0  0  0
    4.7148    9.8567   -7.7656 C   0  0  0  0  0  0  0  0  0  0  0  0
    6.1920    9.4747   -7.6528 C   0  0  0  0  0  0  0  0  0  0  0  0
    3.6396    8.4457   -6.0046 C   0  0  0  0  0  0  0  0  0  0  0  0
    1.5579    6.6233   -3.5213 C   0  0  0  0  0  0  0  0  0  0  0  0
    0.3478    7.6143   -2.7350 S   0  0  0  0  0  0  0  0  0  0  0  0
   -0.4023    6.1838   -2.1065 C   0  0  0  0  0  0  0  0  0  0  0  0
   -1.3968    5.8141   -1.1846 C   0  0  0  0  0  0  0  0  0  0  0  0
   -2.2042    6.5749   -0.3078 C   0  0  0  0  0  0  0  0  0  0  0  0
   -2.9117    5.9061    0.7527 C   0  0  0  0  0  0  0  0  0  0  0  0
   -3.5440    6.7533    1.5482 N   0  0  0  0  0  0  0  0  0  0  0  0
   -3.2857    8.2584    1.0092 S   0  0  0  0  0  0  0  0  0  0  0  0
   -2.3479    7.8891   -0.2583 N   0  0  0  0  0  0  0  0  0  0  0  0
   -2.8872    4.4944    0.8132 C   0  0  0  0  0  0  0  0  0  0  0  0
   -3.4474    3.5618    1.7042 C   0  0  0  0  0  0  0  0  0  0  0  0
   -4.2879    3.5287    3.2193 S   0  0  0  0  0  0  0  0  0  0  0  0
   -4.1902    1.7792    3.2080 C   0  0  0  0  0  0  0  0  0  0  0  0
   -4.5645    0.7917    4.1276 C   0  0  0  0  0  0  0  0  0  0  0  0
   -5.2844    1.0628    5.3714 C   0  0  0  0  0  0  0  0  0  0  0  0
   -4.8995    2.1079    6.2055 C   0  0  0  0  0  0  0  0  0  0  0  0
   -5.5898    2.3390    7.3804 C   0  0  0  0  0  0  0  0  0  0  0  0
   -6.6550    1.5310    7.7379 C   0  0  0  0  0  0  0  0  0  0  0  0
   -7.0651    0.4944    6.9083 C   0  0  0  0  0  0  0  0  0  0  0  0
   -8.1756   -0.4330    7.3111 C   0  0  0  0  0  0  0  0  0  0  0  0
   -7.5933   -1.7208    7.8992 C   0  0  0  0  0  0  0  0  0  0  0  0
   -6.3842    0.2822    5.7210 C   0  0  0  0  0  0  0  0  0  0  0  0
   -4.2142   -0.4840    3.6779 C   0  0  0  0  0  0  0  0  0  0  0  0
   -3.5330   -0.4569    2.0596 S   0  0  0  0  0  0  0  0  0  0  0  0
   -3.5763    1.2662    2.0605 C   0  0  0  0  0  0  0  0  0  0  0  0
   -3.1554    2.2881    1.2043 C   0  0  0  0  0  0  0  0  0  0  0  0
   -2.4381    2.3921    0.0407 N   0  0  0  0  0  0  0  0  0  0  0  0
   -2.2174    3.7365   -0.1858 C   0  0  0  0  0  0  0  0  0  0  0  0
   -1.3590    4.3951   -1.0970 C   0  0  0  0  0  0  0  0  0  0  0  0
   -0.3552    3.9200   -1.9185 N   0  0  0  0  0  0  0  0  0  0  0  0
    0.2272    5.0050   -2.5173 C   0  0  0  0  0  0  0  0  0  0  0  0
    1.3431    5.2575   -3.3205 C   0  0  0  0  0  0  0  0  0  0  0  0
    2.5422    4.3029   -4.1034 S   0  0  0  0  0  0  0  0  0  0  0  0
    0.3522    2.6550   -1.8811 C   0  0  0  0  0  0  0  0  0  0  0  0
    0.2627    1.8877   -3.1979 C   0  0  0  0  0  0  0  0  0  0  0  0
   -2.4708    1.3372   -0.9493 C   0  0  0  0  0  0  0  0  0  0  0  0
   -3.9046    0.9301   -1.2865 C   0  0  0  0  0  0  0  0  0  0  0  0
   -4.1415   -1.6576    4.4776 C   0  0  0  0  0  0  0  0  0  0  0  0
   -4.0208   -1.4723    6.2149 S   0  0  0  0  0  0  0  0  0  0  0  0
   -3.8579   -3.1792    6.4546 C   0  0  0  0  0  0  0  0  0  0  0  0
   -3.8859   -3.8602    5.2614 C   0  0  0  0  0  0  0  0  0  0  0  0
   -3.6748   -5.3117    5.1547 C   0  0  0  0  0  0  0  0  0  0  0  0
   -3.3162   -6.0033    6.0936 O   0  0  0  0  0  0  0  0  0  0  0  0
   -3.9332   -5.8330    3.8136 C   0  0  0  0  0  0  0  0  0  0  0  0
   -4.0111   -7.1661    3.5002 C   0  0  0  0  0  0  0  0  0  0  0  0
   -3.8107   -8.3422    4.3845 C   0  0  0  0  0  0  0  0  0  0  0  0
   -2.3259   -8.7098    4.4628 C   0  0  0  0  0  0  0  0  0  0  0  0
   -4.3552   -7.3837    1.8178 S   0  0  0  0  0  0  0  0  0  0  0  0
   -4.3844   -5.6775    1.5258 C   0  0  0  0  0  0  0  0  0  0  0  0
   -4.6064   -5.1620    0.1500 C   0  0  0  0  0  0  0  0  0  0  0  0
   -3.2710   -4.8651   -0.5385 C   0  0  0  0  0  0  0  0  0  0  0  0
   -4.1491   -4.9791    2.6836 C   0  0  0  0  0  0  0  0  0  0  0  0
   -4.1096   -3.5200    2.7732 C   0  0  0  0  0  0  0  0  0  0  0  0
   -4.1378   -2.8030    1.7772 O   0  0  0  0  0  0  0  0  0  0  0  0
   -4.0408   -3.0017    4.1293 C   0  0  0  0  0  0  0  0  0  0  0  0
   -3.6847   -3.6987    7.8023 C   0  0  0  0  0  0  0  0  0  0  0  0
   -2.6540   -3.2021    8.5762 C   0  0  0  0  0  0  0  0  0  0  0  0
   -2.3866   -3.7227    9.8392 C   0  0  0  0  0  0  0  0  0  0  0  0
   -3.1559   -4.7493   10.3461 C   0  0  0  0  0  0  0  0  0  0  0  0
   -2.8326   -5.3153   11.6656 C   0  0  0  0  0  0  0  0  0  0  0  0
   -1.9045   -4.9177   12.3406 O   0  0  0  0  0  0  0  0  0  0  0  0
   -3.6522   -6.3362   12.1176 N   0  0  0  0  0  0  0  0  0  0  0  0
   -3.3198   -6.9242   13.4116 C   0  0  0  0  0  0  0  0  0  0  0  0
   -2.3121   -8.0557   13.2545 C   0  0  0  0  0  0  0  0  0  0  0  0
   -4.7351   -6.8703   11.4398 C   0  0  0  0  0  0  0  0  0  0  0  0
   -5.3848   -7.7769   11.9205 O   0  0  0  0  0  0  0  0  0  0  0  0
   -5.0490   -6.2774   10.1277 C   0  0  0  0  0  0  0  0  0  0  0  0
   -6.1324   -6.7444    9.4140 C   0  0  0  0  0  0  0  0  0  0  0  0
   -6.4533   -6.1816    8.1773 C   0  0  0  0  0  0  0  0  0  0  0  0
   -5.6792   -5.1836    7.6445 C   0  0  0  0  0  0  0  0  0  0  0  0
   -4.5414   -4.7070    8.3247 C   0  0  0  0  0  0  0  0  0  0  0  0
   -4.2457   -5.2451    9.6020 C   0  0  0  0  0  0  0  0  0  0  0  0
    8.1811    3.4991   -7.4153 H   0  0  0  0  0  0  0  0  0  0  0  0
    7.6437   -1.3245   -9.6828 H   0  0  0  0  0  0  0  0  0  0  0  0
    3.8870   -0.9821   -6.2979 H   0  0  0  0  0  0  0  0  0  0  0  0
    3.1467   -3.3286   -8.7038 H   0  0  0  0  0  0  0  0  0  0  0  0
    3.8693   -4.5767   -6.4642 H   0  0  0  0  0  0  0  0  0  0  0  0
    3.1864   -6.3907   -8.2392 H   0  0  0  0  0  0  0  0  0  0  0  0
    5.1636   -6.6097  -10.0000 H   0  0  0  0  0  0  0  0  0  0  0  0
    7.0636   -4.9323   -9.3093 H   0  0  0  0  0  0  0  0  0  0  0  0
    6.2737   -5.6057   -6.8752 H   0  0  0  0  0  0  0  0  0  0  0  0
    6.4052   -3.8338   -6.9464 H   0  0  0  0  0  0  0  0  0  0  0  0
    5.0820   -3.5501  -10.4331 H   0  0  0  0  0  0  0  0  0  0  0  0
    7.9022    5.7074   -5.8106 H   0  0  0  0  0  0  0  0  0  0  0  0
    7.7910    7.9379   -2.7181 H   0  0  0  0  0  0  0  0  0  0  0  0
    8.0325    6.4262   -3.6106 H   0  0  0  0  0  0  0  0  0  0  0  0
    8.4708    9.2759   -4.6756 H   0  0  0  0  0  0  0  0  0  0  0  0
    9.7565    8.1350   -4.2634 H   0  0  0  0  0  0  0  0  0  0  0  0
    8.6984    7.8246   -5.6448 H   0  0  0  0  0  0  0  0  0  0  0  0
    2.4847    9.2267   -2.9240 H   0  0  0  0  0  0  0  0  0  0  0  0
    3.1616   11.4639   -3.6817 H   0  0  0  0  0  0  0  0  0  0  0  0
    4.1822   11.7687   -5.9006 H   0  0  0  0  0  0  0  0  0  0  0  0
    4.6322   10.8897   -8.1082 H   0  0  0  0  0  0  0  0  0  0  0  0
    4.2321    9.2113   -8.5027 H   0  0  0  0  0  0  0  0  0  0  0  0
    6.6904   10.1129   -6.9267 H   0  0  0  0  0  0  0  0  0  0  0  0
    6.6904    9.5822   -8.6135 H   0  0  0  0  0  0  0  0  0  0  0  0
    6.2883    8.4429   -7.3223 H   0  0  0  0  0  0  0  0  0  0  0  0
    3.7469    7.5999   -6.6689 H   0  0  0  0  0  0  0  0  0  0  0  0
   -4.0531    2.7222    5.9395 H   0  0  0  0  0  0  0  0  0  0  0  0
   -5.2883    3.1494    8.0271 H   0  0  0  0  0  0  0  0  0  0  0  0
   -7.1773    1.7082    8.6670 H   0  0  0  0  0  0  0  0  0  0  0  0
   -8.7882   -0.6799    6.4412 H   0  0  0  0  0  0  0  0  0  0  0  0
   -8.8140    0.0480    8.0538 H   0  0  0  0  0  0  0  0  0  0  0  0
   -6.9724   -2.2274    7.1636 H   0  0  0  0  0  0  0  0  0  0  0  0
   -6.9750   -1.4969    8.7658 H   0  0  0  0  0  0  0  0  0  0  0  0
   -8.3881   -2.3970    8.2053 H   0  0  0  0  0  0  0  0  0  0  0  0
   -6.7060   -0.5059    5.0535 H   0  0  0  0  0  0  0  0  0  0  0  0
    1.4086    2.8763   -1.6895 H   0  0  0  0  0  0  0  0  0  0  0  0
   -0.0190    2.0629   -1.0453 H   0  0  0  0  0  0  0  0  0  0  0  0
    0.8758    0.9933   -3.1344 H   0  0  0  0  0  0  0  0  0  0  0  0
    0.6409    2.4983   -4.0131 H   0  0  0  0  0  0  0  0  0  0  0  0
   -0.7576    1.5987   -3.4383 H   0  0  0  0  0  0  0  0  0  0  0  0
   -1.9229    0.4679   -0.5711 H   0  0  0  0  0  0  0  0  0  0  0  0
   -1.9982    1.7079   -1.8542 H   0  0  0  0  0  0  0  0  0  0  0  0
   -4.3922    0.4680   -0.4335 H   0  0  0  0  0  0  0  0  0  0  0  0
   -3.8915    0.2118   -2.1018 H   0  0  0  0  0  0  0  0  0  0  0  0
   -4.4813    1.7999   -1.5948 H   0  0  0  0  0  0  0  0  0  0  0  0
   -4.3805   -9.1912    4.0014 H   0  0  0  0  0  0  0  0  0  0  0  0
   -4.1602   -8.0928    5.3885 H   0  0  0  0  0  0  0  0  0  0  0  0
   -2.1959   -9.5890    5.0874 H   0  0  0  0  0  0  0  0  0  0  0  0
   -1.7675   -7.8873    4.9016 H   0  0  0  0  0  0  0  0  0  0  0  0
   -1.9299   -8.9210    3.4716 H   0  0  0  0  0  0  0  0  0  0  0  0
   -5.1648   -5.8994   -0.4301 H   0  0  0  0  0  0  0  0  0  0  0  0
   -5.1809   -4.2354    0.2065 H   0  0  0  0  0  0  0  0  0  0  0  0
   -3.4473   -4.5272   -1.5560 H   0  0  0  0  0  0  0  0  0  0  0  0
   -2.7468   -4.0814    0.0017 H   0  0  0  0  0  0  0  0  0  0  0  0
   -2.6480   -5.7565   -0.5675 H   0  0  0  0  0  0  0  0  0  0  0  0
   -2.0243   -2.4202    8.1773 H   0  0  0  0  0  0  0  0  0  0  0  0
   -1.5654   -3.3456   10.4298 H   0  0  0  0  0  0  0  0  0  0  0  0
   -4.2478   -7.2983   13.8472 H   0  0  0  0  0  0  0  0  0  0  0  0
   -2.9035   -6.1299   14.0339 H   0  0  0  0  0  0  0  0  0  0  0  0
   -2.7227   -8.8385   12.6210 H   0  0  0  0  0  0  0  0  0  0  0  0
   -1.3943   -7.6799   12.8082 H   0  0  0  0  0  0  0  0  0  0  0  0
   -2.0805   -8.4781   14.2282 H   0  0  0  0  0  0  0  0  0  0  0  0
   -6.7280   -7.5405    9.8348 H   0  0  0  0  0  0  0  0  0  0  0  0
   -7.3184   -6.5397    7.6396 H   0  0  0  0  0  0  0  0  0  0  0  0
   -5.9416   -4.7522    6.6898 H   0  0  0  0  0  0  0  0  0  0  0  0
  1  2  2  0  0  0  0
  2  3  1  0  0  0  0
  3  4  2  0  0  0  0
  3  5  1  0  0  0  0
  5  6  2  0  0  0  0
  6  7  1  0  0  0  0
  7  8  2  0  0  0  0
  8  9  1  0  0  0  0
  9 10  2  0  0  0  0
 10 11  1  0  0  0  0
 11 12  2  0  0  0  0
 12 13  1  0  0  0  0
 13 14  3  0  0  0  0
 12 15  1  0  0  0  0
 15 16  3  0  0  0  0
  8 17  1  0  0  0  0
 17 18  1  0  0  0  0
 18 19  1  0  0  0  0
 19 20  2  0  0  0  0
 20 21  1  0  0  0  0
 21 22  1  0  0  0  0
 21 23  1  0  0  0  0
  1 24  1  0  0  0  0
 24 25  2  0  0  0  0
 25 26  1  0  0  0  0
 26 27  1  0  0  0  0
 27 28  1  0  0  0  0
 28 29  1  0  0  0  0
 26 30  2  0  0  0  0
 30 31  1  0  0  0  0
 30 32  1  0  0  0  0
 32 33  2  0  0  0  0
 33 34  1  0  0  0  0
 34 35  2  0  0  0  0
 35 36  1  0  0  0  0
 36 37  2  0  0  0  0
 37 38  1  0  0  0  0
 38 39  1  0  0  0  0
 39 40  1  0  0  0  0
 38 41  2  0  0  0  0
 33 42  1  0  0  0  0
 42 43  1  0  0  0  0
 43 44  1  0  0  0  0
 44 45  1  0  0  0  0
 45 46  1  0  0  0  0
 46 47  1  0  0  0  0
 47 48  2  0  0  0  0
 48 49  1  0  0  0  0
 49 50  1  0  0  0  0
 47 51  1  0  0  0  0
 51 52  1  0  0  0  0
 52 53  1  0  0  0  0
 53 54  1  0  0  0  0
 54 55  1  0  0  0  0
 55 56  1  0  0  0  0
 56 57  2  0  0  0  0
 57 58  1  0  0  0  0
 58 59  2  0  0  0  0
 59 60  1  0  0  0  0
 60 61  1  0  0  0  0
 61 62  1  0  0  0  0
 60 63  2  0  0  0  0
 55 64  2  0  0  0  0
 64 65  1  0  0  0  0
 65 66  1  0  0  0  0
 66 67  1  0  0  0  0
 67 68  1  0  0  0  0
 68 69  1  0  0  0  0
 69 70  1  0  0  0  0
 70 71  1  0  0  0  0
 71 72  1  0  0  0  0
 72 73  1  0  0  0  0
 73 74  1  0  0  0  0
 71 75  1  0  0  0  0
 75 76  1  0  0  0  0
 68 77  1  0  0  0  0
 77 78  1  0  0  0  0
 64 79  1  0  0  0  0
 79 80  1  0  0  0  0
 80 81  1  0  0  0  0
 81 82  2  0  0  0  0
 82 83  1  0  0  0  0
 83 84  2  0  0  0  0
 83 85  1  0  0  0  0
 85 86  2  0  0  0  0
 86 87  1  0  0  0  0
 87 88  1  0  0  0  0
 86 89  1  0  0  0  0
 89 90  1  0  0  0  0
 90 91  1  0  0  0  0
 91 92  1  0  0  0  0
 90 93  2  0  0  0  0
 93 94  1  0  0  0  0
 94 95  2  0  0  0  0
 94 96  1  0  0  0  0
 81 97  1  0  0  0  0
 97 98  2  0  0  0  0
 98 99  1  0  0  0  0
 99100  2  0  0  0  0
100101  1  0  0  0  0
101102  2  0  0  0  0
101103  1  0  0  0  0
103104  1  0  0  0  0
104105  1  0  0  0  0
103106  1  0  0  0  0
106107  2  0  0  0  0
106108  1  0  0  0  0
108109  1  0  0  0  0
109110  2  0  0  0  0
110111  1  0  0  0  0
111112  2  0  0  0  0
112113  1  0  0  0  0
 11  2  1  0  0  0  0
 23 17  1  0  0  0  0
 31 24  1  0  0  0  0
 74 32  1  0  0  0  0
 96 79  2  0  0  0  0
112 97  1  0  0  0  0
 10  5  1  0  0  0  0
 22 18  1  0  0  0  0
 41 34  1  0  0  0  0
 73 42  2  0  0  0  0
 96 82  1  0  0  0  0
113100  1  0  0  0  0
 23  7  1  0  0  0  0
 72 44  2  0  0  0  0
 93 85  1  0  0  0  0
113108  2  0  0  0  0
 70 45  2  0  0  0  0
 50 46  2  0  0  0  0
 69 51  2  0  0  0  0
 67 52  2  0  0  0  0
 66 54  2  0  0  0  0
 63 56  1  0  0  0  0
  1114  1  0  0  0  0
  6115  1  0  0  0  0
  9116  1  0  0  0  0
 17117  1  0  0  0  0
 18118  1  0  0  0  0
 19119  1  0  0  0  0
 20120  1  0  0  0  0
 21121  1  0  0  0  0
 22122  1  0  0  0  0
 22123  1  0  0  0  0
 23124  1  0  0  0  0
 25125  1  0  0  0  0
 28126  1  0  0  0  0
 28127  1  0  0  0  0
 29128  1  0  0  0  0
 29129  1  0  0  0  0
 29130  1  0  0  0  0
 35131  1  0  0  0  0
 36132  1  0  0  0  0
 37133  1  0  0  0  0
 39134  1  0  0  0  0
 39135  1  0  0  0  0
 40136  1  0  0  0  0
 40137  1  0  0  0  0
 40138  1  0  0  0  0
 41139  1  0  0  0  0
 57140  1  0  0  0  0
 58141  1  0  0  0  0
 59142  1  0  0  0  0
 61143  1  0  0  0  0
 61144  1  0  0  0  0
 62145  1  0  0  0  0
 62146  1  0  0  0  0
 62147  1  0  0  0  0
 63148  1  0  0  0  0
 75149  1  0  0  0  0
 75150  1  0  0  0  0
 76151  1  0  0  0  0
 76152  1  0  0  0  0
 76153  1  0  0  0  0
 77154  1  0  0  0  0
 77155  1  0  0  0  0
 78156  1  0  0  0  0
 78157  1  0  0  0  0
 78158  1  0  0  0  0
 87159  1  0  0  0  0
 87160  1  0  0  0  0
 88161  1  0  0  0  0
 88162  1  0  0  0  0
 88163  1  0  0  0  0
 91164  1  0  0  0  0
 91165  1  0  0  0  0
 92166  1  0  0  0  0
 92167  1  0  0  0  0
 92168  1  0  0  0  0
 98169  1  0  0  0  0
 99170  1  0  0  0  0
104171  1  0  0  0  0
104172  1  0  0  0  0
105173  1  0  0  0  0
105174  1  0  0  0  0
105175  1  0  0  0  0
109176  1  0  0  0  0
110177  1  0  0  0  0
111178  1  0  0  0  0
M  END
