180

C         -0.87070        8.07070       -3.82630
C          0.44420        8.24670       -3.48680
C          1.19340        7.44400       -2.51240
O          0.74330        6.68310       -1.67320
C          2.61750        7.72950       -2.75240
C          3.70900        7.10640       -2.15290
C          4.92580        7.54730       -2.61490
C          5.04810        8.53730       -3.59890
C          3.97830        9.16390       -4.19400
C          2.73030        8.72960       -3.73940
C          1.38550        9.12600       -4.15450
C          1.08420       10.16640       -4.99430
C          2.04300       11.00830       -5.59490
N          2.76710       11.73060       -6.11700
C         -0.21940       10.56890       -5.35200
N         -1.24710       10.96040       -5.68450
C          6.55510        8.47390       -3.58760
C          7.32160        9.59860       -2.84930
C          6.39150       10.12240       -1.78320
C          6.27540        9.18580       -0.85140
C          7.12480        8.01140       -1.27050
C          8.26790        8.74610       -1.98870
C          6.41830        7.37120       -2.49080
C         -1.80220        7.13440       -3.34400
C         -3.00520        6.87520       -3.99420
C         -3.72360        5.81280       -3.45250
S         -5.25760        5.19830       -4.05140
C         -6.05390        6.73720       -4.65200
C         -6.26700        7.74820       -3.54330
C         -3.09780        5.27740       -2.33330
S         -1.60420        6.06350       -1.98040
C         -3.43250        4.08450       -1.59380
C         -3.34530        3.98670       -0.22470
C         -3.44430        2.75320        0.44910
C         -3.54100        1.52360       -0.24370
C         -3.75150        1.62870       -1.64120
C         -3.71470        2.88840       -2.30040
N         -3.88690        2.66500       -3.60690
N         -4.03630        1.37160       -3.69400
C         -4.33130        0.73950       -4.94740
C         -5.75450        1.07640       -5.37980
N         -3.95870        0.69550       -2.57800
C         -3.29180        0.28900        0.38360
C         -2.97240        0.19230        1.72110
C         -3.15870        1.37320        2.48700
N         -3.17660        1.57460        3.80830
N         -3.36950        2.85900        3.93460
C         -3.49050        3.47600        5.22340
C         -4.94380        3.83940        5.50950
N         -3.47790        3.54690        2.82940
C         -3.36630        2.63380        1.86030
C         -2.35380       -0.99070        2.25630
C         -1.32310       -1.06780        3.18170
N         -0.70180       -0.01480        3.83640
C         -0.32390       -0.22820        5.17080
C          0.90740        0.20770        5.65180
C          1.26370       -0.03710        6.96330
C          0.41690       -0.72590        7.82320
C          0.82080       -1.02250        9.23480
C         -0.81080       -1.15710        7.33450
C         -1.18370       -0.91030        6.02920
C         -0.40600        1.18370        3.18180
C         -0.19240        1.22290        1.80530
C         -0.00530        2.43030        1.15910
C          0.00380        3.62860        1.85930
C          0.17140        4.94610        1.17090
C         -0.15120        3.57640        3.24110
C         -0.35430        2.38080        3.89680
C         -0.85780       -2.40090        3.30310
S          0.36270       -3.14040        4.26750
C          0.17120       -4.66050        3.37750
C         -0.89630       -4.60470        2.45740
N         -1.40810       -5.64110        1.73300
C         -2.11990       -5.36070        0.54350
C         -3.35950       -5.94810        0.32290
C         -4.06990       -5.64550       -0.82370
C         -3.56400       -4.76040       -1.76690
C         -4.34970       -4.38900       -2.98680
C         -2.30680       -4.20600       -1.55010
C         -1.58590       -4.50030       -0.41110
C         -1.23830       -6.98520        2.09130
C         -0.96330       -7.93280        1.10810
C         -0.74430       -9.25300        1.45540
C         -0.80330       -9.66570        2.77930
C         -0.51510      -11.08210        3.16690
C         -1.12730       -8.72060        3.75040
C         -1.34110       -7.39960        3.41850
C         -1.45230       -3.30310        2.43320
S         -2.69230       -2.53660        1.49910
C          1.07900       -5.68030        3.67740
C          1.48510       -6.67060        2.80940
C          1.47560       -6.52080        1.34630
O          1.06630       -5.57340        0.70000
C          2.21040       -7.68970        0.81930
C          2.49750       -7.96730       -0.51340
C          3.22460       -9.11930       -0.70060
C          3.64330       -9.93080        0.36000
C          3.36400       -9.66820        1.68120
C          2.62130       -8.50450        1.89120
C          2.14380       -7.90270        3.13510
C          2.17870       -8.48300        4.38030
C          1.59130       -7.91290        5.52640
N          1.11210       -7.52120        6.49450
C          2.72840       -9.74810        4.65220
N          3.14530      -10.78210        4.93260
C          4.35640      -10.89690       -0.55470
C          5.89310      -10.77310       -0.62430
C          6.25570      -11.47850       -1.91120
C          5.85390      -10.71320       -2.91790
C          5.21340       -9.47760       -2.32800
C          6.06900       -9.31410       -1.06510
C          3.88370       -9.99410       -1.73900
H         -1.24900        8.66330       -4.65130
H          3.56920        6.34200       -1.40460
H          4.08950        9.91570       -4.95750
H          7.02650        8.20010       -4.52950
H          7.77080       10.34210       -3.50210
H          5.88410       11.06720       -1.84380
H          5.65110        9.19130        0.02290
H          7.39530        7.30940       -0.48600
H          8.90880        8.08620       -2.57190
H          8.87530        9.34440       -1.31130
H          6.80040        6.37740       -2.71700
H         -3.30690        7.43250       -4.86330
H         -7.00580        6.39250       -5.05500
H         -5.45710        7.14420       -5.46690
H         -6.79630        8.61620       -3.93120
H         -6.85550        7.30950       -2.74070
H         -5.31540        8.07970       -3.13260
H         -3.16720        4.86940        0.36980
H         -4.20280       -0.33440       -4.80310
H         -3.61820        1.10590       -5.69010
H         -5.96170        0.63940       -6.35230
H         -6.47080        0.68830       -4.65970
H         -5.86960        2.15590       -5.44120
H         -3.24850       -0.58790       -0.24560
H         -2.86900        4.37460        5.22800
H         -3.11530        2.75780        5.95440
H         -5.31280        4.51730        4.74400
H         -5.02100        4.32470        6.47820
H         -5.56280        2.94550        5.51510
H          1.58340        0.72990        4.99090
H          2.22460        0.30350        7.32180
H          1.19780       -2.04320        9.30580
H         -0.02970       -0.93420        9.90780
H          1.60580       -0.34740        9.56660
H         -1.48580       -1.69020        7.98840
H         -2.14670       -1.23490        5.66320
H         -0.18740        0.30480        1.23670
H          0.13180        2.43920        0.08730
H          1.06350        5.45550        1.53370
H         -0.68100        5.59100        1.37910
H          0.25560        4.82980        0.09480
H         -0.13220        4.49570        3.80970
H         -0.50420        2.36550        4.96640
H         -3.76500       -6.63090        1.05540
H         -5.03850       -6.09780       -0.98030
H         -5.21150       -5.03960       -3.11100
H         -3.72860       -4.45240       -3.87860
H         -4.70290       -3.36150       -2.89820
H         -1.88950       -3.53270       -2.28470
H         -0.60090       -4.09020       -0.25370
H         -0.90720       -7.62390        0.07500
H         -0.50800       -9.96950        0.68190
H          0.45460      -11.14740        3.66180
H         -0.49510      -11.72880        2.29350
H         -1.26510      -11.45040        3.86430
H         -1.20330       -9.02470        4.78410
H         -1.58270       -6.68280        4.18890
H          1.53860       -5.62850        4.65750
H          2.16070       -7.31270       -1.30230
H          3.69840      -10.29660        2.49010
H          4.01460      -11.92970       -0.51790
H          6.41670      -11.09200        0.27290
H          6.70170      -12.45480       -1.95540
H          5.89710      -10.92250       -3.97080
H          5.11770       -8.61570       -2.98310
H          7.10580       -9.07650       -1.29800
H          5.67870       -8.58620       -0.35650
H          3.22400      -10.42500       -2.49020
