192

C          4.41750       -4.64210      -10.35650
C          3.70610       -3.74070      -11.10540
C          2.56730       -2.95020      -10.62900
O          2.06550       -2.97050       -9.51700
C          2.13980       -2.11320      -11.76180
C          1.09610       -1.19150      -11.77730
C          0.93910       -0.54540      -12.98010
C          1.75680       -0.80250      -14.08810
C          2.78650       -1.71370      -14.08710
C          2.96860       -2.37780      -12.87120
C          3.95310       -3.39000      -12.48910
C          4.93050       -3.89370      -13.31020
C          5.88780       -4.86540      -12.95330
N          6.70380       -5.64890      -12.74910
C          5.12790       -3.50620      -14.65190
N          5.35530       -3.24310      -15.74650
C          1.04530        0.21060      -14.94910
C          1.74410        1.57280      -15.18420
C          2.64130        1.80610      -13.99410
C          1.86730        2.05030      -12.94510
C          0.43240        1.98620      -13.40700
C          0.58510        2.52180      -14.83960
C          0.13410        0.49760      -13.71420
C          4.26440       -5.02100       -9.01480
C          5.12360       -5.93230       -8.40480
C          4.85400       -6.16930       -7.06360
S          5.83620       -7.15960       -5.99400
C          7.48920       -7.05310       -6.77660
C          8.04270       -5.64220       -6.78540
C          3.73280       -5.45850       -6.62380
S          3.06150       -4.46520       -7.88040
C          3.15350       -5.41100       -5.32650
C          3.03060       -6.39580       -4.35780
C          3.31300       -7.81270       -4.56710
C          3.87230       -8.58420       -3.55130
C          4.13200       -9.92290       -3.76790
C          3.84260      -10.50450       -4.99040
C          3.26730       -9.75580       -6.00860
C          3.00280      -10.35260       -7.36090
C          4.12810       -9.97500       -8.32650
C          2.99610       -8.41610       -5.78130
C          2.47090       -5.87360       -3.17390
S          2.08330       -6.59400       -1.62880
C          1.47190       -5.06630       -1.09390
C          0.87450       -4.49490        0.04150
C          0.45640       -5.07280        1.25970
C         -0.23060       -4.25410        2.21740
N         -0.60840       -4.93590        3.28750
S         -0.13700       -6.47480        3.10690
N          0.56800       -6.33070        1.65680
C         -0.36280       -2.87230        1.96110
C         -0.83270       -1.82490        2.76860
S         -1.52650       -1.58380        4.33600
C         -1.45900        0.14480        4.07820
C         -1.84520        1.24630        4.86780
C         -2.50100        1.12400        6.16890
C         -2.08910        0.14700        7.07050
C         -2.69390        0.05030        8.30870
C         -3.70330        0.92500        8.66480
C         -4.14540        1.89140        7.76840
C         -5.27410        2.81430        8.13020
C         -6.62160        2.17140        7.79700
C         -3.55410        1.96610        6.51870
C         -1.59280        2.43950        4.20860
S         -0.92020        2.20120        2.60810
C         -0.93570        0.49200        2.82940
C         -0.58270       -0.63580        2.07880
N          0.00100       -0.90960        0.87170
C          0.13020       -2.28090        0.76170
C          0.64550       -3.12260       -0.25830
N          1.06320       -2.87990       -1.56100
C          1.55860       -4.05990       -2.05710
C          2.12680       -4.52180       -3.25030
S          2.50730       -3.86180       -4.79960
C          0.56210       -1.91130       -2.51410
C         -0.89550       -2.19930       -2.86840
C          0.61010        0.15950        0.11570
C         -0.41730        0.93860       -0.70490
C         -1.77090        3.78150        4.69930
C         -2.23140        4.81720        3.89740
F         -2.46880        4.59630        2.59110
C         -2.51570        6.09040        4.39900
F         -2.91960        7.02660        3.53040
C         -2.32340        6.40930        5.73390
C         -1.72320        5.40920        6.55170
N         -1.38110        5.72950        7.80620
C         -0.84840        4.81790        8.58790
C         -0.37640        5.30350        9.88600
C          0.79790        4.82860       10.47100
C          1.23720        5.39100       11.65190
C          0.53830        6.41870       12.26500
C         -0.63070        6.90520       11.68440
O         -1.41780        7.88910       12.18910
C         -0.91150        8.74960       13.19140
C          0.16140        9.69250       12.65660
C         -1.07510        6.33790       10.49260
C         -0.69670        3.47470        8.11790
N         -0.94870        3.17690        6.86510
C         -1.46400        4.11070        6.05300
C         -0.31620        2.35240        8.97890
C          0.53190        1.35960        8.49250
C          0.83560        0.27660        9.29030
C          0.28670        0.14620       10.55610
C         -0.58250        1.12060       11.03910
O         -1.18920        1.11110       12.25540
C         -1.10390       -0.03550       13.07850
C         -1.98300       -1.18030       12.58350
C         -0.87020        2.22830       10.24360
C         -2.60900        7.68400        6.33380
C         -3.69650        8.45370        6.08840
C         -4.90240        8.00770        5.33620
O         -5.15500        6.89400        4.94010
C         -5.79270        9.18760        5.29320
C         -7.01040        9.31350        4.65570
C         -7.64980       10.53870        4.76540
F         -8.83330       10.71370        4.15550
C         -7.11070       11.59670        5.48380
C         -5.89230       11.45300        6.12810
C         -5.22460       10.23860        6.03520
C         -3.95070        9.79420        6.59520
C         -3.15800       10.51510        7.44550
C         -3.46560       11.81570        7.90160
N         -3.65390       12.87110        8.31140
C         -1.94110       10.08140        8.01780
N         -0.94920        9.82820        8.53740
H          5.23820       -5.15020      -10.84790
H          0.48940       -1.02690      -10.90060
H          3.40340       -1.89930      -14.95020
H          0.57550       -0.17550      -15.85140
H          2.20630        1.67990      -16.16180
H          3.71140        1.71570      -14.02440
H          2.16150        2.20430      -11.92340
H         -0.30020        2.47080      -12.76680
H          0.87690        3.57060      -14.86820
H         -0.29910        2.36890      -15.45670
H         -0.93160        0.29900      -13.81000
H          5.92830       -6.38990       -8.95230
H          8.09890       -7.70750       -6.15370
H          7.43070       -7.48100       -7.77610
H          7.41650       -4.98160       -7.38160
H          8.09070       -5.25010       -5.77210
H          9.04520       -5.64230       -7.20840
H          4.12530       -8.12730       -2.60720
H          4.57230      -10.51640       -2.98050
H          4.06220      -11.54960       -5.15520
H          2.93970      -11.43950       -7.28440
H          2.05360       -9.98050       -7.75250
H          4.18590       -8.89390       -8.43380
H          3.95490      -10.41290       -9.30680
H          5.08330      -10.33220       -7.94800
H          2.52530       -7.83030       -6.55820
H         -1.27770       -0.51550        6.81390
H         -2.36280       -0.70450        9.00620
H         -4.15420        0.86080        9.64450
H         -5.23590        3.04010        9.19820
H         -5.17650        3.75220        7.57880
H         -6.74120        1.23820        8.34310
H         -6.68270        1.95550        6.73290
H         -7.43780        2.83870        8.06350
H         -3.91070        2.69880        5.80790
H          1.18350       -2.00260       -3.40870
H          0.66250       -0.89770       -2.14070
H         -0.99080       -3.19690       -3.29080
H         -1.24880       -1.47810       -3.60030
H         -1.52310       -2.14100       -1.98110
H          1.40910       -0.25440       -0.50070
H          1.07350        0.84600        0.83330
H         -1.09670        1.46690       -0.04140
H          0.08670        1.67120       -1.32930
H         -1.00600        0.27880       -1.33640
H          1.37140        4.05110        9.99130
H          2.14840        5.03160       12.10710
H          0.91620        6.82940       13.18800
H         -0.53970        8.17550       14.04970
H         -1.78460        9.32230       13.51580
H          0.44620       10.40210       13.42850
H         -0.22480       10.23520       11.79740
H          1.04230        9.13870       12.34110
H         -1.97460        6.71980       10.03830
H          0.94220        1.45680        7.50020
H          1.50240       -0.49100        8.92600
H          0.54400       -0.71750       11.14890
H         -1.45800        0.30860       14.05420
H         -0.06190       -0.36070       13.18740
H         -1.93710       -2.00830       13.28540
H         -3.01330       -0.84330       12.50140
H         -1.65660       -1.52790       11.60640
H         -1.55110        2.97110       10.62790
H         -1.88740        7.98370        7.08310
H         -7.43930        8.49960        4.09330
H         -7.65300       12.52770        5.53330
H         -5.48510       12.28100        6.68450
