
  xtb     02172221373D
 energy: -355.388982856432 gnorm: 0.000517048723 xtb: 6.4.1 (unknown)
205229  0     0  0            999 V2000
   11.6553    4.4231   -2.2054 C   0  0  0  0  0  0  0  0  0  0  0  0
   12.6570    3.5021   -2.1295 C   0  0  0  0  0  0  0  0  0  0  0  0
   12.6099    2.0638   -2.4990 C   0  0  0  0  0  0  0  0  0  0  0  0
   11.8041    1.4828   -3.1948 O   0  0  0  0  0  0  0  0  0  0  0  0
   13.7555    1.4411   -1.8097 C   0  0  0  0  0  0  0  0  0  0  0  0
   14.0547    0.0812   -1.7620 C   0  0  0  0  0  0  0  0  0  0  0  0
   15.1734   -0.2196   -1.0238 C   0  0  0  0  0  0  0  0  0  0  0  0
   15.9380    0.7598   -0.3743 C   0  0  0  0  0  0  0  0  0  0  0  0
   15.6555    2.1040   -0.4147 C   0  0  0  0  0  0  0  0  0  0  0  0
   14.5236    2.4320   -1.1673 C   0  0  0  0  0  0  0  0  0  0  0  0
   13.9146    3.7303   -1.4314 C   0  0  0  0  0  0  0  0  0  0  0  0
   14.4705    4.9471   -1.1411 C   0  0  0  0  0  0  0  0  0  0  0  0
   13.9188    6.1995   -1.4893 C   0  0  0  0  0  0  0  0  0  0  0  0
   13.5528    7.2562   -1.7498 N   0  0  0  0  0  0  0  0  0  0  0  0
   15.7116    5.1187   -0.4920 C   0  0  0  0  0  0  0  0  0  0  0  0
   16.7117    5.3306    0.0303 N   0  0  0  0  0  0  0  0  0  0  0  0
   16.9078   -0.2525    0.1812 C   0  0  0  0  0  0  0  0  0  0  0  0
   18.2891   -0.3798   -0.5073 C   0  0  0  0  0  0  0  0  0  0  0  0
   18.0976    0.0614   -1.9373 C   0  0  0  0  0  0  0  0  0  0  0  0
   17.3759   -0.8651   -2.5536 C   0  0  0  0  0  0  0  0  0  0  0  0
   17.0660   -1.9495   -1.5514 C   0  0  0  0  0  0  0  0  0  0  0  0
   18.3442   -1.9039   -0.6989 C   0  0  0  0  0  0  0  0  0  0  0  0
   16.0578   -1.3430   -0.5442 C   0  0  0  0  0  0  0  0  0  0  0  0
   10.3766    4.3255   -2.8066 C   0  0  0  0  0  0  0  0  0  0  0  0
    9.8818    3.4873   -3.7720 C   0  0  0  0  0  0  0  0  0  0  0  0
    8.5196    3.7024   -4.0612 C   0  0  0  0  0  0  0  0  0  0  0  0
    7.7038    2.9627   -4.9425 C   0  0  0  0  0  0  0  0  0  0  0  0
    8.2549    1.9796   -5.8540 C   0  0  0  0  0  0  0  0  0  0  0  0
    7.5285    0.4110   -6.0418 S   0  0  0  0  0  0  0  0  0  0  0  0
    8.6515   -0.0502   -7.2731 C   0  0  0  0  0  0  0  0  0  0  0  0
    8.5264   -1.3644   -7.9604 C   0  0  0  0  0  0  0  0  0  0  0  0
    7.3451   -1.3531   -8.9335 C   0  0  0  0  0  0  0  0  0  0  0  0
    9.5310    0.9624   -7.5158 C   0  0  0  0  0  0  0  0  0  0  0  0
   10.7856    0.8832   -8.6833 Cl  0  0  0  0  0  0  0  0  0  0  0  0
    9.3147    2.1123   -6.7107 C   0  0  0  0  0  0  0  0  0  0  0  0
   10.2403    3.5450   -6.8948 Cl  0  0  0  0  0  0  0  0  0  0  0  0
    6.3432    3.2201   -4.8900 C   0  0  0  0  0  0  0  0  0  0  0  0
    5.7690    4.2225   -4.0678 C   0  0  0  0  0  0  0  0  0  0  0  0
    6.5908    5.0164   -3.2443 C   0  0  0  0  0  0  0  0  0  0  0  0
    6.0367    6.0440   -2.3843 C   0  0  0  0  0  0  0  0  0  0  0  0
    4.9370    5.9741   -1.5761 C   0  0  0  0  0  0  0  0  0  0  0  0
    4.6926    7.1668   -0.8675 C   0  0  0  0  0  0  0  0  0  0  0  0
    5.5973    8.1492   -1.1318 C   0  0  0  0  0  0  0  0  0  0  0  0
    5.6258    9.5462   -0.6155 C   0  0  0  0  0  0  0  0  0  0  0  0
    5.1021   10.5323   -1.6624 C   0  0  0  0  0  0  0  0  0  0  0  0
    6.7868    7.6104   -2.2693 S   0  0  0  0  0  0  0  0  0  0  0  0
    7.9521    4.7313   -3.2656 C   0  0  0  0  0  0  0  0  0  0  0  0
    9.1550    5.4694   -2.2537 S   0  0  0  0  0  0  0  0  0  0  0  0
    4.3621    4.2641   -4.2076 C   0  0  0  0  0  0  0  0  0  0  0  0
    3.8637    3.3289   -5.0713 C   0  0  0  0  0  0  0  0  0  0  0  0
    5.1336    2.3766   -5.8166 S   0  0  0  0  0  0  0  0  0  0  0  0
    2.4954    2.9751   -5.2446 C   0  0  0  0  0  0  0  0  0  0  0  0
    1.9376    2.0551   -6.1138 C   0  0  0  0  0  0  0  0  0  0  0  0
    2.6294    1.4666   -7.2621 C   0  0  0  0  0  0  0  0  0  0  0  0
    3.2856    2.2810   -8.1827 C   0  0  0  0  0  0  0  0  0  0  0  0
    3.9277    1.7141   -9.2661 C   0  0  0  0  0  0  0  0  0  0  0  0
    3.9160    0.3415   -9.4442 C   0  0  0  0  0  0  0  0  0  0  0  0
    3.2542   -0.4831   -8.5436 C   0  0  0  0  0  0  0  0  0  0  0  0
    3.1813   -1.9663   -8.7643 C   0  0  0  0  0  0  0  0  0  0  0  0
    1.8751   -2.3300   -9.4736 C   0  0  0  0  0  0  0  0  0  0  0  0
    2.6103    0.0910   -7.4576 C   0  0  0  0  0  0  0  0  0  0  0  0
    0.6084    1.7541   -5.7562 C   0  0  0  0  0  0  0  0  0  0  0  0
   -0.5580    0.6088   -6.3752 S   0  0  0  0  0  0  0  0  0  0  0  0
   -1.6401    1.0501   -5.0964 C   0  0  0  0  0  0  0  0  0  0  0  0
   -2.8792    0.6537   -4.5600 C   0  0  0  0  0  0  0  0  0  0  0  0
   -3.8511   -0.2770   -4.9886 C   0  0  0  0  0  0  0  0  0  0  0  0
   -5.0225   -0.4862   -4.1811 C   0  0  0  0  0  0  0  0  0  0  0  0
   -5.8571   -1.3600   -4.7207 N   0  0  0  0  0  0  0  0  0  0  0  0
   -5.2276   -1.8779   -6.1194 S   0  0  0  0  0  0  0  0  0  0  0  0
   -3.8613   -1.0101   -6.0906 N   0  0  0  0  0  0  0  0  0  0  0  0
   -5.1124    0.1526   -2.9237 C   0  0  0  0  0  0  0  0  0  0  0  0
   -5.9671   -0.0576   -1.8287 C   0  0  0  0  0  0  0  0  0  0  0  0
   -7.3206   -1.0475   -1.3960 S   0  0  0  0  0  0  0  0  0  0  0  0
   -7.1953   -0.4602    0.2458 C   0  0  0  0  0  0  0  0  0  0  0  0
   -7.8844   -0.7905    1.4306 C   0  0  0  0  0  0  0  0  0  0  0  0
   -8.8998   -1.8474    1.4828 C   0  0  0  0  0  0  0  0  0  0  0  0
   -9.9373   -1.8670    0.5574 C   0  0  0  0  0  0  0  0  0  0  0  0
  -10.8913   -2.8673    0.6159 C   0  0  0  0  0  0  0  0  0  0  0  0
  -10.8149   -3.8495    1.5856 C   0  0  0  0  0  0  0  0  0  0  0  0
   -9.7704   -3.8595    2.5046 C   0  0  0  0  0  0  0  0  0  0  0  0
   -9.6684   -4.9551    3.5260 C   0  0  0  0  0  0  0  0  0  0  0  0
   -9.0808   -6.2227    2.9026 C   0  0  0  0  0  0  0  0  0  0  0  0
   -8.8141   -2.8601    2.4361 C   0  0  0  0  0  0  0  0  0  0  0  0
   -7.4023   -0.0747    2.5121 C   0  0  0  0  0  0  0  0  0  0  0  0
   -6.0657    0.9773    2.0671 S   0  0  0  0  0  0  0  0  0  0  0  0
   -6.1691    0.4699    0.4211 C   0  0  0  0  0  0  0  0  0  0  0  0
   -5.4654    0.7012   -0.7668 C   0  0  0  0  0  0  0  0  0  0  0  0
   -4.3530    1.3922   -1.1689 N   0  0  0  0  0  0  0  0  0  0  0  0
   -4.1184    1.0736   -2.4931 C   0  0  0  0  0  0  0  0  0  0  0  0
   -3.0690    1.4193   -3.3782 C   0  0  0  0  0  0  0  0  0  0  0  0
   -2.0170    2.3108   -3.2443 N   0  0  0  0  0  0  0  0  0  0  0  0
   -1.1395    2.0580   -4.2684 C   0  0  0  0  0  0  0  0  0  0  0  0
    0.1455    2.4611   -4.6454 C   0  0  0  0  0  0  0  0  0  0  0  0
    1.3524    3.5289   -4.0249 S   0  0  0  0  0  0  0  0  0  0  0  0
   -2.0450    3.6201   -2.6276 C   0  0  0  0  0  0  0  0  0  0  0  0
   -2.1816    4.7268   -3.6732 C   0  0  0  0  0  0  0  0  0  0  0  0
   -3.4720    1.9822   -0.1859 C   0  0  0  0  0  0  0  0  0  0  0  0
   -4.0112    3.3083    0.3495 C   0  0  0  0  0  0  0  0  0  0  0  0
   -7.8436   -0.0872    3.8825 C   0  0  0  0  0  0  0  0  0  0  0  0
   -9.1577   -0.4633    4.2100 C   0  0  0  0  0  0  0  0  0  0  0  0
   -9.5521   -0.6226    5.5186 C   0  0  0  0  0  0  0  0  0  0  0  0
   -8.6324   -0.3864    6.5381 C   0  0  0  0  0  0  0  0  0  0  0  0
   -8.7301   -0.4331    7.9651 C   0  0  0  0  0  0  0  0  0  0  0  0
   -7.4854    0.2253    8.4845 C   0  0  0  0  0  0  0  0  0  0  0  0
   -7.1090    0.3902    9.6175 O   0  0  0  0  0  0  0  0  0  0  0  0
   -6.7111    0.5013    7.3699 N   0  0  0  0  0  0  0  0  0  0  0  0
   -5.4182    1.1235    7.4455 C   0  0  0  0  0  0  0  0  0  0  0  0
   -7.3734    0.1696    6.2099 C   0  0  0  0  0  0  0  0  0  0  0  0
   -6.9616    0.2987    4.9041 C   0  0  0  0  0  0  0  0  0  0  0  0
   -9.6368   -1.1080    8.7362 C   0  0  0  0  0  0  0  0  0  0  0  0
   -9.9915   -0.7850   10.1507 C   0  0  0  0  0  0  0  0  0  0  0  0
   -9.6593    0.1498   10.8367 O   0  0  0  0  0  0  0  0  0  0  0  0
  -10.9377   -1.7230   10.5338 N   0  0  0  0  0  0  0  0  0  0  0  0
  -11.5328   -1.7463   11.8411 C   0  0  0  0  0  0  0  0  0  0  0  0
  -11.1793   -2.6241    9.5236 C   0  0  0  0  0  0  0  0  0  0  0  0
  -11.9644   -3.7523    9.5369 C   0  0  0  0  0  0  0  0  0  0  0  0
  -12.0048   -4.5708    8.3882 C   0  0  0  0  0  0  0  0  0  0  0  0
  -11.2027   -4.2351    7.2851 C   0  0  0  0  0  0  0  0  0  0  0  0
  -10.4148   -3.1049    7.2794 C   0  0  0  0  0  0  0  0  0  0  0  0
  -10.4230   -2.2566    8.3818 C   0  0  0  0  0  0  0  0  0  0  0  0
  -12.8200   -5.7469    8.4617 C   0  0  0  0  0  0  0  0  0  0  0  0
  -13.1692   -6.7027    7.5595 C   0  0  0  0  0  0  0  0  0  0  0  0
  -14.1236   -8.0689    8.1507 S   0  0  0  0  0  0  0  0  0  0  0  0
  -14.1458   -8.8182    6.5753 C   0  0  0  0  0  0  0  0  0  0  0  0
  -14.7611  -10.0305    6.3907 C   0  0  0  0  0  0  0  0  0  0  0  0
  -15.3836  -10.6610    7.4890 C   0  0  0  0  0  0  0  0  0  0  0  0
  -15.8951  -11.1796    8.3749 N   0  0  0  0  0  0  0  0  0  0  0  0
  -14.8387  -10.7614    5.1930 C   0  0  0  0  0  0  0  0  0  0  0  0
  -14.9312  -11.4129    4.2515 N   0  0  0  0  0  0  0  0  0  0  0  0
  -13.5091   -8.0416    5.6609 N   0  0  0  0  0  0  0  0  0  0  0  0
  -13.3485   -8.3782    4.2573 C   0  0  0  0  0  0  0  0  0  0  0  0
  -12.1298   -9.2645    4.0310 C   0  0  0  0  0  0  0  0  0  0  0  0
  -12.9466   -6.8584    6.1233 C   0  0  0  0  0  0  0  0  0  0  0  0
  -12.3858   -6.0968    5.3636 O   0  0  0  0  0  0  0  0  0  0  0  0
   11.8086    5.3552   -1.6726 H   0  0  0  0  0  0  0  0  0  0  0  0
   13.4345   -0.6400   -2.2711 H   0  0  0  0  0  0  0  0  0  0  0  0
   16.2464    2.8445    0.0980 H   0  0  0  0  0  0  0  0  0  0  0  0
   16.9788   -0.2991    1.2661 H   0  0  0  0  0  0  0  0  0  0  0  0
   19.1074    0.0877    0.0336 H   0  0  0  0  0  0  0  0  0  0  0  0
   18.4466    1.0003   -2.3255 H   0  0  0  0  0  0  0  0  0  0  0  0
   17.0010   -0.8552   -3.5603 H   0  0  0  0  0  0  0  0  0  0  0  0
   16.7712   -2.9122   -1.9607 H   0  0  0  0  0  0  0  0  0  0  0  0
   18.2644   -2.4617    0.2332 H   0  0  0  0  0  0  0  0  0  0  0  0
   19.2275   -2.2277   -1.2470 H   0  0  0  0  0  0  0  0  0  0  0  0
   15.5739   -2.1026    0.0671 H   0  0  0  0  0  0  0  0  0  0  0  0
   10.4714    2.7190   -4.2334 H   0  0  0  0  0  0  0  0  0  0  0  0
    8.3745   -2.1503   -7.2179 H   0  0  0  0  0  0  0  0  0  0  0  0
    9.4520   -1.5679   -8.5011 H   0  0  0  0  0  0  0  0  0  0  0  0
    6.4222   -1.1302   -8.4022 H   0  0  0  0  0  0  0  0  0  0  0  0
    7.2501   -2.3222   -9.4164 H   0  0  0  0  0  0  0  0  0  0  0  0
    7.4953   -0.5949   -9.6981 H   0  0  0  0  0  0  0  0  0  0  0  0
    4.3482    5.0818   -1.4586 H   0  0  0  0  0  0  0  0  0  0  0  0
    3.8754    7.2887   -0.1784 H   0  0  0  0  0  0  0  0  0  0  0  0
    6.6491    9.8186   -0.3481 H   0  0  0  0  0  0  0  0  0  0  0  0
    5.0084    9.6026    0.2836 H   0  0  0  0  0  0  0  0  0  0  0  0
    5.7217   10.4962   -2.5554 H   0  0  0  0  0  0  0  0  0  0  0  0
    5.1183   11.5450   -1.2679 H   0  0  0  0  0  0  0  0  0  0  0  0
    4.0804   10.2824   -1.9400 H   0  0  0  0  0  0  0  0  0  0  0  0
    3.7316    4.9586   -3.6825 H   0  0  0  0  0  0  0  0  0  0  0  0
    3.2808    3.3527   -8.0483 H   0  0  0  0  0  0  0  0  0  0  0  0
    4.4382    2.3460   -9.9776 H   0  0  0  0  0  0  0  0  0  0  0  0
    4.4220   -0.0947  -10.2934 H   0  0  0  0  0  0  0  0  0  0  0  0
    3.2265   -2.4861   -7.8052 H   0  0  0  0  0  0  0  0  0  0  0  0
    4.0265   -2.2938   -9.3727 H   0  0  0  0  0  0  0  0  0  0  0  0
    1.0206   -2.0233   -8.8749 H   0  0  0  0  0  0  0  0  0  0  0  0
    1.8179   -3.4033   -9.6389 H   0  0  0  0  0  0  0  0  0  0  0  0
    1.8159   -1.8265  -10.4360 H   0  0  0  0  0  0  0  0  0  0  0  0
    2.1005   -0.5399   -6.7440 H   0  0  0  0  0  0  0  0  0  0  0  0
  -10.0058   -1.0903   -0.1893 H   0  0  0  0  0  0  0  0  0  0  0  0
  -11.7021   -2.8741   -0.0975 H   0  0  0  0  0  0  0  0  0  0  0  0
  -11.5718   -4.6185    1.6360 H   0  0  0  0  0  0  0  0  0  0  0  0
  -10.6589   -5.1791    3.9253 H   0  0  0  0  0  0  0  0  0  0  0  0
   -9.0301   -4.6320    4.3513 H   0  0  0  0  0  0  0  0  0  0  0  0
   -8.0874   -6.0257    2.5049 H   0  0  0  0  0  0  0  0  0  0  0  0
   -9.0046   -7.0111    3.6481 H   0  0  0  0  0  0  0  0  0  0  0  0
   -9.7105   -6.5743    2.0887 H   0  0  0  0  0  0  0  0  0  0  0  0
   -7.9896   -2.8575    3.1355 H   0  0  0  0  0  0  0  0  0  0  0  0
   -1.1207    3.7641   -2.0577 H   0  0  0  0  0  0  0  0  0  0  0  0
   -2.8998    3.6739   -1.9613 H   0  0  0  0  0  0  0  0  0  0  0  0
   -1.3168    4.7550   -4.3296 H   0  0  0  0  0  0  0  0  0  0  0  0
   -3.0728    4.5667   -4.2763 H   0  0  0  0  0  0  0  0  0  0  0  0
   -2.2650    5.6882   -3.1736 H   0  0  0  0  0  0  0  0  0  0  0  0
   -2.4787    2.0948   -0.6196 H   0  0  0  0  0  0  0  0  0  0  0  0
   -3.3912    1.2792    0.6513 H   0  0  0  0  0  0  0  0  0  0  0  0
   -3.2790    3.7605    1.0123 H   0  0  0  0  0  0  0  0  0  0  0  0
   -4.9264    3.1407    0.9105 H   0  0  0  0  0  0  0  0  0  0  0  0
   -4.2350    4.0066   -0.4538 H   0  0  0  0  0  0  0  0  0  0  0  0
   -9.8694   -0.6296    3.4186 H   0  0  0  0  0  0  0  0  0  0  0  0
  -10.5681   -0.9014    5.7483 H   0  0  0  0  0  0  0  0  0  0  0  0
   -5.4189    2.0826    6.9229 H   0  0  0  0  0  0  0  0  0  0  0  0
   -5.1973    1.2843    8.5002 H   0  0  0  0  0  0  0  0  0  0  0  0
   -4.6544    0.4760    7.0098 H   0  0  0  0  0  0  0  0  0  0  0  0
   -5.9779    0.6695    4.6592 H   0  0  0  0  0  0  0  0  0  0  0  0
  -11.1374   -0.8922   12.3901 H   0  0  0  0  0  0  0  0  0  0  0  0
  -12.6191   -1.6615   11.7711 H   0  0  0  0  0  0  0  0  0  0  0  0
  -11.2750   -2.6672   12.3693 H   0  0  0  0  0  0  0  0  0  0  0  0
  -12.5363   -4.0184   10.4127 H   0  0  0  0  0  0  0  0  0  0  0  0
  -11.2004   -4.8735    6.4213 H   0  0  0  0  0  0  0  0  0  0  0  0
   -9.7888   -2.8969    6.4273 H   0  0  0  0  0  0  0  0  0  0  0  0
  -13.2291   -5.9203    9.4529 H   0  0  0  0  0  0  0  0  0  0  0  0
  -13.2142   -7.4269    3.7348 H   0  0  0  0  0  0  0  0  0  0  0  0
  -14.2572   -8.8623    3.8980 H   0  0  0  0  0  0  0  0  0  0  0  0
  -11.2305   -8.7609    4.3786 H   0  0  0  0  0  0  0  0  0  0  0  0
  -12.0273   -9.4696    2.9697 H   0  0  0  0  0  0  0  0  0  0  0  0
  -12.2329  -10.2126    4.5533 H   0  0  0  0  0  0  0  0  0  0  0  0
  1  2  2  0  0  0  0
  2  3  1  0  0  0  0
  3  4  2  0  0  0  0
  3  5  1  0  0  0  0
  5  6  2  0  0  0  0
  6  7  1  0  0  0  0
  7  8  2  0  0  0  0
  8  9  1  0  0  0  0
  9 10  2  0  0  0  0
 10 11  1  0  0  0  0
 11 12  2  0  0  0  0
 12 13  1  0  0  0  0
 13 14  3  0  0  0  0
 12 15  1  0  0  0  0
 15 16  3  0  0  0  0
  8 17  1  0  0  0  0
 17 18  1  0  0  0  0
 18 19  1  0  0  0  0
 19 20  2  0  0  0  0
 20 21  1  0  0  0  0
 21 22  1  0  0  0  0
 21 23  1  0  0  0  0
  1 24  1  0  0  0  0
 24 25  2  0  0  0  0
 25 26  1  0  0  0  0
 26 27  2  0  0  0  0
 27 28  1  0  0  0  0
 28 29  1  0  0  0  0
 29 30  1  0  0  0  0
 30 31  1  0  0  0  0
 31 32  1  0  0  0  0
 30 33  2  0  0  0  0
 33 34  1  0  0  0  0
 33 35  1  0  0  0  0
 35 36  1  0  0  0  0
 27 37  1  0  0  0  0
 37 38  2  0  0  0  0
 38 39  1  0  0  0  0
 39 40  1  0  0  0  0
 40 41  2  0  0  0  0
 41 42  1  0  0  0  0
 42 43  2  0  0  0  0
 43 44  1  0  0  0  0
 44 45  1  0  0  0  0
 43 46  1  0  0  0  0
 39 47  2  0  0  0  0
 47 48  1  0  0  0  0
 38 49  1  0  0  0  0
 49 50  2  0  0  0  0
 50 51  1  0  0  0  0
 50 52  1  0  0  0  0
 52 53  2  0  0  0  0
 53 54  1  0  0  0  0
 54 55  2  0  0  0  0
 55 56  1  0  0  0  0
 56 57  2  0  0  0  0
 57 58  1  0  0  0  0
 58 59  1  0  0  0  0
 59 60  1  0  0  0  0
 58 61  2  0  0  0  0
 53 62  1  0  0  0  0
 62 63  1  0  0  0  0
 63 64  1  0  0  0  0
 64 65  1  0  0  0  0
 65 66  1  0  0  0  0
 66 67  1  0  0  0  0
 67 68  2  0  0  0  0
 68 69  1  0  0  0  0
 69 70  1  0  0  0  0
 67 71  1  0  0  0  0
 71 72  1  0  0  0  0
 72 73  1  0  0  0  0
 73 74  1  0  0  0  0
 74 75  1  0  0  0  0
 75 76  1  0  0  0  0
 76 77  2  0  0  0  0
 77 78  1  0  0  0  0
 78 79  2  0  0  0  0
 79 80  1  0  0  0  0
 80 81  1  0  0  0  0
 81 82  1  0  0  0  0
 80 83  2  0  0  0  0
 75 84  2  0  0  0  0
 84 85  1  0  0  0  0
 85 86  1  0  0  0  0
 86 87  1  0  0  0  0
 87 88  1  0  0  0  0
 88 89  1  0  0  0  0
 89 90  1  0  0  0  0
 90 91  1  0  0  0  0
 91 92  1  0  0  0  0
 92 93  1  0  0  0  0
 93 94  1  0  0  0  0
 91 95  1  0  0  0  0
 95 96  1  0  0  0  0
 88 97  1  0  0  0  0
 97 98  1  0  0  0  0
 84 99  1  0  0  0  0
 99100  2  0  0  0  0
100101  1  0  0  0  0
101102  2  0  0  0  0
102103  1  0  0  0  0
103104  1  0  0  0  0
104105  2  0  0  0  0
104106  1  0  0  0  0
106107  1  0  0  0  0
106108  1  0  0  0  0
108109  2  0  0  0  0
103110  2  0  0  0  0
110111  1  0  0  0  0
111112  2  0  0  0  0
111113  1  0  0  0  0
113114  1  0  0  0  0
113115  1  0  0  0  0
115116  2  0  0  0  0
116117  1  0  0  0  0
117118  2  0  0  0  0
118119  1  0  0  0  0
119120  2  0  0  0  0
117121  1  0  0  0  0
121122  2  0  0  0  0
122123  1  0  0  0  0
123124  1  0  0  0  0
124125  2  0  0  0  0
125126  1  0  0  0  0
126127  3  0  0  0  0
125128  1  0  0  0  0
128129  3  0  0  0  0
124130  1  0  0  0  0
130131  1  0  0  0  0
131132  1  0  0  0  0
130133  1  0  0  0  0
133134  2  0  0  0  0
 11  2  1  0  0  0  0
 23 17  1  0  0  0  0
 48 24  1  0  0  0  0
 94 52  1  0  0  0  0
109 99  1  0  0  0  0
120110  1  0  0  0  0
133122  1  0  0  0  0
 10  5  1  0  0  0  0
 22 18  1  0  0  0  0
 47 26  1  0  0  0  0
 61 54  1  0  0  0  0
 93 62  2  0  0  0  0
108102  1  0  0  0  0
120115  1  0  0  0  0
 23  7  1  0  0  0  0
 35 28  2  0  0  0  0
 51 37  1  0  0  0  0
 92 64  2  0  0  0  0
 46 40  1  0  0  0  0
 90 65  2  0  0  0  0
 70 66  2  0  0  0  0
 89 71  2  0  0  0  0
 87 72  2  0  0  0  0
 86 74  2  0  0  0  0
 83 76  1  0  0  0  0
  1135  1  0  0  0  0
  6136  1  0  0  0  0
  9137  1  0  0  0  0
 17138  1  0  0  0  0
 18139  1  0  0  0  0
 19140  1  0  0  0  0
 20141  1  0  0  0  0
 21142  1  0  0  0  0
 22143  1  0  0  0  0
 22144  1  0  0  0  0
 23145  1  0  0  0  0
 25146  1  0  0  0  0
 31147  1  0  0  0  0
 31148  1  0  0  0  0
 32149  1  0  0  0  0
 32150  1  0  0  0  0
 32151  1  0  0  0  0
 41152  1  0  0  0  0
 42153  1  0  0  0  0
 44154  1  0  0  0  0
 44155  1  0  0  0  0
 45156  1  0  0  0  0
 45157  1  0  0  0  0
 45158  1  0  0  0  0
 49159  1  0  0  0  0
 55160  1  0  0  0  0
 56161  1  0  0  0  0
 57162  1  0  0  0  0
 59163  1  0  0  0  0
 59164  1  0  0  0  0
 60165  1  0  0  0  0
 60166  1  0  0  0  0
 60167  1  0  0  0  0
 61168  1  0  0  0  0
 77169  1  0  0  0  0
 78170  1  0  0  0  0
 79171  1  0  0  0  0
 81172  1  0  0  0  0
 81173  1  0  0  0  0
 82174  1  0  0  0  0
 82175  1  0  0  0  0
 82176  1  0  0  0  0
 83177  1  0  0  0  0
 95178  1  0  0  0  0
 95179  1  0  0  0  0
 96180  1  0  0  0  0
 96181  1  0  0  0  0
 96182  1  0  0  0  0
 97183  1  0  0  0  0
 97184  1  0  0  0  0
 98185  1  0  0  0  0
 98186  1  0  0  0  0
 98187  1  0  0  0  0
100188  1  0  0  0  0
101189  1  0  0  0  0
107190  1  0  0  0  0
107191  1  0  0  0  0
107192  1  0  0  0  0
109193  1  0  0  0  0
114194  1  0  0  0  0
114195  1  0  0  0  0
114196  1  0  0  0  0
116197  1  0  0  0  0
118198  1  0  0  0  0
119199  1  0  0  0  0
121200  1  0  0  0  0
131201  1  0  0  0  0
131202  1  0  0  0  0
132203  1  0  0  0  0
132204  1  0  0  0  0
132205  1  0  0  0  0
M  END
