
  xtb     02202217403D
 energy: -296.393442032630 gnorm: 0.000249253138 xtb: 6.4.1 (unknown)
174194  0     0  0            999 V2000
   -1.0317    3.0150  -10.3046 C   0  0  0  0  0  0  0  0  0  0  0  0
    0.1532    2.4504   -9.9473 C   0  0  0  0  0  0  0  0  0  0  0  0
    1.4384    2.9143  -10.5345 C   0  0  0  0  0  0  0  0  0  0  0  0
    1.5841    3.5768  -11.5365 O   0  0  0  0  0  0  0  0  0  0  0  0
    2.4785    2.4513   -9.5916 C   0  0  0  0  0  0  0  0  0  0  0  0
    3.8373    2.7617   -9.6118 C   0  0  0  0  0  0  0  0  0  0  0  0
    4.5550    2.2078   -8.5783 C   0  0  0  0  0  0  0  0  0  0  0  0
    3.9708    1.3991   -7.5934 C   0  0  0  0  0  0  0  0  0  0  0  0
    2.6358    1.0750   -7.5642 C   0  0  0  0  0  0  0  0  0  0  0  0
    1.8887    1.6323   -8.6050 C   0  0  0  0  0  0  0  0  0  0  0  0
    0.4697    1.4921   -8.9085 C   0  0  0  0  0  0  0  0  0  0  0  0
   -0.3437    0.4709   -8.4892 C   0  0  0  0  0  0  0  0  0  0  0  0
   -1.6158    0.2330   -9.0489 C   0  0  0  0  0  0  0  0  0  0  0  0
   -2.6323   -0.0143   -9.5225 N   0  0  0  0  0  0  0  0  0  0  0  0
    0.0092   -0.4812   -7.5145 C   0  0  0  0  0  0  0  0  0  0  0  0
    0.2304   -1.2647   -6.7045 N   0  0  0  0  0  0  0  0  0  0  0  0
    5.2757    1.2053   -6.8628 C   0  0  0  0  0  0  0  0  0  0  0  0
    5.4751    2.0337   -5.5760 C   0  0  0  0  0  0  0  0  0  0  0  0
    6.9709    2.0102   -5.3588 C   0  0  0  0  0  0  0  0  0  0  0  0
    7.5255    2.7748   -6.2906 C   0  0  0  0  0  0  0  0  0  0  0  0
    6.4139    3.3286   -7.1528 C   0  0  0  0  0  0  0  0  0  0  0  0
    5.3072    3.4661   -6.0992 C   0  0  0  0  0  0  0  0  0  0  0  0
    5.9281    2.1058   -7.9603 C   0  0  0  0  0  0  0  0  0  0  0  0
   -2.2258    3.0239   -9.5401 C   0  0  0  0  0  0  0  0  0  0  0  0
   -3.5208    3.2007   -9.9758 C   0  0  0  0  0  0  0  0  0  0  0  0
   -4.4807    3.1390   -8.9560 C   0  0  0  0  0  0  0  0  0  0  0  0
   -6.2186    3.1821   -9.2117 S   0  0  0  0  0  0  0  0  0  0  0  0
   -6.3724    2.1858  -10.7438 C   0  0  0  0  0  0  0  0  0  0  0  0
   -5.8923    0.7611  -10.5564 C   0  0  0  0  0  0  0  0  0  0  0  0
   -3.9192    2.9865   -7.6965 C   0  0  0  0  0  0  0  0  0  0  0  0
   -2.1873    2.8815   -7.8021 S   0  0  0  0  0  0  0  0  0  0  0  0
   -4.4977    2.8324   -6.4070 C   0  0  0  0  0  0  0  0  0  0  0  0
   -5.6270    3.3838   -5.8260 C   0  0  0  0  0  0  0  0  0  0  0  0
   -6.4639    4.4205   -6.4243 C   0  0  0  0  0  0  0  0  0  0  0  0
   -7.8441    4.3996   -6.2426 C   0  0  0  0  0  0  0  0  0  0  0  0
   -8.6258    5.3947   -6.7958 C   0  0  0  0  0  0  0  0  0  0  0  0
   -8.0445    6.4193   -7.5217 C   0  0  0  0  0  0  0  0  0  0  0  0
   -6.6678    6.4647   -7.7009 C   0  0  0  0  0  0  0  0  0  0  0  0
   -6.0253    7.6023   -8.4414 C   0  0  0  0  0  0  0  0  0  0  0  0
   -5.6840    8.7415   -7.4790 C   0  0  0  0  0  0  0  0  0  0  0  0
   -5.8880    5.4641   -7.1441 C   0  0  0  0  0  0  0  0  0  0  0  0
   -5.7994    2.9058   -4.5086 C   0  0  0  0  0  0  0  0  0  0  0  0
   -6.9515    3.2849   -3.2466 S   0  0  0  0  0  0  0  0  0  0  0  0
   -6.0671    2.2692   -2.1549 C   0  0  0  0  0  0  0  0  0  0  0  0
   -6.0561    1.9031   -0.7985 C   0  0  0  0  0  0  0  0  0  0  0  0
   -6.8320    2.3522    0.2929 C   0  0  0  0  0  0  0  0  0  0  0  0
   -6.4461    1.9723    1.6229 C   0  0  0  0  0  0  0  0  0  0  0  0
   -7.2127    2.5258    2.5492 N   0  0  0  0  0  0  0  0  0  0  0  0
   -8.3297    3.4383    1.8129 S   0  0  0  0  0  0  0  0  0  0  0  0
   -7.8742    3.1680    0.2828 N   0  0  0  0  0  0  0  0  0  0  0  0
   -5.3740    1.0693    1.7944 C   0  0  0  0  0  0  0  0  0  0  0  0
   -4.8093    0.5019    2.9495 C   0  0  0  0  0  0  0  0  0  0  0  0
   -4.9202    0.6263    4.6745 S   0  0  0  0  0  0  0  0  0  0  0  0
   -3.6231   -0.5378    4.8220 C   0  0  0  0  0  0  0  0  0  0  0  0
   -2.9359   -1.0746    5.9315 C   0  0  0  0  0  0  0  0  0  0  0  0
   -3.2713   -0.7555    7.3197 C   0  0  0  0  0  0  0  0  0  0  0  0
   -3.4383   -1.7680    8.2608 C   0  0  0  0  0  0  0  0  0  0  0  0
   -3.7859   -1.4482    9.5588 C   0  0  0  0  0  0  0  0  0  0  0  0
   -3.9697   -0.1268    9.9272 C   0  0  0  0  0  0  0  0  0  0  0  0
   -3.8187    0.8942    8.9977 C   0  0  0  0  0  0  0  0  0  0  0  0
   -3.9774    2.3324    9.3987 C   0  0  0  0  0  0  0  0  0  0  0  0
   -2.6289    2.9158    9.8256 C   0  0  0  0  0  0  0  0  0  0  0  0
   -3.4712    0.5677    7.6959 C   0  0  0  0  0  0  0  0  0  0  0  0
   -1.9444   -1.9495    5.5323 C   0  0  0  0  0  0  0  0  0  0  0  0
   -1.8854   -2.1465    3.7834 S   0  0  0  0  0  0  0  0  0  0  0  0
   -3.1686   -1.0086    3.5900 C   0  0  0  0  0  0  0  0  0  0  0  0
   -3.8396   -0.4057    2.5199 C   0  0  0  0  0  0  0  0  0  0  0  0
   -3.7639   -0.4114    1.1537 N   0  0  0  0  0  0  0  0  0  0  0  0
   -4.6806    0.5154    0.6816 C   0  0  0  0  0  0  0  0  0  0  0  0
   -4.9477    1.0276   -0.6148 C   0  0  0  0  0  0  0  0  0  0  0  0
   -4.2975    0.8877   -1.8284 N   0  0  0  0  0  0  0  0  0  0  0  0
   -4.9624    1.6526   -2.7459 C   0  0  0  0  0  0  0  0  0  0  0  0
   -4.8031    2.0245   -4.0848 C   0  0  0  0  0  0  0  0  0  0  0  0
   -3.6366    1.7450   -5.3226 S   0  0  0  0  0  0  0  0  0  0  0  0
   -2.9689    0.4055   -2.1292 C   0  0  0  0  0  0  0  0  0  0  0  0
   -1.9001    1.1901   -1.3729 C   0  0  0  0  0  0  0  0  0  0  0  0
   -3.1475   -1.5357    0.4827 C   0  0  0  0  0  0  0  0  0  0  0  0
   -4.1773   -2.3771   -0.2659 C   0  0  0  0  0  0  0  0  0  0  0  0
   -0.9035   -2.5775    6.2787 C   0  0  0  0  0  0  0  0  0  0  0  0
   -0.1170   -3.6039    5.8320 C   0  0  0  0  0  0  0  0  0  0  0  0
    0.9439   -3.9223    6.7071 C   0  0  0  0  0  0  0  0  0  0  0  0
    1.9713   -4.8620    6.5276 C   0  0  0  0  0  0  0  0  0  0  0  0
    1.9894   -5.6804    5.4284 O   0  0  0  0  0  0  0  0  0  0  0  0
    2.9245   -5.3098    4.4184 C   0  0  0  0  0  0  0  0  0  0  0  0
    3.0451   -6.4629    3.4388 C   0  0  0  0  0  0  0  0  0  0  0  0
    2.9398   -4.9154    7.5097 C   0  0  0  0  0  0  0  0  0  0  0  0
    2.9579   -4.0872    8.6706 C   0  0  0  0  0  0  0  0  0  0  0  0
    1.9332   -3.1297    8.8338 C   0  0  0  0  0  0  0  0  0  0  0  0
    1.7563   -2.2501    9.8489 O   0  0  0  0  0  0  0  0  0  0  0  0
    2.8523   -1.6377   10.5111 C   0  0  0  0  0  0  0  0  0  0  0  0
    3.8551   -1.0018    9.5576 C   0  0  0  0  0  0  0  0  0  0  0  0
    0.9526   -3.0951    7.8494 C   0  0  0  0  0  0  0  0  0  0  0  0
   -0.3723   -1.9629    7.8340 S   0  0  0  0  0  0  0  0  0  0  0  0
    4.0802   -4.3843    9.4793 C   0  0  0  0  0  0  0  0  0  0  0  0
    4.9258   -5.3243    8.9529 C   0  0  0  0  0  0  0  0  0  0  0  0
    4.3039   -5.9944    7.4566 S   0  0  0  0  0  0  0  0  0  0  0  0
    6.1610   -5.7522    9.5108 C   0  0  0  0  0  0  0  0  0  0  0  0
    7.2490   -6.2131    8.8401 C   0  0  0  0  0  0  0  0  0  0  0  0
    8.2965   -7.0077    9.5503 C   0  0  0  0  0  0  0  0  0  0  0  0
    8.4330   -7.1183   10.7481 O   0  0  0  0  0  0  0  0  0  0  0  0
    9.0600   -7.6463    8.4741 C   0  0  0  0  0  0  0  0  0  0  0  0
    8.5911   -7.1729    7.2022 C   0  0  0  0  0  0  0  0  0  0  0  0
    9.2584   -7.7237    6.1553 C   0  0  0  0  0  0  0  0  0  0  0  0
   10.4613   -8.8331    6.7096 S   0  0  0  0  0  0  0  0  0  0  0  0
   10.0772   -8.5458    8.3897 C   0  0  0  0  0  0  0  0  0  0  0  0
   10.8067   -9.2189    9.4872 C   0  0  0  0  0  0  0  0  0  0  0  0
    7.5655   -6.1759    7.4237 C   0  0  0  0  0  0  0  0  0  0  0  0
    7.1802   -5.2269    6.5114 C   0  0  0  0  0  0  0  0  0  0  0  0
    7.5770   -5.2978    5.1625 C   0  0  0  0  0  0  0  0  0  0  0  0
    7.8683   -5.3581    4.0537 N   0  0  0  0  0  0  0  0  0  0  0  0
    6.4491   -4.0705    6.8437 C   0  0  0  0  0  0  0  0  0  0  0  0
    5.9168   -3.0840    7.0965 N   0  0  0  0  0  0  0  0  0  0  0  0
   -1.0384    3.5857  -11.2272 H   0  0  0  0  0  0  0  0  0  0  0  0
    4.2528    3.3838  -10.3890 H   0  0  0  0  0  0  0  0  0  0  0  0
    2.1903    0.4564   -6.8022 H   0  0  0  0  0  0  0  0  0  0  0  0
    5.6147    0.1760   -6.7632 H   0  0  0  0  0  0  0  0  0  0  0  0
    4.8540    1.7295   -4.7379 H   0  0  0  0  0  0  0  0  0  0  0  0
    7.4589    1.4152   -4.6094 H   0  0  0  0  0  0  0  0  0  0  0  0
    8.5698    2.9460   -6.4750 H   0  0  0  0  0  0  0  0  0  0  0  0
    6.6489    4.2054   -7.7502 H   0  0  0  0  0  0  0  0  0  0  0  0
    4.3226    3.6749   -6.5138 H   0  0  0  0  0  0  0  0  0  0  0  0
    5.5494    4.2112   -5.3432 H   0  0  0  0  0  0  0  0  0  0  0  0
    6.7039    1.6773   -8.5919 H   0  0  0  0  0  0  0  0  0  0  0  0
   -3.7603    3.3178  -11.0171 H   0  0  0  0  0  0  0  0  0  0  0  0
   -5.8437    2.6971  -11.5468 H   0  0  0  0  0  0  0  0  0  0  0  0
   -7.4417    2.2184  -10.9537 H   0  0  0  0  0  0  0  0  0  0  0  0
   -6.0622    0.1951  -11.4702 H   0  0  0  0  0  0  0  0  0  0  0  0
   -4.8304    0.7270  -10.3231 H   0  0  0  0  0  0  0  0  0  0  0  0
   -6.4376    0.2838   -9.7455 H   0  0  0  0  0  0  0  0  0  0  0  0
   -8.3003    3.5929   -5.6898 H   0  0  0  0  0  0  0  0  0  0  0  0
   -9.6972    5.3699   -6.6621 H   0  0  0  0  0  0  0  0  0  0  0  0
   -8.6636    7.1920   -7.9545 H   0  0  0  0  0  0  0  0  0  0  0  0
   -6.7047    7.9722   -9.2116 H   0  0  0  0  0  0  0  0  0  0  0  0
   -5.1117    7.2557   -8.9290 H   0  0  0  0  0  0  0  0  0  0  0  0
   -4.9993    8.3931   -6.7090 H   0  0  0  0  0  0  0  0  0  0  0  0
   -5.2166    9.5654   -8.0134 H   0  0  0  0  0  0  0  0  0  0  0  0
   -6.5853    9.1083   -6.9932 H   0  0  0  0  0  0  0  0  0  0  0  0
   -4.8138    5.5007   -7.2590 H   0  0  0  0  0  0  0  0  0  0  0  0
   -3.3125   -2.7995    7.9665 H   0  0  0  0  0  0  0  0  0  0  0  0
   -3.9185   -2.2345   10.2872 H   0  0  0  0  0  0  0  0  0  0  0  0
   -4.2413    0.1149   10.9448 H   0  0  0  0  0  0  0  0  0  0  0  0
   -4.6832    2.4110   10.2277 H   0  0  0  0  0  0  0  0  0  0  0  0
   -4.3701    2.9083    8.5586 H   0  0  0  0  0  0  0  0  0  0  0  0
   -1.9148    2.8541    9.0075 H   0  0  0  0  0  0  0  0  0  0  0  0
   -2.7390    3.9586   10.1140 H   0  0  0  0  0  0  0  0  0  0  0  0
   -2.2275    2.3610   10.6707 H   0  0  0  0  0  0  0  0  0  0  0  0
   -3.3437    1.3528    6.9648 H   0  0  0  0  0  0  0  0  0  0  0  0
   -2.8223    0.5449   -3.2030 H   0  0  0  0  0  0  0  0  0  0  0  0
   -2.8967   -0.6646   -1.9359 H   0  0  0  0  0  0  0  0  0  0  0  0
   -0.9155    0.7980   -1.6130 H   0  0  0  0  0  0  0  0  0  0  0  0
   -2.0522    1.1305   -0.2980 H   0  0  0  0  0  0  0  0  0  0  0  0
   -1.9356    2.2377   -1.6632 H   0  0  0  0  0  0  0  0  0  0  0  0
   -2.3443   -1.2038   -0.1763 H   0  0  0  0  0  0  0  0  0  0  0  0
   -2.6857   -2.1445    1.2642 H   0  0  0  0  0  0  0  0  0  0  0  0
   -4.7040   -1.7868   -1.0118 H   0  0  0  0  0  0  0  0  0  0  0  0
   -4.9116   -2.7732    0.4319 H   0  0  0  0  0  0  0  0  0  0  0  0
   -3.6846   -3.2098   -0.7607 H   0  0  0  0  0  0  0  0  0  0  0  0
   -0.2826   -4.1180    4.9018 H   0  0  0  0  0  0  0  0  0  0  0  0
    3.9016   -5.0854    4.8656 H   0  0  0  0  0  0  0  0  0  0  0  0
    2.5658   -4.4026    3.9104 H   0  0  0  0  0  0  0  0  0  0  0  0
    3.4011   -7.3499    3.9555 H   0  0  0  0  0  0  0  0  0  0  0  0
    3.7456   -6.2026    2.6506 H   0  0  0  0  0  0  0  0  0  0  0  0
    2.0746   -6.6816    3.0020 H   0  0  0  0  0  0  0  0  0  0  0  0
    2.3729   -0.8669   11.1217 H   0  0  0  0  0  0  0  0  0  0  0  0
    3.3410   -2.3462   11.1899 H   0  0  0  0  0  0  0  0  0  0  0  0
    3.3433   -0.3046    8.8984 H   0  0  0  0  0  0  0  0  0  0  0  0
    4.3593   -1.7471    8.9466 H   0  0  0  0  0  0  0  0  0  0  0  0
    4.6022   -0.4593   10.1302 H   0  0  0  0  0  0  0  0  0  0  0  0
    4.3140   -3.8996   10.4086 H   0  0  0  0  0  0  0  0  0  0  0  0
    6.2294   -5.7599   10.5940 H   0  0  0  0  0  0  0  0  0  0  0  0
    9.1262   -7.5708    5.1029 H   0  0  0  0  0  0  0  0  0  0  0  0
   10.7033  -10.3010    9.4117 H   0  0  0  0  0  0  0  0  0  0  0  0
   10.4039   -8.8850   10.4407 H   0  0  0  0  0  0  0  0  0  0  0  0
   11.8695   -8.9824    9.4437 H   0  0  0  0  0  0  0  0  0  0  0  0
  1  2  2  0  0  0  0
  2  3  1  0  0  0  0
  3  4  2  0  0  0  0
  3  5  1  0  0  0  0
  5  6  2  0  0  0  0
  6  7  1  0  0  0  0
  7  8  2  0  0  0  0
  8  9  1  0  0  0  0
  9 10  2  0  0  0  0
 10 11  1  0  0  0  0
 11 12  2  0  0  0  0
 12 13  1  0  0  0  0
 13 14  3  0  0  0  0
 12 15  1  0  0  0  0
 15 16  3  0  0  0  0
  8 17  1  0  0  0  0
 17 18  1  0  0  0  0
 18 19  1  0  0  0  0
 19 20  2  0  0  0  0
 20 21  1  0  0  0  0
 21 22  1  0  0  0  0
 21 23  1  0  0  0  0
  1 24  1  0  0  0  0
 24 25  2  0  0  0  0
 25 26  1  0  0  0  0
 26 27  1  0  0  0  0
 27 28  1  0  0  0  0
 28 29  1  0  0  0  0
 26 30  2  0  0  0  0
 30 31  1  0  0  0  0
 30 32  1  0  0  0  0
 32 33  2  0  0  0  0
 33 34  1  0  0  0  0
 34 35  2  0  0  0  0
 35 36  1  0  0  0  0
 36 37  2  0  0  0  0
 37 38  1  0  0  0  0
 38 39  1  0  0  0  0
 39 40  1  0  0  0  0
 38 41  2  0  0  0  0
 33 42  1  0  0  0  0
 42 43  1  0  0  0  0
 43 44  1  0  0  0  0
 44 45  1  0  0  0  0
 45 46  1  0  0  0  0
 46 47  1  0  0  0  0
 47 48  2  0  0  0  0
 48 49  1  0  0  0  0
 49 50  1  0  0  0  0
 47 51  1  0  0  0  0
 51 52  1  0  0  0  0
 52 53  1  0  0  0  0
 53 54  1  0  0  0  0
 54 55  1  0  0  0  0
 55 56  1  0  0  0  0
 56 57  2  0  0  0  0
 57 58  1  0  0  0  0
 58 59  2  0  0  0  0
 59 60  1  0  0  0  0
 60 61  1  0  0  0  0
 61 62  1  0  0  0  0
 60 63  2  0  0  0  0
 55 64  2  0  0  0  0
 64 65  1  0  0  0  0
 65 66  1  0  0  0  0
 66 67  1  0  0  0  0
 67 68  1  0  0  0  0
 68 69  1  0  0  0  0
 69 70  1  0  0  0  0
 70 71  1  0  0  0  0
 71 72  1  0  0  0  0
 72 73  1  0  0  0  0
 73 74  1  0  0  0  0
 71 75  1  0  0  0  0
 75 76  1  0  0  0  0
 68 77  1  0  0  0  0
 77 78  1  0  0  0  0
 64 79  1  0  0  0  0
 79 80  2  0  0  0  0
 80 81  1  0  0  0  0
 81 82  2  0  0  0  0
 82 83  1  0  0  0  0
 83 84  1  0  0  0  0
 84 85  1  0  0  0  0
 82 86  1  0  0  0  0
 86 87  2  0  0  0  0
 87 88  1  0  0  0  0
 88 89  1  0  0  0  0
 89 90  1  0  0  0  0
 90 91  1  0  0  0  0
 88 92  2  0  0  0  0
 92 93  1  0  0  0  0
 87 94  1  0  0  0  0
 94 95  2  0  0  0  0
 95 96  1  0  0  0  0
 95 97  1  0  0  0  0
 97 98  2  0  0  0  0
 98 99  1  0  0  0  0
 99100  2  0  0  0  0
 99101  1  0  0  0  0
101102  1  0  0  0  0
102103  2  0  0  0  0
103104  1  0  0  0  0
104105  1  0  0  0  0
105106  1  0  0  0  0
102107  1  0  0  0  0
107108  2  0  0  0  0
108109  1  0  0  0  0
109110  3  0  0  0  0
108111  1  0  0  0  0
111112  3  0  0  0  0
 11  2  1  0  0  0  0
 23 17  1  0  0  0  0
 31 24  1  0  0  0  0
 74 32  1  0  0  0  0
 93 79  1  0  0  0  0
107 98  1  0  0  0  0
 10  5  1  0  0  0  0
 22 18  1  0  0  0  0
 41 34  1  0  0  0  0
 73 42  2  0  0  0  0
 92 81  1  0  0  0  0
105101  2  0  0  0  0
 23  7  1  0  0  0  0
 72 44  2  0  0  0  0
 96 86  1  0  0  0  0
 70 45  2  0  0  0  0
 50 46  2  0  0  0  0
 69 51  2  0  0  0  0
 67 52  2  0  0  0  0
 66 54  2  0  0  0  0
 63 56  1  0  0  0  0
  1113  1  0  0  0  0
  6114  1  0  0  0  0
  9115  1  0  0  0  0
 17116  1  0  0  0  0
 18117  1  0  0  0  0
 19118  1  0  0  0  0
 20119  1  0  0  0  0
 21120  1  0  0  0  0
 22121  1  0  0  0  0
 22122  1  0  0  0  0
 23123  1  0  0  0  0
 25124  1  0  0  0  0
 28125  1  0  0  0  0
 28126  1  0  0  0  0
 29127  1  0  0  0  0
 29128  1  0  0  0  0
 29129  1  0  0  0  0
 35130  1  0  0  0  0
 36131  1  0  0  0  0
 37132  1  0  0  0  0
 39133  1  0  0  0  0
 39134  1  0  0  0  0
 40135  1  0  0  0  0
 40136  1  0  0  0  0
 40137  1  0  0  0  0
 41138  1  0  0  0  0
 57139  1  0  0  0  0
 58140  1  0  0  0  0
 59141  1  0  0  0  0
 61142  1  0  0  0  0
 61143  1  0  0  0  0
 62144  1  0  0  0  0
 62145  1  0  0  0  0
 62146  1  0  0  0  0
 63147  1  0  0  0  0
 75148  1  0  0  0  0
 75149  1  0  0  0  0
 76150  1  0  0  0  0
 76151  1  0  0  0  0
 76152  1  0  0  0  0
 77153  1  0  0  0  0
 77154  1  0  0  0  0
 78155  1  0  0  0  0
 78156  1  0  0  0  0
 78157  1  0  0  0  0
 80158  1  0  0  0  0
 84159  1  0  0  0  0
 84160  1  0  0  0  0
 85161  1  0  0  0  0
 85162  1  0  0  0  0
 85163  1  0  0  0  0
 90164  1  0  0  0  0
 90165  1  0  0  0  0
 91166  1  0  0  0  0
 91167  1  0  0  0  0
 91168  1  0  0  0  0
 94169  1  0  0  0  0
 97170  1  0  0  0  0
103171  1  0  0  0  0
106172  1  0  0  0  0
106173  1  0  0  0  0
106174  1  0  0  0  0
M  END
