
  xtb     02142220273D
 energy: -256.154536682773 gnorm: 0.000230117657 xtb: 6.4.1 (unknown)
153170  0     0  0            999 V2000
    2.8953   -8.3547    4.6664 C   0  0  0  0  0  0  0  0  0  0  0  0
    4.1315   -7.8504    4.4119 C   0  0  0  0  0  0  0  0  0  0  0  0
    5.2297   -8.7471    3.9602 C   0  0  0  0  0  0  0  0  0  0  0  0
    5.2615   -9.9540    4.0455 O   0  0  0  0  0  0  0  0  0  0  0  0
    6.2208   -7.8520    3.3308 C   0  0  0  0  0  0  0  0  0  0  0  0
    7.3587   -8.2209    2.6167 C   0  0  0  0  0  0  0  0  0  0  0  0
    8.0712   -7.1601    2.1107 C   0  0  0  0  0  0  0  0  0  0  0  0
    7.6784   -5.8261    2.2873 C   0  0  0  0  0  0  0  0  0  0  0  0
    6.5637   -5.4454    2.9957 C   0  0  0  0  0  0  0  0  0  0  0  0
    5.8336   -6.5093    3.5294 C   0  0  0  0  0  0  0  0  0  0  0  0
    4.6294   -6.4928    4.3544 C   0  0  0  0  0  0  0  0  0  0  0  0
    4.2264   -5.4544    5.1531 C   0  0  0  0  0  0  0  0  0  0  0  0
    3.2238   -5.5789    6.1375 C   0  0  0  0  0  0  0  0  0  0  0  0
    2.4466   -5.6524    6.9797 N   0  0  0  0  0  0  0  0  0  0  0  0
    4.8229   -4.1785    5.1455 C   0  0  0  0  0  0  0  0  0  0  0  0
    5.2626   -3.1181    5.1693 N   0  0  0  0  0  0  0  0  0  0  0  0
    8.8501   -5.2935    1.5016 C   0  0  0  0  0  0  0  0  0  0  0  0
   10.0280   -4.6784    2.2964 C   0  0  0  0  0  0  0  0  0  0  0  0
   10.0129   -5.3329    3.6557 C   0  0  0  0  0  0  0  0  0  0  0  0
   10.3891   -6.5952    3.5007 C   0  0  0  0  0  0  0  0  0  0  0  0
   10.6652   -6.8173    2.0340 C   0  0  0  0  0  0  0  0  0  0  0  0
   11.2008   -5.4297    1.6464 C   0  0  0  0  0  0  0  0  0  0  0  0
    9.2938   -6.7787    1.3145 C   0  0  0  0  0  0  0  0  0  0  0  0
    1.6568   -7.6708    4.6761 C   0  0  0  0  0  0  0  0  0  0  0  0
    0.4751   -8.1257    5.2236 C   0  0  0  0  0  0  0  0  0  0  0  0
   -0.6077   -7.2568    5.0511 C   0  0  0  0  0  0  0  0  0  0  0  0
   -2.2524   -7.5677    5.5785 S   0  0  0  0  0  0  0  0  0  0  0  0
   -2.3004   -9.3975    5.6468 C   0  0  0  0  0  0  0  0  0  0  0  0
   -2.1148  -10.0413    4.2871 C   0  0  0  0  0  0  0  0  0  0  0  0
   -0.2630   -6.1057    4.3492 C   0  0  0  0  0  0  0  0  0  0  0  0
    1.4088   -6.1411    3.8768 S   0  0  0  0  0  0  0  0  0  0  0  0
   -1.0535   -4.9810    3.9869 C   0  0  0  0  0  0  0  0  0  0  0  0
   -2.0788   -4.3612    4.6809 C   0  0  0  0  0  0  0  0  0  0  0  0
   -2.4296   -4.6419    6.0704 C   0  0  0  0  0  0  0  0  0  0  0  0
   -3.7588   -4.6209    6.4856 C   0  0  0  0  0  0  0  0  0  0  0  0
   -4.0687   -4.8804    7.8060 C   0  0  0  0  0  0  0  0  0  0  0  0
   -3.0663   -5.1601    8.7193 C   0  0  0  0  0  0  0  0  0  0  0  0
   -1.7336   -5.1626    8.3279 C   0  0  0  0  0  0  0  0  0  0  0  0
   -0.6349   -5.5088    9.2898 C   0  0  0  0  0  0  0  0  0  0  0  0
   -0.1534   -6.9407    9.0482 C   0  0  0  0  0  0  0  0  0  0  0  0
   -1.4267   -4.8913    7.0038 C   0  0  0  0  0  0  0  0  0  0  0  0
   -2.6312   -3.3035    3.9284 C   0  0  0  0  0  0  0  0  0  0  0  0
   -3.9120   -2.1616    4.2590 S   0  0  0  0  0  0  0  0  0  0  0  0
   -3.5654   -1.3721    2.7580 C   0  0  0  0  0  0  0  0  0  0  0  0
   -3.9706   -0.2434    2.0289 C   0  0  0  0  0  0  0  0  0  0  0  0
   -4.9118    0.7608    2.3409 C   0  0  0  0  0  0  0  0  0  0  0  0
   -5.0172    1.9006    1.4785 C   0  0  0  0  0  0  0  0  0  0  0  0
   -5.8979    2.7876    1.9155 N   0  0  0  0  0  0  0  0  0  0  0  0
   -6.5434    2.2308    3.2923 S   0  0  0  0  0  0  0  0  0  0  0  0
   -5.7218    0.8393    3.3853 N   0  0  0  0  0  0  0  0  0  0  0  0
   -4.2358    1.9405    0.3042 C   0  0  0  0  0  0  0  0  0  0  0  0
   -4.1669    2.9013   -0.7164 C   0  0  0  0  0  0  0  0  0  0  0  0
   -4.8203    4.4573   -1.1008 S   0  0  0  0  0  0  0  0  0  0  0  0
   -3.8744    4.4618   -2.5706 C   0  0  0  0  0  0  0  0  0  0  0  0
   -3.7324    5.4048   -3.6072 C   0  0  0  0  0  0  0  0  0  0  0  0
   -4.5141    6.6425   -3.6693 C   0  0  0  0  0  0  0  0  0  0  0  0
   -4.5994    7.4750   -2.5582 C   0  0  0  0  0  0  0  0  0  0  0  0
   -5.3579    8.6298   -2.6206 C   0  0  0  0  0  0  0  0  0  0  0  0
   -6.0386    8.9572   -3.7793 C   0  0  0  0  0  0  0  0  0  0  0  0
   -5.9747    8.1296   -4.8954 C   0  0  0  0  0  0  0  0  0  0  0  0
   -6.7501    8.4565   -6.1394 C   0  0  0  0  0  0  0  0  0  0  0  0
   -8.1505    7.8451   -6.0697 C   0  0  0  0  0  0  0  0  0  0  0  0
   -5.2143    6.9728   -4.8265 C   0  0  0  0  0  0  0  0  0  0  0  0
   -2.8281    4.9679   -4.5603 C   0  0  0  0  0  0  0  0  0  0  0  0
   -2.1939    3.3685   -4.2029 S   0  0  0  0  0  0  0  0  0  0  0  0
   -3.1158    3.3018   -2.7436 C   0  0  0  0  0  0  0  0  0  0  0  0
   -3.2845    2.4081   -1.6787 C   0  0  0  0  0  0  0  0  0  0  0  0
   -2.7961    1.1889   -1.2912 N   0  0  0  0  0  0  0  0  0  0  0  0
   -3.3545    0.8817   -0.0584 C   0  0  0  0  0  0  0  0  0  0  0  0
   -3.1591   -0.1863    0.8591 C   0  0  0  0  0  0  0  0  0  0  0  0
   -2.2844   -1.2619    0.8907 N   0  0  0  0  0  0  0  0  0  0  0  0
   -2.5237   -1.9634    2.0412 C   0  0  0  0  0  0  0  0  0  0  0  0
   -1.9934   -3.0747    2.7080 C   0  0  0  0  0  0  0  0  0  0  0  0
   -0.7179   -4.2092    2.4417 S   0  0  0  0  0  0  0  0  0  0  0  0
   -1.0523   -1.4927    0.1719 C   0  0  0  0  0  0  0  0  0  0  0  0
   -0.0360   -0.3835    0.4339 C   0  0  0  0  0  0  0  0  0  0  0  0
   -2.1819    0.3333   -2.2822 C   0  0  0  0  0  0  0  0  0  0  0  0
   -3.0962   -0.8294   -2.6609 C   0  0  0  0  0  0  0  0  0  0  0  0
   -2.2996    5.6688   -5.6822 C   0  0  0  0  0  0  0  0  0  0  0  0
   -2.2974    7.0261   -5.9094 C   0  0  0  0  0  0  0  0  0  0  0  0
   -1.6454    7.3999   -7.0927 C   0  0  0  0  0  0  0  0  0  0  0  0
   -1.6786    9.0183   -7.7564 S   0  0  0  0  0  0  0  0  0  0  0  0
   -1.8455   10.0838   -6.2729 C   0  0  0  0  0  0  0  0  0  0  0  0
   -3.2842   10.4661   -5.9830 C   0  0  0  0  0  0  0  0  0  0  0  0
   -1.1032    6.3217   -7.7881 C   0  0  0  0  0  0  0  0  0  0  0  0
   -1.4940    4.8230   -6.9670 S   0  0  0  0  0  0  0  0  0  0  0  0
   -0.3096    6.2160   -8.9492 C   0  0  0  0  0  0  0  0  0  0  0  0
    0.5279    7.1049   -9.5460 C   0  0  0  0  0  0  0  0  0  0  0  0
    1.0062    8.7011   -9.0312 S   0  0  0  0  0  0  0  0  0  0  0  0
    2.1853    8.8253  -10.3346 C   0  0  0  0  0  0  0  0  0  0  0  0
    3.1619   10.1145  -10.5495 S   0  0  0  0  0  0  0  0  0  0  0  0
    2.1663    7.7107  -11.1030 N   0  0  0  0  0  0  0  0  0  0  0  0
    3.0043    7.5629  -12.2766 C   0  0  0  0  0  0  0  0  0  0  0  0
    2.3850    8.2492  -13.4874 C   0  0  0  0  0  0  0  0  0  0  0  0
    1.2815    6.7094  -10.7361 C   0  0  0  0  0  0  0  0  0  0  0  0
    1.1791    5.6587  -11.3307 O   0  0  0  0  0  0  0  0  0  0  0  0
    2.8430   -9.4308    4.7992 H   0  0  0  0  0  0  0  0  0  0  0  0
    7.6243   -9.2591    2.4933 H   0  0  0  0  0  0  0  0  0  0  0  0
    6.2617   -4.4183    3.1214 H   0  0  0  0  0  0  0  0  0  0  0  0
    8.6045   -4.7196    0.6101 H   0  0  0  0  0  0  0  0  0  0  0  0
   10.0609   -3.5923    2.2868 H   0  0  0  0  0  0  0  0  0  0  0  0
    9.6842   -4.8413    4.5525 H   0  0  0  0  0  0  0  0  0  0  0  0
   10.4381   -7.3701    4.2431 H   0  0  0  0  0  0  0  0  0  0  0  0
   11.2801   -7.6785    1.7862 H   0  0  0  0  0  0  0  0  0  0  0  0
   12.1574   -5.2019    2.1138 H   0  0  0  0  0  0  0  0  0  0  0  0
   11.2713   -5.2768    0.5702 H   0  0  0  0  0  0  0  0  0  0  0  0
    9.3467   -7.1726    0.3013 H   0  0  0  0  0  0  0  0  0  0  0  0
    0.4271   -9.0532    5.7645 H   0  0  0  0  0  0  0  0  0  0  0  0
   -1.5623   -9.7371    6.3718 H   0  0  0  0  0  0  0  0  0  0  0  0
   -3.2949   -9.6031    6.0425 H   0  0  0  0  0  0  0  0  0  0  0  0
   -2.2029  -11.1223    4.3753 H   0  0  0  0  0  0  0  0  0  0  0  0
   -1.1360   -9.8064    3.8739 H   0  0  0  0  0  0  0  0  0  0  0  0
   -2.8745   -9.6846    3.5957 H   0  0  0  0  0  0  0  0  0  0  0  0
   -4.5421   -4.4265    5.7691 H   0  0  0  0  0  0  0  0  0  0  0  0
   -5.1006   -4.8716    8.1248 H   0  0  0  0  0  0  0  0  0  0  0  0
   -3.3207   -5.3732    9.7479 H   0  0  0  0  0  0  0  0  0  0  0  0
   -0.9941   -5.4112   10.3160 H   0  0  0  0  0  0  0  0  0  0  0  0
    0.2076   -4.8292    9.1502 H   0  0  0  0  0  0  0  0  0  0  0  0
   -0.9867   -7.6379    9.1164 H   0  0  0  0  0  0  0  0  0  0  0  0
    0.5965   -7.2169    9.7854 H   0  0  0  0  0  0  0  0  0  0  0  0
    0.2925   -7.0220    8.0602 H   0  0  0  0  0  0  0  0  0  0  0  0
   -0.3899   -4.8656    6.6997 H   0  0  0  0  0  0  0  0  0  0  0  0
   -4.0614    7.2232   -1.6571 H   0  0  0  0  0  0  0  0  0  0  0  0
   -5.4173    9.2779   -1.7589 H   0  0  0  0  0  0  0  0  0  0  0  0
   -6.6260    9.8629   -3.8226 H   0  0  0  0  0  0  0  0  0  0  0  0
   -6.8350    9.5397   -6.2481 H   0  0  0  0  0  0  0  0  0  0  0  0
   -6.2287    8.0643   -7.0153 H   0  0  0  0  0  0  0  0  0  0  0  0
   -8.7133    8.0820   -6.9693 H   0  0  0  0  0  0  0  0  0  0  0  0
   -8.6903    8.2332   -5.2088 H   0  0  0  0  0  0  0  0  0  0  0  0
   -8.0868    6.7635   -5.9737 H   0  0  0  0  0  0  0  0  0  0  0  0
   -5.1614    6.3148   -5.6825 H   0  0  0  0  0  0  0  0  0  0  0  0
   -0.6511   -2.4402    0.5402 H   0  0  0  0  0  0  0  0  0  0  0  0
   -1.2469   -1.6216   -0.8924 H   0  0  0  0  0  0  0  0  0  0  0  0
   -0.4345    0.5894    0.1556 H   0  0  0  0  0  0  0  0  0  0  0  0
    0.2161   -0.3561    1.4914 H   0  0  0  0  0  0  0  0  0  0  0  0
    0.8724   -0.5695   -0.1327 H   0  0  0  0  0  0  0  0  0  0  0  0
   -2.0094    0.9557   -3.1638 H   0  0  0  0  0  0  0  0  0  0  0  0
   -1.2059   -0.0142   -1.9436 H   0  0  0  0  0  0  0  0  0  0  0  0
   -3.3548   -1.4273   -1.7900 H   0  0  0  0  0  0  0  0  0  0  0  0
   -2.6048   -1.4650   -3.3928 H   0  0  0  0  0  0  0  0  0  0  0  0
   -4.0180   -0.4497   -3.0956 H   0  0  0  0  0  0  0  0  0  0  0  0
   -2.7504    7.7198   -5.2279 H   0  0  0  0  0  0  0  0  0  0  0  0
   -1.3770    9.5619   -5.4410 H   0  0  0  0  0  0  0  0  0  0  0  0
   -1.2540   10.9665   -6.5155 H   0  0  0  0  0  0  0  0  0  0  0  0
   -3.3203   11.1229   -5.1160 H   0  0  0  0  0  0  0  0  0  0  0  0
   -3.7118   10.9895   -6.8345 H   0  0  0  0  0  0  0  0  0  0  0  0
   -3.8959    9.5910   -5.7771 H   0  0  0  0  0  0  0  0  0  0  0  0
   -0.3004    5.2356   -9.4170 H   0  0  0  0  0  0  0  0  0  0  0  0
    3.0995    6.4888  -12.4528 H   0  0  0  0  0  0  0  0  0  0  0  0
    3.9819    7.9960  -12.0511 H   0  0  0  0  0  0  0  0  0  0  0  0
    2.2824    9.3162  -13.3046 H   0  0  0  0  0  0  0  0  0  0  0  0
    1.4048    7.8280  -13.6985 H   0  0  0  0  0  0  0  0  0  0  0  0
    3.0234    8.1034  -14.3538 H   0  0  0  0  0  0  0  0  0  0  0  0
  1  2  2  0  0  0  0
  2  3  1  0  0  0  0
  3  4  2  0  0  0  0
  3  5  1  0  0  0  0
  5  6  2  0  0  0  0
  6  7  1  0  0  0  0
  7  8  2  0  0  0  0
  8  9  1  0  0  0  0
  9 10  2  0  0  0  0
 10 11  1  0  0  0  0
 11 12  2  0  0  0  0
 12 13  1  0  0  0  0
 13 14  3  0  0  0  0
 12 15  1  0  0  0  0
 15 16  3  0  0  0  0
  8 17  1  0  0  0  0
 17 18  1  0  0  0  0
 18 19  1  0  0  0  0
 19 20  2  0  0  0  0
 20 21  1  0  0  0  0
 21 22  1  0  0  0  0
 21 23  1  0  0  0  0
  1 24  1  0  0  0  0
 24 25  2  0  0  0  0
 25 26  1  0  0  0  0
 26 27  1  0  0  0  0
 27 28  1  0  0  0  0
 28 29  1  0  0  0  0
 26 30  2  0  0  0  0
 30 31  1  0  0  0  0
 30 32  1  0  0  0  0
 32 33  2  0  0  0  0
 33 34  1  0  0  0  0
 34 35  2  0  0  0  0
 35 36  1  0  0  0  0
 36 37  2  0  0  0  0
 37 38  1  0  0  0  0
 38 39  1  0  0  0  0
 39 40  1  0  0  0  0
 38 41  2  0  0  0  0
 33 42  1  0  0  0  0
 42 43  1  0  0  0  0
 43 44  1  0  0  0  0
 44 45  1  0  0  0  0
 45 46  1  0  0  0  0
 46 47  1  0  0  0  0
 47 48  2  0  0  0  0
 48 49  1  0  0  0  0
 49 50  1  0  0  0  0
 47 51  1  0  0  0  0
 51 52  1  0  0  0  0
 52 53  1  0  0  0  0
 53 54  1  0  0  0  0
 54 55  1  0  0  0  0
 55 56  1  0  0  0  0
 56 57  2  0  0  0  0
 57 58  1  0  0  0  0
 58 59  2  0  0  0  0
 59 60  1  0  0  0  0
 60 61  1  0  0  0  0
 61 62  1  0  0  0  0
 60 63  2  0  0  0  0
 55 64  2  0  0  0  0
 64 65  1  0  0  0  0
 65 66  1  0  0  0  0
 66 67  1  0  0  0  0
 67 68  1  0  0  0  0
 68 69  1  0  0  0  0
 69 70  1  0  0  0  0
 70 71  1  0  0  0  0
 71 72  1  0  0  0  0
 72 73  1  0  0  0  0
 73 74  1  0  0  0  0
 71 75  1  0  0  0  0
 75 76  1  0  0  0  0
 68 77  1  0  0  0  0
 77 78  1  0  0  0  0
 64 79  1  0  0  0  0
 79 80  2  0  0  0  0
 80 81  1  0  0  0  0
 81 82  1  0  0  0  0
 82 83  1  0  0  0  0
 83 84  1  0  0  0  0
 81 85  2  0  0  0  0
 85 86  1  0  0  0  0
 85 87  1  0  0  0  0
 87 88  2  0  0  0  0
 88 89  1  0  0  0  0
 89 90  1  0  0  0  0
 90 91  2  0  0  0  0
 90 92  1  0  0  0  0
 92 93  1  0  0  0  0
 93 94  1  0  0  0  0
 92 95  1  0  0  0  0
 95 96  2  0  0  0  0
 11  2  1  0  0  0  0
 23 17  1  0  0  0  0
 31 24  1  0  0  0  0
 74 32  1  0  0  0  0
 86 79  1  0  0  0  0
 95 88  1  0  0  0  0
 10  5  1  0  0  0  0
 22 18  1  0  0  0  0
 41 34  1  0  0  0  0
 73 42  2  0  0  0  0
 23  7  1  0  0  0  0
 72 44  2  0  0  0  0
 70 45  2  0  0  0  0
 50 46  2  0  0  0  0
 69 51  2  0  0  0  0
 67 52  2  0  0  0  0
 66 54  2  0  0  0  0
 63 56  1  0  0  0  0
  1 97  1  0  0  0  0
  6 98  1  0  0  0  0
  9 99  1  0  0  0  0
 17100  1  0  0  0  0
 18101  1  0  0  0  0
 19102  1  0  0  0  0
 20103  1  0  0  0  0
 21104  1  0  0  0  0
 22105  1  0  0  0  0
 22106  1  0  0  0  0
 23107  1  0  0  0  0
 25108  1  0  0  0  0
 28109  1  0  0  0  0
 28110  1  0  0  0  0
 29111  1  0  0  0  0
 29112  1  0  0  0  0
 29113  1  0  0  0  0
 35114  1  0  0  0  0
 36115  1  0  0  0  0
 37116  1  0  0  0  0
 39117  1  0  0  0  0
 39118  1  0  0  0  0
 40119  1  0  0  0  0
 40120  1  0  0  0  0
 40121  1  0  0  0  0
 41122  1  0  0  0  0
 57123  1  0  0  0  0
 58124  1  0  0  0  0
 59125  1  0  0  0  0
 61126  1  0  0  0  0
 61127  1  0  0  0  0
 62128  1  0  0  0  0
 62129  1  0  0  0  0
 62130  1  0  0  0  0
 63131  1  0  0  0  0
 75132  1  0  0  0  0
 75133  1  0  0  0  0
 76134  1  0  0  0  0
 76135  1  0  0  0  0
 76136  1  0  0  0  0
 77137  1  0  0  0  0
 77138  1  0  0  0  0
 78139  1  0  0  0  0
 78140  1  0  0  0  0
 78141  1  0  0  0  0
 80142  1  0  0  0  0
 83143  1  0  0  0  0
 83144  1  0  0  0  0
 84145  1  0  0  0  0
 84146  1  0  0  0  0
 84147  1  0  0  0  0
 87148  1  0  0  0  0
 93149  1  0  0  0  0
 93150  1  0  0  0  0
 94151  1  0  0  0  0
 94152  1  0  0  0  0
 94153  1  0  0  0  0
M  END
