
  xtb     02152214263D
 energy: -309.598273576653 gnorm: 0.000713548861 xtb: 6.4.1 (unknown)
181203  0     0  0            999 V2000
    3.4942    2.0130    7.0586 C   0  0  0  0  0  0  0  0  0  0  0  0
    2.1937    1.5761    6.9921 C   0  0  0  0  0  0  0  0  0  0  0  0
    1.5937    0.8632    5.8619 C   0  0  0  0  0  0  0  0  0  0  0  0
    2.1519    0.4587    4.8546 O   0  0  0  0  0  0  0  0  0  0  0  0
    0.1614    0.7238    6.1655 C   0  0  0  0  0  0  0  0  0  0  0  0
   -0.8133    0.1606    5.3467 C   0  0  0  0  0  0  0  0  0  0  0  0
   -2.0791    0.1995    5.8794 C   0  0  0  0  0  0  0  0  0  0  0  0
   -2.3537    0.7593    7.1339 C   0  0  0  0  0  0  0  0  0  0  0  0
   -1.3974    1.3147    7.9525 C   0  0  0  0  0  0  0  0  0  0  0  0
   -0.1005    1.2839    7.4314 C   0  0  0  0  0  0  0  0  0  0  0  0
    1.1582    1.7893    7.9845 C   0  0  0  0  0  0  0  0  0  0  0  0
    1.3051    2.3526    9.2269 C   0  0  0  0  0  0  0  0  0  0  0  0
    2.5109    2.8415    9.7700 C   0  0  0  0  0  0  0  0  0  0  0  0
    3.4479    3.2651   10.2832 N   0  0  0  0  0  0  0  0  0  0  0  0
    0.2581    2.5167   10.1574 C   0  0  0  0  0  0  0  0  0  0  0  0
   -0.5418    2.6814   10.9648 N   0  0  0  0  0  0  0  0  0  0  0  0
   -3.8312    0.4679    7.0263 C   0  0  0  0  0  0  0  0  0  0  0  0
   -4.3957   -0.7314    7.8267 C   0  0  0  0  0  0  0  0  0  0  0  0
   -3.2525   -1.6988    8.0088 C   0  0  0  0  0  0  0  0  0  0  0  0
   -2.9833   -2.2343    6.8258 C   0  0  0  0  0  0  0  0  0  0  0  0
   -3.9409   -1.6403    5.8227 C   0  0  0  0  0  0  0  0  0  0  0  0
   -5.1784   -1.4438    6.7116 C   0  0  0  0  0  0  0  0  0  0  0  0
   -3.5214   -0.1619    5.6318 C   0  0  0  0  0  0  0  0  0  0  0  0
    4.5185    1.9209    6.1037 C   0  0  0  0  0  0  0  0  0  0  0  0
    5.7770    2.4952    6.2843 C   0  0  0  0  0  0  0  0  0  0  0  0
    6.6258    2.3767    5.1897 C   0  0  0  0  0  0  0  0  0  0  0  0
    8.3040    2.8924    5.1050 S   0  0  0  0  0  0  0  0  0  0  0  0
    8.3589    4.2852    6.2934 C   0  0  0  0  0  0  0  0  0  0  0  0
    8.8101    3.8607    7.6781 C   0  0  0  0  0  0  0  0  0  0  0  0
    6.0217    1.6924    4.1354 C   0  0  0  0  0  0  0  0  0  0  0  0
    4.4204    1.1594    4.5385 S   0  0  0  0  0  0  0  0  0  0  0  0
    6.4491    1.4403    2.7992 C   0  0  0  0  0  0  0  0  0  0  0  0
    7.0301    2.2791    1.8626 C   0  0  0  0  0  0  0  0  0  0  0  0
    7.4802    3.6470    2.1189 C   0  0  0  0  0  0  0  0  0  0  0  0
    8.7039    4.0797    1.6194 C   0  0  0  0  0  0  0  0  0  0  0  0
    9.1372    5.3658    1.8809 C   0  0  0  0  0  0  0  0  0  0  0  0
    8.3547    6.2283    2.6275 C   0  0  0  0  0  0  0  0  0  0  0  0
    7.1167    5.8206    3.1103 C   0  0  0  0  0  0  0  0  0  0  0  0
    6.2386    6.7748    3.8689 C   0  0  0  0  0  0  0  0  0  0  0  0
    5.3989    7.6108    2.9013 C   0  0  0  0  0  0  0  0  0  0  0  0
    6.6870    4.5312    2.8433 C   0  0  0  0  0  0  0  0  0  0  0  0
    7.0068    1.6997    0.5771 C   0  0  0  0  0  0  0  0  0  0  0  0
    7.3118    2.3518   -1.0205 S   0  0  0  0  0  0  0  0  0  0  0  0
    6.5456    0.9595   -1.7220 C   0  0  0  0  0  0  0  0  0  0  0  0
    6.0129    0.5341   -2.9566 C   0  0  0  0  0  0  0  0  0  0  0  0
    6.0252    1.0762   -4.2619 C   0  0  0  0  0  0  0  0  0  0  0  0
    5.1881    0.4863   -5.2769 C   0  0  0  0  0  0  0  0  0  0  0  0
    5.3082    1.0978   -6.4437 N   0  0  0  0  0  0  0  0  0  0  0  0
    6.3756    2.3049   -6.2890 S   0  0  0  0  0  0  0  0  0  0  0  0
    6.7226    2.1025   -4.7201 N   0  0  0  0  0  0  0  0  0  0  0  0
    4.2897   -0.5459   -4.9182 C   0  0  0  0  0  0  0  0  0  0  0  0
    3.1288   -1.0438   -5.5397 C   0  0  0  0  0  0  0  0  0  0  0  0
    2.1771   -0.7828   -6.9670 S   0  0  0  0  0  0  0  0  0  0  0  0
    0.8726   -1.7190   -6.2632 C   0  0  0  0  0  0  0  0  0  0  0  0
   -0.4660   -1.9765   -6.6416 C   0  0  0  0  0  0  0  0  0  0  0  0
   -1.0910   -1.5573   -7.8920 C   0  0  0  0  0  0  0  0  0  0  0  0
   -0.7341   -0.3550   -8.4968 C   0  0  0  0  0  0  0  0  0  0  0  0
   -1.3545    0.0416   -9.6659 C   0  0  0  0  0  0  0  0  0  0  0  0
   -2.3307   -0.7499  -10.2442 C   0  0  0  0  0  0  0  0  0  0  0  0
   -2.6908   -1.9599   -9.6633 C   0  0  0  0  0  0  0  0  0  0  0  0
   -3.7130   -2.8492  -10.3123 C   0  0  0  0  0  0  0  0  0  0  0  0
   -3.0377   -3.8288  -11.2739 C   0  0  0  0  0  0  0  0  0  0  0  0
   -2.0574   -2.3568   -8.4974 C   0  0  0  0  0  0  0  0  0  0  0  0
   -1.1186   -2.7127   -5.6706 C   0  0  0  0  0  0  0  0  0  0  0  0
   -0.0827   -3.1435   -4.3246 S   0  0  0  0  0  0  0  0  0  0  0  0
    1.2151   -2.2546   -5.0209 C   0  0  0  0  0  0  0  0  0  0  0  0
    2.4928   -1.8642   -4.6048 C   0  0  0  0  0  0  0  0  0  0  0  0
    3.2277   -1.9401   -3.4528 N   0  0  0  0  0  0  0  0  0  0  0  0
    4.3250   -1.1139   -3.6155 C   0  0  0  0  0  0  0  0  0  0  0  0
    5.2836   -0.6542   -2.6838 C   0  0  0  0  0  0  0  0  0  0  0  0
    5.4641   -1.0081   -1.3589 N   0  0  0  0  0  0  0  0  0  0  0  0
    6.1694    0.0090   -0.7682 C   0  0  0  0  0  0  0  0  0  0  0  0
    6.4172    0.4351    0.5388 C   0  0  0  0  0  0  0  0  0  0  0  0
    5.9155   -0.0844    2.1039 S   0  0  0  0  0  0  0  0  0  0  0  0
    5.4859   -2.3500   -0.8149 C   0  0  0  0  0  0  0  0  0  0  0  0
    6.8866   -2.7460   -0.3514 C   0  0  0  0  0  0  0  0  0  0  0  0
    2.5885   -2.3948   -2.2361 C   0  0  0  0  0  0  0  0  0  0  0  0
    2.1076   -1.2271   -1.3791 C   0  0  0  0  0  0  0  0  0  0  0  0
   -2.5275   -2.9666   -5.4743 C   0  0  0  0  0  0  0  0  0  0  0  0
   -2.9781   -4.1639   -4.9365 C   0  0  0  0  0  0  0  0  0  0  0  0
   -2.1266   -5.2001   -4.8062 F   0  0  0  0  0  0  0  0  0  0  0  0
   -4.2874   -4.3290   -4.4851 C   0  0  0  0  0  0  0  0  0  0  0  0
   -4.6323   -5.4979   -3.9192 F   0  0  0  0  0  0  0  0  0  0  0  0
   -5.1976   -3.2870   -4.5029 C   0  0  0  0  0  0  0  0  0  0  0  0
   -4.8015   -2.0867   -5.1500 C   0  0  0  0  0  0  0  0  0  0  0  0
   -5.7099   -1.1044   -5.3086 N   0  0  0  0  0  0  0  0  0  0  0  0
   -5.3242    0.0150   -5.8585 C   0  0  0  0  0  0  0  0  0  0  0  0
   -6.1857    1.0142   -6.0356 O   0  0  0  0  0  0  0  0  0  0  0  0
   -7.5156    0.8160   -5.5632 C   0  0  0  0  0  0  0  0  0  0  0  0
   -8.3248   -0.1151   -6.4549 C   0  0  0  0  0  0  0  0  0  0  0  0
   -3.9652    0.2179   -6.2795 C   0  0  0  0  0  0  0  0  0  0  0  0
   -3.0999   -0.7430   -6.1610 N   0  0  0  0  0  0  0  0  0  0  0  0
   -3.4824   -1.9235   -5.6296 C   0  0  0  0  0  0  0  0  0  0  0  0
   -3.5391    1.5156   -6.8678 C   0  0  0  0  0  0  0  0  0  0  0  0
   -6.4818   -3.3876   -3.8508 C   0  0  0  0  0  0  0  0  0  0  0  0
   -6.9331   -2.4435   -2.9932 C   0  0  0  0  0  0  0  0  0  0  0  0
   -6.0703   -1.4025   -2.3626 C   0  0  0  0  0  0  0  0  0  0  0  0
   -4.9273   -1.1076   -2.6350 O   0  0  0  0  0  0  0  0  0  0  0  0
   -6.8589   -0.8715   -1.2353 C   0  0  0  0  0  0  0  0  0  0  0  0
   -6.4376    0.0749   -0.3029 C   0  0  0  0  0  0  0  0  0  0  0  0
   -7.3583    0.3414    0.6808 C   0  0  0  0  0  0  0  0  0  0  0  0
   -8.6054   -0.2968    0.7441 C   0  0  0  0  0  0  0  0  0  0  0  0
   -9.0397   -1.2218   -0.1751 C   0  0  0  0  0  0  0  0  0  0  0  0
   -8.1208   -1.4994   -1.1925 C   0  0  0  0  0  0  0  0  0  0  0  0
   -8.2247   -2.4100   -2.3263 C   0  0  0  0  0  0  0  0  0  0  0  0
   -9.3570   -3.0413   -2.7616 C   0  0  0  0  0  0  0  0  0  0  0  0
   -9.4258   -3.8037   -3.9483 C   0  0  0  0  0  0  0  0  0  0  0  0
   -9.5579   -4.4043   -4.9173 N   0  0  0  0  0  0  0  0  0  0  0  0
  -10.6089   -2.9651   -2.1161 C   0  0  0  0  0  0  0  0  0  0  0  0
  -11.6501   -2.9386   -1.6338 N   0  0  0  0  0  0  0  0  0  0  0  0
   -8.9992    0.4266    2.0072 C   0  0  0  0  0  0  0  0  0  0  0  0
   -8.8980   -0.3443    3.3475 C   0  0  0  0  0  0  0  0  0  0  0  0
   -7.8244   -1.3889    3.1691 C   0  0  0  0  0  0  0  0  0  0  0  0
   -6.6559   -0.7644    3.1061 C   0  0  0  0  0  0  0  0  0  0  0  0
   -6.9194    0.7154    3.2370 C   0  0  0  0  0  0  0  0  0  0  0  0
   -8.1308    0.6934    4.1826 C   0  0  0  0  0  0  0  0  0  0  0  0
   -7.6192    1.1521    1.9263 C   0  0  0  0  0  0  0  0  0  0  0  0
    3.7885    2.5525    7.9505 H   0  0  0  0  0  0  0  0  0  0  0  0
   -0.5568   -0.2520    4.3835 H   0  0  0  0  0  0  0  0  0  0  0  0
   -1.6289    1.7452    8.9123 H   0  0  0  0  0  0  0  0  0  0  0  0
   -4.4890    1.3345    7.0583 H   0  0  0  0  0  0  0  0  0  0  0  0
   -4.9407   -0.4577    8.7260 H   0  0  0  0  0  0  0  0  0  0  0  0
   -2.7356   -1.8459    8.9388 H   0  0  0  0  0  0  0  0  0  0  0  0
   -2.1961   -2.9190    6.5697 H   0  0  0  0  0  0  0  0  0  0  0  0
   -4.0737   -2.1967    4.8987 H   0  0  0  0  0  0  0  0  0  0  0  0
   -5.9452   -0.8233    6.2496 H   0  0  0  0  0  0  0  0  0  0  0  0
   -5.6163   -2.3854    7.0388 H   0  0  0  0  0  0  0  0  0  0  0  0
   -3.9835    0.2875    4.7549 H   0  0  0  0  0  0  0  0  0  0  0  0
    6.0380    2.9866    7.2045 H   0  0  0  0  0  0  0  0  0  0  0  0
    9.0686    4.9853    5.8526 H   0  0  0  0  0  0  0  0  0  0  0  0
    7.3715    4.7431    6.2989 H   0  0  0  0  0  0  0  0  0  0  0  0
    9.8048    3.4243    7.6314 H   0  0  0  0  0  0  0  0  0  0  0  0
    8.1360    3.1225    8.1057 H   0  0  0  0  0  0  0  0  0  0  0  0
    8.8397    4.7266    8.3367 H   0  0  0  0  0  0  0  0  0  0  0  0
    9.3189    3.4003    1.0491 H   0  0  0  0  0  0  0  0  0  0  0  0
   10.0940    5.6960    1.5041 H   0  0  0  0  0  0  0  0  0  0  0  0
    8.7037    7.2296    2.8364 H   0  0  0  0  0  0  0  0  0  0  0  0
    5.5726    6.2193    4.5335 H   0  0  0  0  0  0  0  0  0  0  0  0
    6.8541    7.4403    4.4785 H   0  0  0  0  0  0  0  0  0  0  0  0
    4.7625    8.3026    3.4484 H   0  0  0  0  0  0  0  0  0  0  0  0
    4.7695    6.9648    2.2935 H   0  0  0  0  0  0  0  0  0  0  0  0
    6.0438    8.1817    2.2373 H   0  0  0  0  0  0  0  0  0  0  0  0
    5.7189    4.2064    3.1985 H   0  0  0  0  0  0  0  0  0  0  0  0
    0.0114    0.2771   -8.0400 H   0  0  0  0  0  0  0  0  0  0  0  0
   -1.0783    0.9787  -10.1273 H   0  0  0  0  0  0  0  0  0  0  0  0
   -2.8165   -0.4299  -11.1551 H   0  0  0  0  0  0  0  0  0  0  0  0
   -4.2541   -3.4103   -9.5472 H   0  0  0  0  0  0  0  0  0  0  0  0
   -4.4340   -2.2425  -10.8642 H   0  0  0  0  0  0  0  0  0  0  0  0
   -2.5029   -3.2875  -12.0510 H   0  0  0  0  0  0  0  0  0  0  0  0
   -2.3244   -4.4518  -10.7390 H   0  0  0  0  0  0  0  0  0  0  0  0
   -3.7778   -4.4723  -11.7439 H   0  0  0  0  0  0  0  0  0  0  0  0
   -2.3162   -3.3070   -8.0520 H   0  0  0  0  0  0  0  0  0  0  0  0
    5.1854   -3.0355   -1.6075 H   0  0  0  0  0  0  0  0  0  0  0  0
    4.7898   -2.4170    0.0284 H   0  0  0  0  0  0  0  0  0  0  0  0
    6.8830   -3.7896   -0.0485 H   0  0  0  0  0  0  0  0  0  0  0  0
    7.6028   -2.6196   -1.1605 H   0  0  0  0  0  0  0  0  0  0  0  0
    7.2040   -2.1446    0.4953 H   0  0  0  0  0  0  0  0  0  0  0  0
    3.2489   -3.0426   -1.6632 H   0  0  0  0  0  0  0  0  0  0  0  0
    1.7301   -2.9962   -2.5441 H   0  0  0  0  0  0  0  0  0  0  0  0
    2.9409   -0.6062   -1.0610 H   0  0  0  0  0  0  0  0  0  0  0  0
    1.5985   -1.6058   -0.4975 H   0  0  0  0  0  0  0  0  0  0  0  0
    1.4123   -0.6108   -1.9442 H   0  0  0  0  0  0  0  0  0  0  0  0
   -7.4730    0.4188   -4.5431 H   0  0  0  0  0  0  0  0  0  0  0  0
   -7.9506    1.8182   -5.5519 H   0  0  0  0  0  0  0  0  0  0  0  0
   -9.3522   -0.1503   -6.1038 H   0  0  0  0  0  0  0  0  0  0  0  0
   -7.9082   -1.1183   -6.4248 H   0  0  0  0  0  0  0  0  0  0  0  0
   -8.3140    0.2447   -7.4808 H   0  0  0  0  0  0  0  0  0  0  0  0
   -4.1251    1.7234   -7.7614 H   0  0  0  0  0  0  0  0  0  0  0  0
   -2.4851    1.4683   -7.1224 H   0  0  0  0  0  0  0  0  0  0  0  0
   -3.7206    2.3216   -6.1590 H   0  0  0  0  0  0  0  0  0  0  0  0
   -7.0554   -4.2885   -4.0296 H   0  0  0  0  0  0  0  0  0  0  0  0
   -5.4640    0.5330   -0.3825 H   0  0  0  0  0  0  0  0  0  0  0  0
  -10.0008   -1.7054   -0.1158 H   0  0  0  0  0  0  0  0  0  0  0  0
   -9.9006    1.0331    1.9485 H   0  0  0  0  0  0  0  0  0  0  0  0
   -9.8491   -0.6963    3.7372 H   0  0  0  0  0  0  0  0  0  0  0  0
   -8.0232   -2.4382    3.0550 H   0  0  0  0  0  0  0  0  0  0  0  0
   -5.6857   -1.1875    2.9228 H   0  0  0  0  0  0  0  0  0  0  0  0
   -6.0729    1.3351    3.5228 H   0  0  0  0  0  0  0  0  0  0  0  0
   -8.6404    1.6529    4.2575 H   0  0  0  0  0  0  0  0  0  0  0  0
   -7.8847    0.3312    5.1799 H   0  0  0  0  0  0  0  0  0  0  0  0
   -7.6214    2.2327    1.7968 H   0  0  0  0  0  0  0  0  0  0  0  0
  1  2  2  0  0  0  0
  2  3  1  0  0  0  0
  3  4  2  0  0  0  0
  3  5  1  0  0  0  0
  5  6  2  0  0  0  0
  6  7  1  0  0  0  0
  7  8  2  0  0  0  0
  8  9  1  0  0  0  0
  9 10  2  0  0  0  0
 10 11  1  0  0  0  0
 11 12  2  0  0  0  0
 12 13  1  0  0  0  0
 13 14  3  0  0  0  0
 12 15  1  0  0  0  0
 15 16  3  0  0  0  0
  8 17  1  0  0  0  0
 17 18  1  0  0  0  0
 18 19  1  0  0  0  0
 19 20  2  0  0  0  0
 20 21  1  0  0  0  0
 21 22  1  0  0  0  0
 21 23  1  0  0  0  0
  1 24  1  0  0  0  0
 24 25  2  0  0  0  0
 25 26  1  0  0  0  0
 26 27  1  0  0  0  0
 27 28  1  0  0  0  0
 28 29  1  0  0  0  0
 26 30  2  0  0  0  0
 30 31  1  0  0  0  0
 30 32  1  0  0  0  0
 32 33  2  0  0  0  0
 33 34  1  0  0  0  0
 34 35  2  0  0  0  0
 35 36  1  0  0  0  0
 36 37  2  0  0  0  0
 37 38  1  0  0  0  0
 38 39  1  0  0  0  0
 39 40  1  0  0  0  0
 38 41  2  0  0  0  0
 33 42  1  0  0  0  0
 42 43  1  0  0  0  0
 43 44  1  0  0  0  0
 44 45  1  0  0  0  0
 45 46  1  0  0  0  0
 46 47  1  0  0  0  0
 47 48  2  0  0  0  0
 48 49  1  0  0  0  0
 49 50  1  0  0  0  0
 47 51  1  0  0  0  0
 51 52  1  0  0  0  0
 52 53  1  0  0  0  0
 53 54  1  0  0  0  0
 54 55  1  0  0  0  0
 55 56  1  0  0  0  0
 56 57  2  0  0  0  0
 57 58  1  0  0  0  0
 58 59  2  0  0  0  0
 59 60  1  0  0  0  0
 60 61  1  0  0  0  0
 61 62  1  0  0  0  0
 60 63  2  0  0  0  0
 55 64  2  0  0  0  0
 64 65  1  0  0  0  0
 65 66  1  0  0  0  0
 66 67  1  0  0  0  0
 67 68  1  0  0  0  0
 68 69  1  0  0  0  0
 69 70  1  0  0  0  0
 70 71  1  0  0  0  0
 71 72  1  0  0  0  0
 72 73  1  0  0  0  0
 73 74  1  0  0  0  0
 71 75  1  0  0  0  0
 75 76  1  0  0  0  0
 68 77  1  0  0  0  0
 77 78  1  0  0  0  0
 64 79  1  0  0  0  0
 79 80  2  0  0  0  0
 80 81  1  0  0  0  0
 80 82  1  0  0  0  0
 82 83  1  0  0  0  0
 82 84  2  0  0  0  0
 84 85  1  0  0  0  0
 85 86  2  0  0  0  0
 86 87  1  0  0  0  0
 87 88  1  0  0  0  0
 88 89  1  0  0  0  0
 89 90  1  0  0  0  0
 87 91  2  0  0  0  0
 91 92  1  0  0  0  0
 92 93  2  0  0  0  0
 91 94  1  0  0  0  0
 84 95  1  0  0  0  0
 95 96  2  0  0  0  0
 96 97  1  0  0  0  0
 97 98  2  0  0  0  0
 97 99  1  0  0  0  0
 99100  2  0  0  0  0
100101  1  0  0  0  0
101102  2  0  0  0  0
102103  1  0  0  0  0
103104  2  0  0  0  0
104105  1  0  0  0  0
105106  2  0  0  0  0
106107  1  0  0  0  0
107108  3  0  0  0  0
106109  1  0  0  0  0
109110  3  0  0  0  0
102111  1  0  0  0  0
111112  1  0  0  0  0
112113  1  0  0  0  0
113114  2  0  0  0  0
114115  1  0  0  0  0
115116  1  0  0  0  0
115117  1  0  0  0  0
 11  2  1  0  0  0  0
 23 17  1  0  0  0  0
 31 24  1  0  0  0  0
 74 32  1  0  0  0  0
 93 79  1  0  0  0  0
105 96  1  0  0  0  0
117111  1  0  0  0  0
 10  5  1  0  0  0  0
 22 18  1  0  0  0  0
 41 34  1  0  0  0  0
 73 42  2  0  0  0  0
 93 85  1  0  0  0  0
104 99  1  0  0  0  0
116112  1  0  0  0  0
 23  7  1  0  0  0  0
 72 44  2  0  0  0  0
117101  1  0  0  0  0
 70 45  2  0  0  0  0
 50 46  2  0  0  0  0
 69 51  2  0  0  0  0
 67 52  2  0  0  0  0
 66 54  2  0  0  0  0
 63 56  1  0  0  0  0
  1118  1  0  0  0  0
  6119  1  0  0  0  0
  9120  1  0  0  0  0
 17121  1  0  0  0  0
 18122  1  0  0  0  0
 19123  1  0  0  0  0
 20124  1  0  0  0  0
 21125  1  0  0  0  0
 22126  1  0  0  0  0
 22127  1  0  0  0  0
 23128  1  0  0  0  0
 25129  1  0  0  0  0
 28130  1  0  0  0  0
 28131  1  0  0  0  0
 29132  1  0  0  0  0
 29133  1  0  0  0  0
 29134  1  0  0  0  0
 35135  1  0  0  0  0
 36136  1  0  0  0  0
 37137  1  0  0  0  0
 39138  1  0  0  0  0
 39139  1  0  0  0  0
 40140  1  0  0  0  0
 40141  1  0  0  0  0
 40142  1  0  0  0  0
 41143  1  0  0  0  0
 57144  1  0  0  0  0
 58145  1  0  0  0  0
 59146  1  0  0  0  0
 61147  1  0  0  0  0
 61148  1  0  0  0  0
 62149  1  0  0  0  0
 62150  1  0  0  0  0
 62151  1  0  0  0  0
 63152  1  0  0  0  0
 75153  1  0  0  0  0
 75154  1  0  0  0  0
 76155  1  0  0  0  0
 76156  1  0  0  0  0
 76157  1  0  0  0  0
 77158  1  0  0  0  0
 77159  1  0  0  0  0
 78160  1  0  0  0  0
 78161  1  0  0  0  0
 78162  1  0  0  0  0
 89163  1  0  0  0  0
 89164  1  0  0  0  0
 90165  1  0  0  0  0
 90166  1  0  0  0  0
 90167  1  0  0  0  0
 94168  1  0  0  0  0
 94169  1  0  0  0  0
 94170  1  0  0  0  0
 95171  1  0  0  0  0
100172  1  0  0  0  0
103173  1  0  0  0  0
111174  1  0  0  0  0
112175  1  0  0  0  0
113176  1  0  0  0  0
114177  1  0  0  0  0
115178  1  0  0  0  0
116179  1  0  0  0  0
116180  1  0  0  0  0
117181  1  0  0  0  0
M  END
