
  xtb     02142220153D
 energy: -279.594712471448 gnorm: 0.000279874923 xtb: 6.4.1 (unknown)
158176  0     0  0            999 V2000
   -8.4854    4.2846   -2.8729 C   0  0  0  0  0  0  0  0  0  0  0  0
   -9.6184    4.2243   -2.1117 C   0  0  0  0  0  0  0  0  0  0  0  0
  -10.1575    3.0759   -1.3441 C   0  0  0  0  0  0  0  0  0  0  0  0
   -9.8986    1.8959   -1.4582 O   0  0  0  0  0  0  0  0  0  0  0  0
  -11.1167    3.6535   -0.3847 C   0  0  0  0  0  0  0  0  0  0  0  0
  -11.7812    2.9748    0.6340 C   0  0  0  0  0  0  0  0  0  0  0  0
  -12.5841    3.7769    1.4078 C   0  0  0  0  0  0  0  0  0  0  0  0
  -12.7215    5.1536    1.1822 C   0  0  0  0  0  0  0  0  0  0  0  0
  -12.0850    5.8317    0.1700 C   0  0  0  0  0  0  0  0  0  0  0  0
  -11.2595    5.0334   -0.6276 C   0  0  0  0  0  0  0  0  0  0  0  0
  -10.4182    5.3898   -1.7661 C   0  0  0  0  0  0  0  0  0  0  0  0
  -10.4359    6.5936   -2.4202 C   0  0  0  0  0  0  0  0  0  0  0  0
  -11.2497    7.6856   -2.0520 C   0  0  0  0  0  0  0  0  0  0  0  0
  -11.8792    8.6144   -1.8084 N   0  0  0  0  0  0  0  0  0  0  0  0
   -9.6942    6.9079   -3.5791 C   0  0  0  0  0  0  0  0  0  0  0  0
   -9.1441    7.2400   -4.5313 N   0  0  0  0  0  0  0  0  0  0  0  0
  -13.6519    5.3329    2.3556 C   0  0  0  0  0  0  0  0  0  0  0  0
  -13.0658    5.9482    3.6509 C   0  0  0  0  0  0  0  0  0  0  0  0
  -11.5927    5.6231    3.6537 C   0  0  0  0  0  0  0  0  0  0  0  0
  -11.4658    4.3198    3.8648 C   0  0  0  0  0  0  0  0  0  0  0  0
  -12.8513    3.7401    4.0087 C   0  0  0  0  0  0  0  0  0  0  0  0
  -13.5709    4.9219    4.6778 C   0  0  0  0  0  0  0  0  0  0  0  0
  -13.5018    3.7989    2.6041 C   0  0  0  0  0  0  0  0  0  0  0  0
   -7.5361    3.2900   -3.1860 C   0  0  0  0  0  0  0  0  0  0  0  0
   -7.5183    1.9165   -3.0429 C   0  0  0  0  0  0  0  0  0  0  0  0
   -6.3081    1.3390   -3.4177 C   0  0  0  0  0  0  0  0  0  0  0  0
   -6.0156   -0.4008   -3.3265 S   0  0  0  0  0  0  0  0  0  0  0  0
   -5.8360   -0.7677   -5.1146 C   0  0  0  0  0  0  0  0  0  0  0  0
   -7.1157   -0.4915   -5.8767 C   0  0  0  0  0  0  0  0  0  0  0  0
   -5.3531    2.2513   -3.8584 C   0  0  0  0  0  0  0  0  0  0  0  0
   -6.0148    3.8537   -3.8691 S   0  0  0  0  0  0  0  0  0  0  0  0
   -3.9753    2.0117   -4.1012 C   0  0  0  0  0  0  0  0  0  0  0  0
   -3.0513    2.8519   -4.7056 C   0  0  0  0  0  0  0  0  0  0  0  0
   -3.4003    4.0156   -5.5199 C   0  0  0  0  0  0  0  0  0  0  0  0
   -4.3727    3.9112   -6.5125 C   0  0  0  0  0  0  0  0  0  0  0  0
   -4.6770    5.0074   -7.2951 C   0  0  0  0  0  0  0  0  0  0  0  0
   -4.0211    6.2096   -7.0951 C   0  0  0  0  0  0  0  0  0  0  0  0
   -3.0418    6.3283   -6.1169 C   0  0  0  0  0  0  0  0  0  0  0  0
   -2.3640    7.6438   -5.8667 C   0  0  0  0  0  0  0  0  0  0  0  0
   -3.1613    8.4615   -4.8483 C   0  0  0  0  0  0  0  0  0  0  0  0
   -2.7358    5.2230   -5.3376 C   0  0  0  0  0  0  0  0  0  0  0  0
   -1.7350    2.4145   -4.4751 C   0  0  0  0  0  0  0  0  0  0  0  0
   -0.1711    3.0687   -4.9090 S   0  0  0  0  0  0  0  0  0  0  0  0
    0.5832    1.7775   -4.0344 C   0  0  0  0  0  0  0  0  0  0  0  0
    1.8615    1.3760   -3.6173 C   0  0  0  0  0  0  0  0  0  0  0  0
    3.1210    1.9946   -3.7761 C   0  0  0  0  0  0  0  0  0  0  0  0
    4.2473    1.4645   -3.0644 C   0  0  0  0  0  0  0  0  0  0  0  0
    5.3460    2.1793   -3.2505 N   0  0  0  0  0  0  0  0  0  0  0  0
    4.9947    3.4094   -4.2432 S   0  0  0  0  0  0  0  0  0  0  0  0
    3.4259    3.0807   -4.4687 N   0  0  0  0  0  0  0  0  0  0  0  0
    4.0835    0.2832   -2.3087 C   0  0  0  0  0  0  0  0  0  0  0  0
    5.0014   -0.4630   -1.5537 C   0  0  0  0  0  0  0  0  0  0  0  0
    6.6492   -0.3786   -1.0286 S   0  0  0  0  0  0  0  0  0  0  0  0
    6.4188   -1.8746   -0.1535 C   0  0  0  0  0  0  0  0  0  0  0  0
    7.2686   -2.6352    0.6674 C   0  0  0  0  0  0  0  0  0  0  0  0
    8.6759   -2.2904    0.8913 C   0  0  0  0  0  0  0  0  0  0  0  0
    9.6831   -3.1999    0.5812 C   0  0  0  0  0  0  0  0  0  0  0  0
   11.0065   -2.8454    0.7617 C   0  0  0  0  0  0  0  0  0  0  0  0
   11.3325   -1.5964    1.2617 C   0  0  0  0  0  0  0  0  0  0  0  0
   10.3392   -0.6749    1.5690 C   0  0  0  0  0  0  0  0  0  0  0  0
   10.6864    0.6633    2.1533 C   0  0  0  0  0  0  0  0  0  0  0  0
   10.7460    0.5769    3.6802 C   0  0  0  0  0  0  0  0  0  0  0  0
    9.0127   -1.0303    1.3710 C   0  0  0  0  0  0  0  0  0  0  0  0
    6.6139   -3.7465    1.1761 C   0  0  0  0  0  0  0  0  0  0  0  0
    4.9588   -3.8744    0.5965 S   0  0  0  0  0  0  0  0  0  0  0  0
    5.1328   -2.4068   -0.2945 C   0  0  0  0  0  0  0  0  0  0  0  0
    4.3214   -1.5931   -1.0915 C   0  0  0  0  0  0  0  0  0  0  0  0
    3.0197   -1.5683   -1.5140 N   0  0  0  0  0  0  0  0  0  0  0  0
    2.8378   -0.4055   -2.2469 C   0  0  0  0  0  0  0  0  0  0  0  0
    1.6924    0.2039   -2.8243 C   0  0  0  0  0  0  0  0  0  0  0  0
    0.3390   -0.0834   -2.7607 N   0  0  0  0  0  0  0  0  0  0  0  0
   -0.3254    0.8769   -3.4725 C   0  0  0  0  0  0  0  0  0  0  0  0
   -1.6531    1.2407   -3.7226 C   0  0  0  0  0  0  0  0  0  0  0  0
   -3.2158    0.6281   -3.3151 S   0  0  0  0  0  0  0  0  0  0  0  0
   -0.4001   -0.9216   -1.8438 C   0  0  0  0  0  0  0  0  0  0  0  0
   -0.1904   -0.4885   -0.3951 C   0  0  0  0  0  0  0  0  0  0  0  0
    2.2478   -2.7921   -1.4968 C   0  0  0  0  0  0  0  0  0  0  0  0
    2.0016   -3.3195   -2.9077 C   0  0  0  0  0  0  0  0  0  0  0  0
    7.0528   -4.6756    2.1573 C   0  0  0  0  0  0  0  0  0  0  0  0
    8.1118   -4.5544    3.0323 C   0  0  0  0  0  0  0  0  0  0  0  0
    8.1922   -5.5845    3.9758 C   0  0  0  0  0  0  0  0  0  0  0  0
    9.4698   -5.7473    5.1365 S   0  0  0  0  0  0  0  0  0  0  0  0
   10.8664   -4.8870    4.3146 C   0  0  0  0  0  0  0  0  0  0  0  0
   11.3128   -5.5970    3.0526 C   0  0  0  0  0  0  0  0  0  0  0  0
    7.1675   -6.5371    3.8362 C   0  0  0  0  0  0  0  0  0  0  0  0
    6.1547   -6.1283    2.4619 S   0  0  0  0  0  0  0  0  0  0  0  0
    6.8800   -7.7283    4.5031 C   0  0  0  0  0  0  0  0  0  0  0  0
    7.1835   -8.0648    5.8065 C   0  0  0  0  0  0  0  0  0  0  0  0
    7.4663   -7.0924    6.8628 C   0  0  0  0  0  0  0  0  0  0  0  0
    7.5712   -5.8857    6.7473 O   0  0  0  0  0  0  0  0  0  0  0  0
    7.4857   -7.8734    8.1245 C   0  0  0  0  0  0  0  0  0  0  0  0
    7.2091   -9.2237    7.8450 C   0  0  0  0  0  0  0  0  0  0  0  0
    7.1404  -10.1566    8.8646 C   0  0  0  0  0  0  0  0  0  0  0  0
    7.3545   -9.7191   10.1643 C   0  0  0  0  0  0  0  0  0  0  0  0
    7.2897  -10.6015   11.1663 F   0  0  0  0  0  0  0  0  0  0  0  0
    7.6340   -8.3875   10.4583 C   0  0  0  0  0  0  0  0  0  0  0  0
    7.8389   -8.0059   11.7232 F   0  0  0  0  0  0  0  0  0  0  0  0
    7.6976   -7.4508    9.4234 C   0  0  0  0  0  0  0  0  0  0  0  0
    7.9661   -6.1797    9.7121 F   0  0  0  0  0  0  0  0  0  0  0  0
    7.0395   -9.3713    6.3977 C   0  0  0  0  0  0  0  0  0  0  0  0
    6.8567  -10.5575    5.7334 C   0  0  0  0  0  0  0  0  0  0  0  0
    6.8047  -10.6887    4.3295 C   0  0  0  0  0  0  0  0  0  0  0  0
    6.7759  -10.8785    3.1973 N   0  0  0  0  0  0  0  0  0  0  0  0
    6.7258  -11.8106    6.3659 C   0  0  0  0  0  0  0  0  0  0  0  0
    6.6040  -12.8563    6.8236 N   0  0  0  0  0  0  0  0  0  0  0  0
   -8.2028    5.2660   -3.2372 H   0  0  0  0  0  0  0  0  0  0  0  0
  -11.6431    1.9141    0.7744 H   0  0  0  0  0  0  0  0  0  0  0  0
  -12.1989    6.8910    0.0108 H   0  0  0  0  0  0  0  0  0  0  0  0
  -14.6429    5.7187    2.1251 H   0  0  0  0  0  0  0  0  0  0  0  0
  -13.3274    6.9903    3.8136 H   0  0  0  0  0  0  0  0  0  0  0  0
  -10.8203    6.3419    3.4513 H   0  0  0  0  0  0  0  0  0  0  0  0
  -10.5664    3.7322    3.8737 H   0  0  0  0  0  0  0  0  0  0  0  0
  -12.9179    2.7715    4.4972 H   0  0  0  0  0  0  0  0  0  0  0  0
  -14.6550    4.8187    4.6913 H   0  0  0  0  0  0  0  0  0  0  0  0
  -13.2075    5.1203    5.6850 H   0  0  0  0  0  0  0  0  0  0  0  0
  -14.3950    3.1813    2.5340 H   0  0  0  0  0  0  0  0  0  0  0  0
   -8.3496    1.3487   -2.6682 H   0  0  0  0  0  0  0  0  0  0  0  0
   -5.0014   -0.1810   -5.4991 H   0  0  0  0  0  0  0  0  0  0  0  0
   -5.5745   -1.8243   -5.1462 H   0  0  0  0  0  0  0  0  0  0  0  0
   -7.9379   -1.0661   -5.4569 H   0  0  0  0  0  0  0  0  0  0  0  0
   -6.9912   -0.7697   -6.9214 H   0  0  0  0  0  0  0  0  0  0  0  0
   -7.3742    0.5649   -5.8277 H   0  0  0  0  0  0  0  0  0  0  0  0
   -4.8734    2.9675   -6.6756 H   0  0  0  0  0  0  0  0  0  0  0  0
   -5.4282    4.9243   -8.0663 H   0  0  0  0  0  0  0  0  0  0  0  0
   -4.2678    7.0641   -7.7081 H   0  0  0  0  0  0  0  0  0  0  0  0
   -1.3551    7.4745   -5.4856 H   0  0  0  0  0  0  0  0  0  0  0  0
   -2.2886    8.2053   -6.7998 H   0  0  0  0  0  0  0  0  0  0  0  0
   -2.6766    9.4174   -4.6648 H   0  0  0  0  0  0  0  0  0  0  0  0
   -4.1681    8.6463   -5.2158 H   0  0  0  0  0  0  0  0  0  0  0  0
   -3.2364    7.9227   -3.9063 H   0  0  0  0  0  0  0  0  0  0  0  0
   -1.9815    5.3027   -4.5682 H   0  0  0  0  0  0  0  0  0  0  0  0
    9.4219   -4.1711    0.1870 H   0  0  0  0  0  0  0  0  0  0  0  0
   11.7883   -3.5449    0.5056 H   0  0  0  0  0  0  0  0  0  0  0  0
   12.3694   -1.3294    1.4058 H   0  0  0  0  0  0  0  0  0  0  0  0
   11.6549    0.9932    1.7732 H   0  0  0  0  0  0  0  0  0  0  0  0
    9.9349    1.3992    1.8625 H   0  0  0  0  0  0  0  0  0  0  0  0
   11.5030   -0.1401    3.9913 H   0  0  0  0  0  0  0  0  0  0  0  0
    9.7862    0.2576    4.0804 H   0  0  0  0  0  0  0  0  0  0  0  0
   10.9927    1.5464    4.1057 H   0  0  0  0  0  0  0  0  0  0  0  0
    8.2280   -0.3248    1.6024 H   0  0  0  0  0  0  0  0  0  0  0  0
   -1.4561   -0.8090   -2.1014 H   0  0  0  0  0  0  0  0  0  0  0  0
   -0.1466   -1.9707   -1.9938 H   0  0  0  0  0  0  0  0  0  0  0  0
   -0.5469    0.5299   -0.2589 H   0  0  0  0  0  0  0  0  0  0  0  0
   -0.7484   -1.1409    0.2710 H   0  0  0  0  0  0  0  0  0  0  0  0
    0.8616   -0.5187   -0.1213 H   0  0  0  0  0  0  0  0  0  0  0  0
    1.3148   -2.6553   -0.9491 H   0  0  0  0  0  0  0  0  0  0  0  0
    2.8392   -3.5225   -0.9390 H   0  0  0  0  0  0  0  0  0  0  0  0
    1.4147   -4.2330   -2.8636 H   0  0  0  0  0  0  0  0  0  0  0  0
    2.9498   -3.5403   -3.3925 H   0  0  0  0  0  0  0  0  0  0  0  0
    1.4729   -2.5896   -3.5162 H   0  0  0  0  0  0  0  0  0  0  0  0
    8.7711   -3.7077    3.0125 H   0  0  0  0  0  0  0  0  0  0  0  0
   11.6497   -4.9105    5.0718 H   0  0  0  0  0  0  0  0  0  0  0  0
   10.5936   -3.8498    4.1286 H   0  0  0  0  0  0  0  0  0  0  0  0
   10.5291   -5.5775    2.2990 H   0  0  0  0  0  0  0  0  0  0  0  0
   12.1940   -5.1045    2.6477 H   0  0  0  0  0  0  0  0  0  0  0  0
   11.5615   -6.6331    3.2696 H   0  0  0  0  0  0  0  0  0  0  0  0
    6.3003   -8.4403    3.9276 H   0  0  0  0  0  0  0  0  0  0  0  0
    6.9250  -11.1986    8.6953 H   0  0  0  0  0  0  0  0  0  0  0  0
  1  2  2  0  0  0  0
  2  3  1  0  0  0  0
  3  4  2  0  0  0  0
  3  5  1  0  0  0  0
  5  6  2  0  0  0  0
  6  7  1  0  0  0  0
  7  8  2  0  0  0  0
  8  9  1  0  0  0  0
  9 10  2  0  0  0  0
 10 11  1  0  0  0  0
 11 12  2  0  0  0  0
 12 13  1  0  0  0  0
 13 14  3  0  0  0  0
 12 15  1  0  0  0  0
 15 16  3  0  0  0  0
  8 17  1  0  0  0  0
 17 18  1  0  0  0  0
 18 19  1  0  0  0  0
 19 20  2  0  0  0  0
 20 21  1  0  0  0  0
 21 22  1  0  0  0  0
 21 23  1  0  0  0  0
  1 24  1  0  0  0  0
 24 25  2  0  0  0  0
 25 26  1  0  0  0  0
 26 27  1  0  0  0  0
 27 28  1  0  0  0  0
 28 29  1  0  0  0  0
 26 30  2  0  0  0  0
 30 31  1  0  0  0  0
 30 32  1  0  0  0  0
 32 33  2  0  0  0  0
 33 34  1  0  0  0  0
 34 35  2  0  0  0  0
 35 36  1  0  0  0  0
 36 37  2  0  0  0  0
 37 38  1  0  0  0  0
 38 39  1  0  0  0  0
 39 40  1  0  0  0  0
 38 41  2  0  0  0  0
 33 42  1  0  0  0  0
 42 43  1  0  0  0  0
 43 44  1  0  0  0  0
 44 45  1  0  0  0  0
 45 46  1  0  0  0  0
 46 47  1  0  0  0  0
 47 48  2  0  0  0  0
 48 49  1  0  0  0  0
 49 50  1  0  0  0  0
 47 51  1  0  0  0  0
 51 52  1  0  0  0  0
 52 53  1  0  0  0  0
 53 54  1  0  0  0  0
 54 55  1  0  0  0  0
 55 56  1  0  0  0  0
 56 57  2  0  0  0  0
 57 58  1  0  0  0  0
 58 59  2  0  0  0  0
 59 60  1  0  0  0  0
 60 61  1  0  0  0  0
 61 62  1  0  0  0  0
 60 63  2  0  0  0  0
 55 64  2  0  0  0  0
 64 65  1  0  0  0  0
 65 66  1  0  0  0  0
 66 67  1  0  0  0  0
 67 68  1  0  0  0  0
 68 69  1  0  0  0  0
 69 70  1  0  0  0  0
 70 71  1  0  0  0  0
 71 72  1  0  0  0  0
 72 73  1  0  0  0  0
 73 74  1  0  0  0  0
 71 75  1  0  0  0  0
 75 76  1  0  0  0  0
 68 77  1  0  0  0  0
 77 78  1  0  0  0  0
 64 79  1  0  0  0  0
 79 80  2  0  0  0  0
 80 81  1  0  0  0  0
 81 82  1  0  0  0  0
 82 83  1  0  0  0  0
 83 84  1  0  0  0  0
 81 85  2  0  0  0  0
 85 86  1  0  0  0  0
 85 87  1  0  0  0  0
 87 88  2  0  0  0  0
 88 89  1  0  0  0  0
 89 90  2  0  0  0  0
 89 91  1  0  0  0  0
 91 92  2  0  0  0  0
 92 93  1  0  0  0  0
 93 94  2  0  0  0  0
 94 95  1  0  0  0  0
 94 96  1  0  0  0  0
 96 97  1  0  0  0  0
 96 98  2  0  0  0  0
 98 99  1  0  0  0  0
 92100  1  0  0  0  0
100101  2  0  0  0  0
101102  1  0  0  0  0
102103  3  0  0  0  0
101104  1  0  0  0  0
104105  3  0  0  0  0
 11  2  1  0  0  0  0
 23 17  1  0  0  0  0
 31 24  1  0  0  0  0
 74 32  1  0  0  0  0
 86 79  1  0  0  0  0
100 88  1  0  0  0  0
 10  5  1  0  0  0  0
 22 18  1  0  0  0  0
 41 34  1  0  0  0  0
 73 42  2  0  0  0  0
 98 91  1  0  0  0  0
 23  7  1  0  0  0  0
 72 44  2  0  0  0  0
 70 45  2  0  0  0  0
 50 46  2  0  0  0  0
 69 51  2  0  0  0  0
 67 52  2  0  0  0  0
 66 54  2  0  0  0  0
 63 56  1  0  0  0  0
  1106  1  0  0  0  0
  6107  1  0  0  0  0
  9108  1  0  0  0  0
 17109  1  0  0  0  0
 18110  1  0  0  0  0
 19111  1  0  0  0  0
 20112  1  0  0  0  0
 21113  1  0  0  0  0
 22114  1  0  0  0  0
 22115  1  0  0  0  0
 23116  1  0  0  0  0
 25117  1  0  0  0  0
 28118  1  0  0  0  0
 28119  1  0  0  0  0
 29120  1  0  0  0  0
 29121  1  0  0  0  0
 29122  1  0  0  0  0
 35123  1  0  0  0  0
 36124  1  0  0  0  0
 37125  1  0  0  0  0
 39126  1  0  0  0  0
 39127  1  0  0  0  0
 40128  1  0  0  0  0
 40129  1  0  0  0  0
 40130  1  0  0  0  0
 41131  1  0  0  0  0
 57132  1  0  0  0  0
 58133  1  0  0  0  0
 59134  1  0  0  0  0
 61135  1  0  0  0  0
 61136  1  0  0  0  0
 62137  1  0  0  0  0
 62138  1  0  0  0  0
 62139  1  0  0  0  0
 63140  1  0  0  0  0
 75141  1  0  0  0  0
 75142  1  0  0  0  0
 76143  1  0  0  0  0
 76144  1  0  0  0  0
 76145  1  0  0  0  0
 77146  1  0  0  0  0
 77147  1  0  0  0  0
 78148  1  0  0  0  0
 78149  1  0  0  0  0
 78150  1  0  0  0  0
 80151  1  0  0  0  0
 83152  1  0  0  0  0
 83153  1  0  0  0  0
 84154  1  0  0  0  0
 84155  1  0  0  0  0
 84156  1  0  0  0  0
 87157  1  0  0  0  0
 93158  1  0  0  0  0
M  END
