209

C         -5.43040       11.96370        2.27080
C         -6.08540       12.44960        3.37330
C         -6.64910       11.64120        4.46050
O         -6.67050       10.42490        4.55070
C         -7.18790       12.59080        5.44760
C         -7.80490       12.28030        6.65680
C         -8.19740       13.37960        7.38200
C         -7.99420       14.69130        6.93340
C         -7.39120       15.01030        5.73960
C         -6.97980       13.90650        4.98760
C         -6.30900       13.84660        3.68890
C         -5.97770       14.93390        2.92060
C         -6.22020       16.27490        3.28460
N         -6.38080       17.39000        3.50750
C         -5.35950       14.89410        1.65370
N         -4.86870       14.95940        0.61670
C         -8.61880       15.29510        8.16600
C         -7.67010       15.88290        9.23970
C         -6.36180       15.14350        9.10750
C         -6.55360       13.90200        9.53290
C         -7.99530       13.77950        9.96050
C         -8.24140       15.20030       10.49270
C         -8.84500       13.83350        8.66650
C         -5.16460       10.64010        1.89090
C         -4.47420       10.31940        0.72400
C         -4.32210        8.95930        0.51920
S         -3.50230        8.28940       -0.89930
C         -4.97070        7.69970       -1.82690
C         -5.85720        8.84420       -2.27210
C         -4.89180        8.18490        1.53190
S         -5.63910        9.18470        2.73930
C         -4.83670        6.77850        1.67790
C         -5.51720        6.00250        2.60720
C         -6.57690        6.49540        3.49470
C         -7.75920        7.00360        2.96450
C         -8.74910        7.45950        3.81190
C         -8.56760        7.41380        5.18290
C         -7.39910        6.89910        5.72640
C         -7.21940        6.79620        7.21320
C         -7.67740        5.42330        7.70930
C         -6.41250        6.43100        4.87130
C         -5.08930        4.66900        2.57900
S         -5.56360        3.25810        3.49850
C         -4.41090        2.32590        2.60230
C         -3.90490        1.01990        2.55240
C         -4.21830       -0.10210        3.34820
C         -3.48380       -1.31400        3.14840
N         -3.85590       -2.27680        3.97790
S         -5.03490       -1.70250        4.92860
N         -5.11320       -0.20410        4.31860
C         -2.50910       -1.35670        2.12970
C         -1.68720       -2.41430        1.71530
S         -1.35140       -4.06040        2.13460
C         -0.18750       -4.12410        0.83260
C          0.70080       -5.13140        0.40580
C          0.82890       -6.40930        1.11140
C          2.06610       -6.83180        1.58980
C          2.15220       -7.98750        2.34080
C          1.01700       -8.73370        2.60840
C         -0.22050       -8.33720        2.12040
C         -1.45980       -9.12140        2.43880
C         -2.11480       -8.58190        3.71200
C         -0.30450       -7.16520        1.38350
C          1.46640       -4.70220       -0.66090
S          1.10970       -3.04640       -1.12420
C         -0.08390       -2.92850        0.12010
C         -0.94420       -1.94690        0.63160
N         -1.27850       -0.64930        0.36020
C         -2.22580       -0.24110        1.28560
C         -2.90070        0.98900        1.53660
N         -2.79830        2.26660        1.01370
C         -3.71230        3.06420        1.64520
C         -4.09740        4.40880        1.62780
S         -3.68610        5.83020        0.73510
C         -1.92300        2.87840        0.04260
C         -2.59670        3.00370       -1.32420
C         -0.69560       -0.02400       -0.80310
C          0.70740        0.51230       -0.51520
C          2.42080       -5.43640       -1.42580
C          2.52450       -6.78990       -1.57520
C          3.58450       -7.18430       -2.42620
C          3.92390       -8.48750       -2.82500
C          3.19870       -9.66550       -2.32870
C          2.64070      -10.57450       -3.25500
C          1.96370      -11.67820       -2.82900
C          1.82270      -11.95500       -1.45100
C          1.14400      -13.08890       -0.98150
C          1.03520      -13.34940        0.36830
O          0.35490      -14.47500        0.71140
C          0.23410      -14.82840        2.07470
C         -0.53420      -16.13890        2.14250
C          1.62330      -12.46250        1.29320
C          2.28760      -11.35100        0.85500
C          2.39940      -11.05450       -0.51620
C          3.06940       -9.90820       -0.98320
C          4.97950       -8.60910       -3.71400
C          5.70660       -7.49590       -4.21820
C          5.34830       -6.18490       -3.83810
C          6.03140       -5.01040       -4.38850
C          6.45750       -3.99300       -3.56750
C          7.09270       -2.85290       -4.09150
C          7.53220       -1.79500       -3.27270
C          8.14310       -0.69130       -3.79910
C          8.35210       -0.58920       -5.19010
O          8.92860        0.47420       -5.81540
C          9.49480        1.52560       -5.06100
C         10.84310        1.15360       -4.45000
C          7.93000       -1.61330       -6.01210
C          7.29810       -2.75240       -5.49310
C          6.84930       -3.80930       -6.31670
C          6.23530       -4.90290       -5.78380
C          4.30150       -6.07190       -2.94020
S          3.63900       -4.57120       -2.34430
C          6.77480       -7.88670       -5.04770
C          6.87660       -9.24720       -5.21680
S          5.63040      -10.10730       -4.30740
C          7.79900      -10.04840       -5.92480
C          8.76580       -9.71870       -6.83350
C          9.00240       -8.41370       -7.50110
O          8.49970       -7.33430       -7.26440
C          9.97500       -8.68950       -8.57280
C         10.48820       -7.82120       -9.51740
C         11.39530       -8.31500      -10.44020
C         11.78350       -9.65380      -10.42860
C         12.74400      -10.16540      -11.45480
C         11.26100      -10.52200       -9.47170
C         10.35850      -10.03990       -8.53880
C          9.66950      -10.69150       -7.42810
C          9.91160      -11.96770       -6.99250
C          9.34250      -12.58140       -5.85560
N          8.95440      -13.15700       -4.94040
C         10.82110      -12.85320       -7.60880
N         11.53840      -13.62700       -8.06180
H         -5.03760       12.69140        1.57090
H         -7.94020       11.25360        6.95950
H         -7.24460       16.02590        5.41250
H         -9.49480       15.91910        8.00030
H         -7.60980       16.96790        9.24310
H         -5.47410       15.56950        8.67800
H         -5.85820       13.08310        9.52910
H         -8.23130       12.94950       10.62150
H         -9.29340       15.42270       10.66650
H         -7.66580       15.41900       11.39090
H         -9.86930       13.50330        8.82850
H         -4.09540       11.06250        0.04460
H         -5.50840        6.99830       -1.18890
H         -4.55380        7.16410       -2.67850
H         -6.69350        8.45930       -2.85240
H         -5.29540        9.54170       -2.88860
H         -6.25150        9.38270       -1.41210
H         -7.89330        7.04000        1.89280
H         -9.66620        7.85600        3.40150
H         -9.34270        7.78390        5.83870
H         -6.16780        6.94010        7.46870
H         -7.80160        7.57400        7.71110
H         -7.10530        4.63570        7.22420
H         -8.72960        5.27030        7.47980
H         -7.54060        5.34130        8.78530
H         -5.49410        6.03060        5.27690
H          2.94760       -6.24140        1.38760
H          3.11050       -8.30130        2.73000
H          1.08840       -9.63160        3.20470
H         -2.16700       -9.04660        1.61050
H         -1.20560      -10.17440        2.57630
H         -2.37640       -7.53360        3.58660
H         -3.01820       -9.14180        3.94220
H         -1.43050       -8.66410        4.55350
H         -1.26310       -6.83680        1.00800
H         -0.98720        2.33150       -0.01290
H         -1.69390        3.88540        0.40730
H         -2.97200        2.04340       -1.67320
H         -1.88980        3.39430       -2.05070
H         -3.43690        3.69020       -1.25980
H         -0.61840       -0.79560       -1.57670
H         -1.35960        0.74870       -1.17970
H          1.38640       -0.31300       -0.31820
H          1.07760        1.06260       -1.37580
H          0.71360        1.16610        0.35470
H          1.84560       -7.48610       -1.11790
H          2.74060      -10.36900       -4.31080
H          1.52780      -12.36180       -3.54280
H          0.70050      -13.78000       -1.68150
H         -0.30730      -14.04440        2.62340
H          1.22920      -14.95110        2.52470
H          0.00260      -16.91070        1.59790
H         -1.51540      -16.01700        1.69210
H         -0.65100      -16.44680        3.17770
H          1.55870      -12.65910        2.35230
H          2.74530      -10.68060        1.56610
H          3.50460       -9.22920       -0.26330
H          6.33300       -4.06830       -2.49660
H          7.37430       -1.86400       -2.20570
H          8.45730        0.10020       -3.13660
H          9.62840        2.33380       -5.78590
H          8.79710        1.87220       -4.28830
H         11.52990        0.84720       -5.23500
H         10.73890        0.33100       -3.74650
H         11.25970        2.01250       -3.93090
H          8.09100       -1.52440       -7.07550
H          6.99900       -3.73580       -7.38350
H          5.87720       -5.69180       -6.42750
H          7.46260       -7.19380       -5.49460
H          7.68740      -11.10540       -5.71020
H         10.18320       -6.78600       -9.52200
H         11.81290       -7.65460      -11.18620
H         12.21040      -10.39220      -12.37830
H         13.22970      -11.07580      -11.11340
H         13.50220       -9.41950      -11.68250
H         11.56480      -11.55630       -9.47600
