
  xtb     02132220593D
 energy: -302.589715345233 gnorm: 0.000650004382 xtb: 6.4.1 (unknown)
184207  0     0  0            999 V2000
   -4.3514    9.4420    3.9399 C   0  0  0  0  0  0  0  0  0  0  0  0
   -4.4522   10.7727    3.6362 C   0  0  0  0  0  0  0  0  0  0  0  0
   -5.4421   11.4478    2.7675 C   0  0  0  0  0  0  0  0  0  0  0  0
   -6.5020   11.0256    2.3473 O   0  0  0  0  0  0  0  0  0  0  0  0
   -4.8718   12.7745    2.4670 C   0  0  0  0  0  0  0  0  0  0  0  0
   -5.3986   13.7297    1.5994 C   0  0  0  0  0  0  0  0  0  0  0  0
   -4.6361   14.8674    1.4906 C   0  0  0  0  0  0  0  0  0  0  0  0
   -3.4339   15.0423    2.1894 C   0  0  0  0  0  0  0  0  0  0  0  0
   -2.9047   14.1106    3.0501 C   0  0  0  0  0  0  0  0  0  0  0  0
   -3.6692   12.9471    3.1792 C   0  0  0  0  0  0  0  0  0  0  0  0
   -3.4338   11.7504    3.9805 C   0  0  0  0  0  0  0  0  0  0  0  0
   -2.4706   11.6188    4.9469 C   0  0  0  0  0  0  0  0  0  0  0  0
   -2.3181   10.5075    5.8034 C   0  0  0  0  0  0  0  0  0  0  0  0
   -2.1350    9.6561    6.5525 N   0  0  0  0  0  0  0  0  0  0  0  0
   -1.5223   12.6132    5.2649 C   0  0  0  0  0  0  0  0  0  0  0  0
   -0.7234   13.3765    5.5775 N   0  0  0  0  0  0  0  0  0  0  0  0
   -3.1944   16.4083    1.5966 C   0  0  0  0  0  0  0  0  0  0  0  0
   -3.4968   17.6178    2.5062 C   0  0  0  0  0  0  0  0  0  0  0  0
   -3.6364   18.7708    1.5388 C   0  0  0  0  0  0  0  0  0  0  0  0
   -4.7754   18.6072    0.8779 C   0  0  0  0  0  0  0  0  0  0  0  0
   -5.4250   17.3410    1.3879 C   0  0  0  0  0  0  0  0  0  0  0  0
   -4.9729   17.3841    2.8532 C   0  0  0  0  0  0  0  0  0  0  0  0
   -4.5359   16.2148    0.8191 C   0  0  0  0  0  0  0  0  0  0  0  0
   -5.2323    8.3720    3.6906 C   0  0  0  0  0  0  0  0  0  0  0  0
   -6.5548    8.3230    3.2922 C   0  0  0  0  0  0  0  0  0  0  0  0
   -7.0571    7.0285    3.1473 C   0  0  0  0  0  0  0  0  0  0  0  0
   -8.6587    6.6303    2.5527 S   0  0  0  0  0  0  0  0  0  0  0  0
   -9.1578    8.1587    1.6770 C   0  0  0  0  0  0  0  0  0  0  0  0
   -8.3108    8.4464    0.4540 C   0  0  0  0  0  0  0  0  0  0  0  0
   -6.1224    6.0428    3.4694 C   0  0  0  0  0  0  0  0  0  0  0  0
   -4.6126    6.7530    3.9406 S   0  0  0  0  0  0  0  0  0  0  0  0
   -6.2304    4.6245    3.4007 C   0  0  0  0  0  0  0  0  0  0  0  0
   -7.2969    3.7884    3.6876 C   0  0  0  0  0  0  0  0  0  0  0  0
   -8.5356    4.2134    4.3324 C   0  0  0  0  0  0  0  0  0  0  0  0
   -9.7557    3.6481    3.9702 C   0  0  0  0  0  0  0  0  0  0  0  0
  -10.9179    4.0689    4.5859 C   0  0  0  0  0  0  0  0  0  0  0  0
  -10.8797    5.0530    5.5588 C   0  0  0  0  0  0  0  0  0  0  0  0
   -9.6702    5.6149    5.9459 C   0  0  0  0  0  0  0  0  0  0  0  0
   -9.6129    6.7261    6.9542 C   0  0  0  0  0  0  0  0  0  0  0  0
   -9.4889    8.0736    6.2399 C   0  0  0  0  0  0  0  0  0  0  0  0
   -8.5056    5.1782    5.3355 C   0  0  0  0  0  0  0  0  0  0  0  0
   -6.9829    2.4468    3.3837 C   0  0  0  0  0  0  0  0  0  0  0  0
   -7.8925    0.9598    3.5107 S   0  0  0  0  0  0  0  0  0  0  0  0
   -6.5195    0.0905    2.9150 C   0  0  0  0  0  0  0  0  0  0  0  0
   -6.1732   -1.2129    2.5220 C   0  0  0  0  0  0  0  0  0  0  0  0
   -6.9425   -2.3904    2.3892 C   0  0  0  0  0  0  0  0  0  0  0  0
   -6.3673   -3.5287    1.7253 C   0  0  0  0  0  0  0  0  0  0  0  0
   -7.2275   -4.5266    1.5984 N   0  0  0  0  0  0  0  0  0  0  0  0
   -8.6349   -4.0800    2.2630 S   0  0  0  0  0  0  0  0  0  0  0  0
   -8.2042   -2.5922    2.7340 N   0  0  0  0  0  0  0  0  0  0  0  0
   -5.0092   -3.4845    1.3405 C   0  0  0  0  0  0  0  0  0  0  0  0
   -4.1674   -4.4346    0.7339 C   0  0  0  0  0  0  0  0  0  0  0  0
   -4.2466   -6.0255    0.0524 S   0  0  0  0  0  0  0  0  0  0  0  0
   -2.5332   -5.9427   -0.2916 C   0  0  0  0  0  0  0  0  0  0  0  0
   -1.6449   -6.8245   -0.9414 C   0  0  0  0  0  0  0  0  0  0  0  0
   -2.0925   -8.0937   -1.5185 C   0  0  0  0  0  0  0  0  0  0  0  0
   -2.8927   -8.9515   -0.7695 C   0  0  0  0  0  0  0  0  0  0  0  0
   -3.3571  -10.1264   -1.3303 C   0  0  0  0  0  0  0  0  0  0  0  0
   -3.0377  -10.4500   -2.6370 C   0  0  0  0  0  0  0  0  0  0  0  0
   -2.2520   -9.5977   -3.4035 C   0  0  0  0  0  0  0  0  0  0  0  0
   -1.8624   -9.9640   -4.8065 C   0  0  0  0  0  0  0  0  0  0  0  0
   -0.5310  -10.7168   -4.7952 C   0  0  0  0  0  0  0  0  0  0  0  0
   -1.7837   -8.4239   -2.8341 C   0  0  0  0  0  0  0  0  0  0  0  0
   -0.3686   -6.2896   -1.0079 C   0  0  0  0  0  0  0  0  0  0  0  0
   -0.2754   -4.6878   -0.2829 S   0  0  0  0  0  0  0  0  0  0  0  0
   -1.9526   -4.7404    0.1142 C   0  0  0  0  0  0  0  0  0  0  0  0
   -2.8871   -3.8786    0.6970 C   0  0  0  0  0  0  0  0  0  0  0  0
   -2.8970   -2.6195    1.2418 N   0  0  0  0  0  0  0  0  0  0  0  0
   -4.2038   -2.3452    1.6134 C   0  0  0  0  0  0  0  0  0  0  0  0
   -4.8234   -1.1585    2.0768 C   0  0  0  0  0  0  0  0  0  0  0  0
   -4.3843    0.1492    2.1563 N   0  0  0  0  0  0  0  0  0  0  0  0
   -5.4115    0.9034    2.6581 C   0  0  0  0  0  0  0  0  0  0  0  0
   -5.6810    2.2528    2.9169 C   0  0  0  0  0  0  0  0  0  0  0  0
   -4.8209    3.7463    2.8215 S   0  0  0  0  0  0  0  0  0  0  0  0
   -3.2529    0.7882    1.5222 C   0  0  0  0  0  0  0  0  0  0  0  0
   -2.2634    1.3536    2.5417 C   0  0  0  0  0  0  0  0  0  0  0  0
   -1.6763   -2.1096    1.8295 C   0  0  0  0  0  0  0  0  0  0  0  0
   -1.1894   -3.0115    2.9640 C   0  0  0  0  0  0  0  0  0  0  0  0
    0.8465   -6.8453   -1.5007 C   0  0  0  0  0  0  0  0  0  0  0  0
    2.1976   -5.7724   -1.7795 S   0  0  0  0  0  0  0  0  0  0  0  0
    3.1863   -7.1075   -2.2294 C   0  0  0  0  0  0  0  0  0  0  0  0
    4.5455   -7.1466   -2.5995 C   0  0  0  0  0  0  0  0  0  0  0  0
    5.0793   -8.4154   -2.8592 C   0  0  0  0  0  0  0  0  0  0  0  0
    3.7088   -9.7065   -2.6653 Si  0  0  0  0  0  4  0  0  0  0  0  0
    3.3034  -10.5021   -4.3515 C   0  0  0  0  0  0  0  0  0  0  0  0
    3.0581   -9.4725   -5.4514 C   0  0  0  0  0  0  0  0  0  0  0  0
    4.0207  -10.9549   -1.2630 C   0  0  0  0  0  0  0  0  0  0  0  0
    5.1777  -11.8971   -1.5776 C   0  0  0  0  0  0  0  0  0  0  0  0
    2.5066   -8.3219   -2.1755 C   0  0  0  0  0  0  0  0  0  0  0  0
    1.1855   -8.1616   -1.7634 C   0  0  0  0  0  0  0  0  0  0  0  0
    6.4191   -8.3594   -3.1954 C   0  0  0  0  0  0  0  0  0  0  0  0
    6.9421   -7.0685   -3.1982 C   0  0  0  0  0  0  0  0  0  0  0  0
    5.6949   -5.8924   -2.7778 S   0  0  0  0  0  0  0  0  0  0  0  0
    8.2128   -6.5461   -3.4822 C   0  0  0  0  0  0  0  0  0  0  0  0
    9.4154   -7.1555   -3.7391 C   0  0  0  0  0  0  0  0  0  0  0  0
    9.7645   -8.5881   -3.6533 C   0  0  0  0  0  0  0  0  0  0  0  0
    9.0334   -9.5467   -3.4896 O   0  0  0  0  0  0  0  0  0  0  0  0
   11.2326   -8.6555   -3.7898 C   0  0  0  0  0  0  0  0  0  0  0  0
   12.0221   -9.8012   -3.7149 C   0  0  0  0  0  0  0  0  0  0  0  0
   13.3674   -9.5634   -3.8605 C   0  0  0  0  0  0  0  0  0  0  0  0
   13.8896   -8.2800   -4.0682 C   0  0  0  0  0  0  0  0  0  0  0  0
   13.1215   -7.1433   -4.1510 C   0  0  0  0  0  0  0  0  0  0  0  0
   11.7483   -7.3636   -4.0037 C   0  0  0  0  0  0  0  0  0  0  0  0
   10.6322   -6.4213   -4.0353 C   0  0  0  0  0  0  0  0  0  0  0  0
   10.7382   -5.0912   -4.3571 C   0  0  0  0  0  0  0  0  0  0  0  0
    9.6716   -4.1784   -4.4980 C   0  0  0  0  0  0  0  0  0  0  0  0
    8.8761   -3.3652   -4.6612 N   0  0  0  0  0  0  0  0  0  0  0  0
   11.9525   -4.4329   -4.6416 C   0  0  0  0  0  0  0  0  0  0  0  0
   12.8976   -3.8240   -4.8771 N   0  0  0  0  0  0  0  0  0  0  0  0
   15.3128   -8.7782   -4.1119 C   0  0  0  0  0  0  0  0  0  0  0  0
   16.1635   -8.5453   -2.8456 C   0  0  0  0  0  0  0  0  0  0  0  0
   17.3002   -9.5317   -2.9868 C   0  0  0  0  0  0  0  0  0  0  0  0
   16.8063  -10.7474   -2.7899 C   0  0  0  0  0  0  0  0  0  0  0  0
   15.3274  -10.6030   -2.5121 C   0  0  0  0  0  0  0  0  0  0  0  0
   15.3277   -9.2578   -1.7744 C   0  0  0  0  0  0  0  0  0  0  0  0
   14.7308  -10.2096   -3.8803 C   0  0  0  0  0  0  0  0  0  0  0  0
   -3.4270    9.1287    4.4117 H   0  0  0  0  0  0  0  0  0  0  0  0
   -6.3232   13.5501    1.0732 H   0  0  0  0  0  0  0  0  0  0  0  0
   -1.9732   14.2546    3.5714 H   0  0  0  0  0  0  0  0  0  0  0  0
   -2.2740   16.5232    1.0273 H   0  0  0  0  0  0  0  0  0  0  0  0
   -2.8026   17.7511    3.3313 H   0  0  0  0  0  0  0  0  0  0  0  0
   -2.8902   19.5308    1.3996 H   0  0  0  0  0  0  0  0  0  0  0  0
   -5.1705   19.2033    0.0762 H   0  0  0  0  0  0  0  0  0  0  0  0
   -6.4880   17.2244    1.1941 H   0  0  0  0  0  0  0  0  0  0  0  0
   -5.1590   16.4631    3.4026 H   0  0  0  0  0  0  0  0  0  0  0  0
   -5.4065   18.2242    3.3931 H   0  0  0  0  0  0  0  0  0  0  0  0
   -4.5100   16.2016   -0.2691 H   0  0  0  0  0  0  0  0  0  0  0  0
   -7.1177    9.2174    3.1074 H   0  0  0  0  0  0  0  0  0  0  0  0
  -10.1907    7.9497    1.3972 H   0  0  0  0  0  0  0  0  0  0  0  0
   -9.1470    8.9849    2.3857 H   0  0  0  0  0  0  0  0  0  0  0  0
   -8.7193    9.3041   -0.0759 H   0  0  0  0  0  0  0  0  0  0  0  0
   -7.2866    8.6785    0.7357 H   0  0  0  0  0  0  0  0  0  0  0  0
   -8.3060    7.5892   -0.2157 H   0  0  0  0  0  0  0  0  0  0  0  0
   -9.7923    2.9016    3.1921 H   0  0  0  0  0  0  0  0  0  0  0  0
  -11.8632    3.6330    4.2983 H   0  0  0  0  0  0  0  0  0  0  0  0
  -11.7961    5.3860    6.0245 H   0  0  0  0  0  0  0  0  0  0  0  0
  -10.5159    6.7221    7.5671 H   0  0  0  0  0  0  0  0  0  0  0  0
   -8.7517    6.5879    7.6115 H   0  0  0  0  0  0  0  0  0  0  0  0
  -10.3356    8.2253    5.5738 H   0  0  0  0  0  0  0  0  0  0  0  0
   -8.5775    8.1048    5.6466 H   0  0  0  0  0  0  0  0  0  0  0  0
   -9.4612    8.8875    6.9607 H   0  0  0  0  0  0  0  0  0  0  0  0
   -7.5566    5.5901    5.6488 H   0  0  0  0  0  0  0  0  0  0  0  0
   -3.1396   -8.7003    0.2508 H   0  0  0  0  0  0  0  0  0  0  0  0
   -3.9748  -10.7914   -0.7453 H   0  0  0  0  0  0  0  0  0  0  0  0
   -3.4071  -11.3679   -3.0709 H   0  0  0  0  0  0  0  0  0  0  0  0
   -2.6331  -10.5921   -5.2568 H   0  0  0  0  0  0  0  0  0  0  0  0
   -1.7596   -9.0607   -5.4108 H   0  0  0  0  0  0  0  0  0  0  0  0
    0.2392  -10.1016   -4.3359 H   0  0  0  0  0  0  0  0  0  0  0  0
   -0.6225  -11.6376   -4.2227 H   0  0  0  0  0  0  0  0  0  0  0  0
   -0.2228  -10.9656   -5.8078 H   0  0  0  0  0  0  0  0  0  0  0  0
   -1.1828   -7.7452   -3.4228 H   0  0  0  0  0  0  0  0  0  0  0  0
   -3.6361    1.6173    0.9160 H   0  0  0  0  0  0  0  0  0  0  0  0
   -2.7784    0.0775    0.8449 H   0  0  0  0  0  0  0  0  0  0  0  0
   -1.9750    0.6090    3.2804 H   0  0  0  0  0  0  0  0  0  0  0  0
   -2.7087    2.1908    3.0717 H   0  0  0  0  0  0  0  0  0  0  0  0
   -1.3718    1.7067    2.0313 H   0  0  0  0  0  0  0  0  0  0  0  0
   -1.8524   -1.1188    2.2304 H   0  0  0  0  0  0  0  0  0  0  0  0
   -0.9148   -2.0563    1.0450 H   0  0  0  0  0  0  0  0  0  0  0  0
   -1.9572   -3.0990    3.7302 H   0  0  0  0  0  0  0  0  0  0  0  0
   -0.2957   -2.5841    3.4103 H   0  0  0  0  0  0  0  0  0  0  0  0
   -0.9494   -4.0056    2.5973 H   0  0  0  0  0  0  0  0  0  0  0  0
    4.1345  -11.1427   -4.6468 H   0  0  0  0  0  0  0  0  0  0  0  0
    2.4314  -11.1497   -4.2581 H   0  0  0  0  0  0  0  0  0  0  0  0
    3.9432   -8.8601   -5.6043 H   0  0  0  0  0  0  0  0  0  0  0  0
    2.8159   -9.9642   -6.3913 H   0  0  0  0  0  0  0  0  0  0  0  0
    2.2344   -8.8131   -5.1880 H   0  0  0  0  0  0  0  0  0  0  0  0
    4.2340  -10.4223   -0.3356 H   0  0  0  0  0  0  0  0  0  0  0  0
    3.1180  -11.5402   -1.0865 H   0  0  0  0  0  0  0  0  0  0  0  0
    4.9652  -12.4809   -2.4694 H   0  0  0  0  0  0  0  0  0  0  0  0
    5.3456  -12.5868   -0.7527 H   0  0  0  0  0  0  0  0  0  0  0  0
    6.0941  -11.3379   -1.7462 H   0  0  0  0  0  0  0  0  0  0  0  0
    0.4920   -8.9723   -1.6324 H   0  0  0  0  0  0  0  0  0  0  0  0
    7.0248   -9.2142   -3.4321 H   0  0  0  0  0  0  0  0  0  0  0  0
    8.2326   -5.4624   -3.4694 H   0  0  0  0  0  0  0  0  0  0  0  0
   11.5764  -10.7707   -3.5560 H   0  0  0  0  0  0  0  0  0  0  0  0
   13.5405   -6.1644   -4.3111 H   0  0  0  0  0  0  0  0  0  0  0  0
   15.8572   -8.5796   -5.0331 H   0  0  0  0  0  0  0  0  0  0  0  0
   16.4342   -7.5089   -2.6634 H   0  0  0  0  0  0  0  0  0  0  0  0
   18.3018   -9.2575   -3.2620 H   0  0  0  0  0  0  0  0  0  0  0  0
   17.3128  -11.6916   -2.8678 H   0  0  0  0  0  0  0  0  0  0  0  0
   14.8368  -11.4415   -2.0250 H   0  0  0  0  0  0  0  0  0  0  0  0
   14.3369   -8.8315   -1.6286 H   0  0  0  0  0  0  0  0  0  0  0  0
   15.8449   -9.3130   -0.8179 H   0  0  0  0  0  0  0  0  0  0  0  0
   14.8886  -10.9660   -4.6470 H   0  0  0  0  0  0  0  0  0  0  0  0
  1  2  2  0  0  0  0
  2  3  1  0  0  0  0
  3  4  2  0  0  0  0
  3  5  1  0  0  0  0
  5  6  2  0  0  0  0
  6  7  1  0  0  0  0
  7  8  2  0  0  0  0
  8  9  1  0  0  0  0
  9 10  2  0  0  0  0
 10 11  1  0  0  0  0
 11 12  2  0  0  0  0
 12 13  1  0  0  0  0
 13 14  3  0  0  0  0
 12 15  1  0  0  0  0
 15 16  3  0  0  0  0
  8 17  1  0  0  0  0
 17 18  1  0  0  0  0
 18 19  1  0  0  0  0
 19 20  2  0  0  0  0
 20 21  1  0  0  0  0
 21 22  1  0  0  0  0
 21 23  1  0  0  0  0
  1 24  1  0  0  0  0
 24 25  2  0  0  0  0
 25 26  1  0  0  0  0
 26 27  1  0  0  0  0
 27 28  1  0  0  0  0
 28 29  1  0  0  0  0
 26 30  2  0  0  0  0
 30 31  1  0  0  0  0
 30 32  1  0  0  0  0
 32 33  2  0  0  0  0
 33 34  1  0  0  0  0
 34 35  2  0  0  0  0
 35 36  1  0  0  0  0
 36 37  2  0  0  0  0
 37 38  1  0  0  0  0
 38 39  1  0  0  0  0
 39 40  1  0  0  0  0
 38 41  2  0  0  0  0
 33 42  1  0  0  0  0
 42 43  1  0  0  0  0
 43 44  1  0  0  0  0
 44 45  1  0  0  0  0
 45 46  1  0  0  0  0
 46 47  1  0  0  0  0
 47 48  2  0  0  0  0
 48 49  1  0  0  0  0
 49 50  1  0  0  0  0
 47 51  1  0  0  0  0
 51 52  1  0  0  0  0
 52 53  1  0  0  0  0
 53 54  1  0  0  0  0
 54 55  1  0  0  0  0
 55 56  1  0  0  0  0
 56 57  2  0  0  0  0
 57 58  1  0  0  0  0
 58 59  2  0  0  0  0
 59 60  1  0  0  0  0
 60 61  1  0  0  0  0
 61 62  1  0  0  0  0
 60 63  2  0  0  0  0
 55 64  2  0  0  0  0
 64 65  1  0  0  0  0
 65 66  1  0  0  0  0
 66 67  1  0  0  0  0
 67 68  1  0  0  0  0
 68 69  1  0  0  0  0
 69 70  1  0  0  0  0
 70 71  1  0  0  0  0
 71 72  1  0  0  0  0
 72 73  1  0  0  0  0
 73 74  1  0  0  0  0
 71 75  1  0  0  0  0
 75 76  1  0  0  0  0
 68 77  1  0  0  0  0
 77 78  1  0  0  0  0
 64 79  1  0  0  0  0
 79 80  1  0  0  0  0
 80 81  1  0  0  0  0
 81 82  1  0  0  0  0
 82 83  2  0  0  0  0
 83 84  1  0  0  0  0
 84 85  1  0  0  0  0
 85 86  1  0  0  0  0
 84 87  1  0  0  0  0
 87 88  1  0  0  0  0
 84 89  1  0  0  0  0
 89 90  1  0  0  0  0
 83 91  1  0  0  0  0
 91 92  2  0  0  0  0
 92 93  1  0  0  0  0
 92 94  1  0  0  0  0
 94 95  2  0  0  0  0
 95 96  1  0  0  0  0
 96 97  2  0  0  0  0
 96 98  1  0  0  0  0
 98 99  2  0  0  0  0
 99100  1  0  0  0  0
100101  2  0  0  0  0
101102  1  0  0  0  0
102103  2  0  0  0  0
103104  1  0  0  0  0
104105  2  0  0  0  0
105106  1  0  0  0  0
106107  3  0  0  0  0
105108  1  0  0  0  0
108109  3  0  0  0  0
101110  1  0  0  0  0
110111  1  0  0  0  0
111112  1  0  0  0  0
112113  2  0  0  0  0
113114  1  0  0  0  0
114115  1  0  0  0  0
114116  1  0  0  0  0
 11  2  1  0  0  0  0
 23 17  1  0  0  0  0
 31 24  1  0  0  0  0
 74 32  1  0  0  0  0
 90 79  2  0  0  0  0
104 95  1  0  0  0  0
116110  1  0  0  0  0
 10  5  1  0  0  0  0
 22 18  1  0  0  0  0
 41 34  1  0  0  0  0
 73 42  2  0  0  0  0
 89 81  2  0  0  0  0
103 98  1  0  0  0  0
115111  1  0  0  0  0
 23  7  1  0  0  0  0
 72 44  2  0  0  0  0
 93 82  1  0  0  0  0
116100  1  0  0  0  0
 70 45  2  0  0  0  0
 50 46  2  0  0  0  0
 69 51  2  0  0  0  0
 67 52  2  0  0  0  0
 66 54  2  0  0  0  0
 63 56  1  0  0  0  0
  1117  1  0  0  0  0
  6118  1  0  0  0  0
  9119  1  0  0  0  0
 17120  1  0  0  0  0
 18121  1  0  0  0  0
 19122  1  0  0  0  0
 20123  1  0  0  0  0
 21124  1  0  0  0  0
 22125  1  0  0  0  0
 22126  1  0  0  0  0
 23127  1  0  0  0  0
 25128  1  0  0  0  0
 28129  1  0  0  0  0
 28130  1  0  0  0  0
 29131  1  0  0  0  0
 29132  1  0  0  0  0
 29133  1  0  0  0  0
 35134  1  0  0  0  0
 36135  1  0  0  0  0
 37136  1  0  0  0  0
 39137  1  0  0  0  0
 39138  1  0  0  0  0
 40139  1  0  0  0  0
 40140  1  0  0  0  0
 40141  1  0  0  0  0
 41142  1  0  0  0  0
 57143  1  0  0  0  0
 58144  1  0  0  0  0
 59145  1  0  0  0  0
 61146  1  0  0  0  0
 61147  1  0  0  0  0
 62148  1  0  0  0  0
 62149  1  0  0  0  0
 62150  1  0  0  0  0
 63151  1  0  0  0  0
 75152  1  0  0  0  0
 75153  1  0  0  0  0
 76154  1  0  0  0  0
 76155  1  0  0  0  0
 76156  1  0  0  0  0
 77157  1  0  0  0  0
 77158  1  0  0  0  0
 78159  1  0  0  0  0
 78160  1  0  0  0  0
 78161  1  0  0  0  0
 85162  1  0  0  0  0
 85163  1  0  0  0  0
 86164  1  0  0  0  0
 86165  1  0  0  0  0
 86166  1  0  0  0  0
 87167  1  0  0  0  0
 87168  1  0  0  0  0
 88169  1  0  0  0  0
 88170  1  0  0  0  0
 88171  1  0  0  0  0
 90172  1  0  0  0  0
 91173  1  0  0  0  0
 94174  1  0  0  0  0
 99175  1  0  0  0  0
102176  1  0  0  0  0
110177  1  0  0  0  0
111178  1  0  0  0  0
112179  1  0  0  0  0
113180  1  0  0  0  0
114181  1  0  0  0  0
115182  1  0  0  0  0
115183  1  0  0  0  0
116184  1  0  0  0  0
M  END
