145

C         -4.22020       -1.81860        7.37100
C         -4.80190       -2.93250        7.91560
C         -4.65210       -4.34700        7.50990
O         -3.84130       -4.84350        6.75070
C         -5.72150       -5.08210        8.20970
C         -6.02310       -6.43610        8.07570
C         -7.09360       -6.84780        8.83200
C         -7.81100       -5.97730        9.66360
C         -7.51760       -4.64270        9.81280
C         -6.43120       -4.20260        9.04980
C         -5.83170       -2.87570        8.93930
C         -6.15390       -1.79570        9.72130
C         -5.52430       -0.53360        9.69490
N         -5.05960        0.51490        9.76840
C         -7.15580       -1.80310       10.71460
N         -7.95780       -1.73050       11.53320
C         -8.76460       -7.05860       10.10730
C        -10.16610       -7.04880        9.46080
C        -10.68600       -8.44740        9.70360
C        -10.00600       -9.27280        8.91810
C         -9.01500       -8.44590        8.13100
C         -9.82190       -7.15110        7.96910
C         -7.96340       -8.02970        9.18170
C         -3.23620       -1.67850        6.37590
C         -2.39260       -2.57870        5.75250
C         -1.55980       -1.99620        4.79940
S         -0.38800       -2.88160        3.84310
C         -0.89730       -4.62390        4.11690
C         -0.16040       -5.50570        3.12770
C         -1.72680       -0.60990        4.68230
S         -2.94480       -0.05410        5.78660
C         -1.11930        0.28290        3.76600
C         -1.23450        1.66870        3.73190
C         -1.82710        2.48360        4.79700
C         -2.88240        3.34690        4.52570
C         -3.43670        4.09060        5.55100
C         -2.94420        3.98310        6.83980
C         -1.87010        3.14790        7.12130
C         -1.34530        2.99240        8.51860
C         -1.84550        1.68430        9.13520
C         -1.31420        2.40920        6.08830
C         -0.66490        2.20620        2.56930
S         -0.54570        3.84010        1.95860
C          0.29220        3.22990        0.57030
C          0.83090        3.69340       -0.63960
C          0.79550        4.96960       -1.24370
C          1.30390        5.12100       -2.57620
N          1.14920        6.35100       -3.04050
S          0.43110        7.24370       -1.89690
N          0.28740        6.09490       -0.76630
C          1.93060        4.01840       -3.19750
C          2.60380        3.91010       -4.42410
S          2.94990        4.87090       -5.82210
C          3.84690        3.52800       -6.48760
C          4.55270        3.36400       -7.69000
C          4.69090        4.40920       -8.71070
C          3.56640        4.90520       -9.35940
C          3.71290        5.87900      -10.32950
C          4.96710        6.37110      -10.64170
C          6.09690        5.90630       -9.98050
C          7.46380        6.41620      -10.33320
C          8.12020        5.49620      -11.36390
C          5.94740        4.92010       -9.01790
C          5.11360        2.10180       -7.78060
S          4.78480        1.11990       -6.35230
C          3.87210        2.40690       -5.65050
C          3.15190        2.62410       -4.47290
N          2.81790        1.92470       -3.34400
C          2.05010        2.75810       -2.54540
C          1.38880        2.56380       -1.30510
N          1.15340        1.44100       -0.52780
C          0.48380        1.84500        0.59440
C         -0.07380        1.25420        1.73320
S         -0.23680       -0.34160        2.37620
C          1.16280        0.04040       -0.88540
C          0.27360       -0.23720       -2.09470
C          3.56420        0.73630       -2.99480
C          4.47260        0.97660       -1.79200
C          5.80260        1.50310       -8.86450
C          6.40380        0.26090       -8.85350
C          6.95150       -0.11730      -10.08230
S          7.78740       -1.61920      -10.38520
C          7.45190       -2.61500       -8.88660
C          6.01560       -3.09670       -8.81920
C          6.76540        0.85790      -11.07340
S          5.90700        2.24600      -10.42580
C          7.17090        0.83600      -12.42730
C          6.88820        1.80340      -13.37900
C          6.13750        2.97140      -13.17220
N          5.53740        3.94870      -13.08880
C          7.35680        1.66590      -14.70210
N          7.72440        1.58440      -15.78590
C          7.94550       -0.24850      -12.91890
N          8.57540       -1.07800      -13.39650
H         -4.59760       -0.86460        7.72020
H         -5.44300       -7.07070        7.42380
H         -8.07960       -3.98760       10.45690
H         -8.79050       -7.25940       11.17660
H        -10.80540       -6.22750        9.77290
H        -11.43130       -8.69120       10.43770
H        -10.06950      -10.34390        8.86500
H         -8.60630       -8.89780        7.23110
H        -10.70730       -7.29250        7.35130
H         -9.24300       -6.31150        7.58830
H         -7.45390       -8.87860        9.63400
H         -2.40230       -3.62210        6.00020
H         -0.64770       -4.89280        5.14280
H         -1.97490       -4.67800        3.96890
H         -0.40060       -5.21700        2.10680
H          0.91510       -5.42080        3.26630
H         -0.45070       -6.54330        3.27580
H         -3.27300        3.41710        3.52150
H         -4.26320        4.75400        5.34380
H         -3.39490        4.55620        7.63660
H         -1.67380        3.83060        9.13470
H         -0.25250        2.98750        8.50190
H         -1.45730        1.57000       10.14450
H         -1.51810        0.83350        8.54090
H         -2.93130        1.67150        9.18020
H         -0.47150        1.76050        6.28510
H          2.59020        4.51380       -9.11400
H          2.84260        6.25380      -10.84650
H          5.07260        7.12540      -11.40670
H          8.08730        6.46060       -9.43730
H          7.38720        7.42260      -10.74800
H          7.49720        5.42670      -12.25230
H          8.24120        4.49470      -10.95500
H          9.09860        5.87650      -11.64800
H          6.81500        4.54570       -8.49110
H          0.77270       -0.50160       -0.02040
H          2.18310       -0.30940       -1.04690
H          0.59220        0.33760       -2.96100
H          0.30500       -1.29490       -2.34230
H         -0.75460        0.03460       -1.86770
H          2.89250       -0.10670       -2.82840
H          4.17710        0.48930       -3.86540
H          3.90020        1.28560       -0.92090
H          5.01680        0.06740       -1.55080
H          5.19110        1.76060       -2.02020
H          6.44150       -0.33140       -7.95800
H          7.74520       -2.03920       -8.01050
H          8.13630       -3.45630       -8.99550
H          5.87950       -3.72280       -7.93960
H          5.77510       -3.68210       -9.70330
H          5.32070       -2.26190       -8.76110
