
  xtb     02172221423D
 energy: -274.574423039236 gnorm: 0.000263600898 xtb: 6.4.1 (unknown)
158176  0     0  0            999 V2000
    5.7956   -6.1145   -4.8143 C   0  0  0  0  0  0  0  0  0  0  0  0
    6.6120   -6.7344   -3.9032 C   0  0  0  0  0  0  0  0  0  0  0  0
    6.3459   -6.8640   -2.4671 C   0  0  0  0  0  0  0  0  0  0  0  0
    5.3202   -6.5767   -1.8722 O   0  0  0  0  0  0  0  0  0  0  0  0
    7.5765   -7.4019   -1.8644 C   0  0  0  0  0  0  0  0  0  0  0  0
    7.8190   -7.6256   -0.5116 C   0  0  0  0  0  0  0  0  0  0  0  0
    9.0771   -8.1091   -0.2430 C   0  0  0  0  0  0  0  0  0  0  0  0
   10.0238   -8.3533   -1.2463 C   0  0  0  0  0  0  0  0  0  0  0  0
    9.7963   -8.1363   -2.5851 C   0  0  0  0  0  0  0  0  0  0  0  0
    8.5224   -7.6446   -2.8814 C   0  0  0  0  0  0  0  0  0  0  0  0
    7.9285   -7.2790   -4.1672 C   0  0  0  0  0  0  0  0  0  0  0  0
    8.5195   -7.4548   -5.3929 C   0  0  0  0  0  0  0  0  0  0  0  0
    7.9406   -7.1302   -6.6369 C   0  0  0  0  0  0  0  0  0  0  0  0
    7.5436   -6.8987   -7.6903 N   0  0  0  0  0  0  0  0  0  0  0  0
    9.7996   -8.0127   -5.5904 C   0  0  0  0  0  0  0  0  0  0  0  0
   10.8309   -8.4564   -5.8320 N   0  0  0  0  0  0  0  0  0  0  0  0
   11.0616   -8.8308   -0.2618 C   0  0  0  0  0  0  0  0  0  0  0  0
   11.2952  -10.3573   -0.1436 C   0  0  0  0  0  0  0  0  0  0  0  0
   10.0038  -11.0225   -0.5503 C   0  0  0  0  0  0  0  0  0  0  0  0
    9.1103  -10.7885    0.4016 C   0  0  0  0  0  0  0  0  0  0  0  0
    9.7813   -9.9599    1.4689 C   0  0  0  0  0  0  0  0  0  0  0  0
   11.2120  -10.5148    1.3832 C   0  0  0  0  0  0  0  0  0  0  0  0
   10.0076   -8.5555    0.8568 C   0  0  0  0  0  0  0  0  0  0  0  0
    4.5439   -5.5082   -4.6307 C   0  0  0  0  0  0  0  0  0  0  0  0
    3.9027   -4.8049   -5.6494 C   0  0  0  0  0  0  0  0  0  0  0  0
    2.6969   -4.2323   -5.2693 C   0  0  0  0  0  0  0  0  0  0  0  0
    1.6324   -3.2834   -6.2928 S   0  0  0  0  0  0  0  0  0  0  0  0
    2.3948   -3.4927   -7.9473 C   0  0  0  0  0  0  0  0  0  0  0  0
    1.4881   -2.8685   -8.9899 C   0  0  0  0  0  0  0  0  0  0  0  0
    2.3732   -4.5178   -3.9390 C   0  0  0  0  0  0  0  0  0  0  0  0
    3.5957   -5.4792   -3.1681 S   0  0  0  0  0  0  0  0  0  0  0  0
    1.2810   -4.0368   -3.1723 C   0  0  0  0  0  0  0  0  0  0  0  0
    0.7880   -4.5961   -2.0029 C   0  0  0  0  0  0  0  0  0  0  0  0
    1.1511   -5.9303   -1.5155 C   0  0  0  0  0  0  0  0  0  0  0  0
    0.9509   -7.0445   -2.3253 C   0  0  0  0  0  0  0  0  0  0  0  0
    1.2884   -8.2999   -1.8596 C   0  0  0  0  0  0  0  0  0  0  0  0
    1.8398   -8.4494   -0.5994 C   0  0  0  0  0  0  0  0  0  0  0  0
    2.0464   -7.3468    0.2193 C   0  0  0  0  0  0  0  0  0  0  0  0
    2.7213   -7.5004    1.5507 C   0  0  0  0  0  0  0  0  0  0  0  0
    4.2387   -7.5188    1.3543 C   0  0  0  0  0  0  0  0  0  0  0  0
    1.6843   -6.0911   -0.2436 C   0  0  0  0  0  0  0  0  0  0  0  0
   -0.1368   -3.7485   -1.3761 C   0  0  0  0  0  0  0  0  0  0  0  0
   -1.0454   -3.8869    0.1103 S   0  0  0  0  0  0  0  0  0  0  0  0
   -1.7021   -2.3110   -0.1807 C   0  0  0  0  0  0  0  0  0  0  0  0
   -2.5159   -1.3642    0.4557 C   0  0  0  0  0  0  0  0  0  0  0  0
   -3.1428   -1.4160    1.7186 C   0  0  0  0  0  0  0  0  0  0  0  0
   -3.8187   -0.2502    2.1986 C   0  0  0  0  0  0  0  0  0  0  0  0
   -4.3265   -0.4187    3.4099 N   0  0  0  0  0  0  0  0  0  0  0  0
   -3.9839   -1.9236    3.9005 S   0  0  0  0  0  0  0  0  0  0  0  0
   -3.1723   -2.4141    2.5883 N   0  0  0  0  0  0  0  0  0  0  0  0
   -3.8824    0.8871    1.3664 C   0  0  0  0  0  0  0  0  0  0  0  0
   -4.4889    2.1300    1.5901 C   0  0  0  0  0  0  0  0  0  0  0  0
   -5.3423    2.9616    2.8443 S   0  0  0  0  0  0  0  0  0  0  0  0
   -5.4474    4.3575    1.8000 C   0  0  0  0  0  0  0  0  0  0  0  0
   -5.9820    5.6384    1.9971 C   0  0  0  0  0  0  0  0  0  0  0  0
   -6.6642    6.0526    3.2295 C   0  0  0  0  0  0  0  0  0  0  0  0
   -8.0152    6.3863    3.2066 C   0  0  0  0  0  0  0  0  0  0  0  0
   -8.6460    6.7635    4.3755 C   0  0  0  0  0  0  0  0  0  0  0  0
   -7.9398    6.8115    5.5644 C   0  0  0  0  0  0  0  0  0  0  0  0
   -6.5941    6.4743    5.6039 C   0  0  0  0  0  0  0  0  0  0  0  0
   -5.8350    6.4731    6.8988 C   0  0  0  0  0  0  0  0  0  0  0  0
   -5.8448    5.0742    7.5181 C   0  0  0  0  0  0  0  0  0  0  0  0
   -5.9671    6.0849    4.4292 C   0  0  0  0  0  0  0  0  0  0  0  0
   -5.7883    6.4470    0.8886 C   0  0  0  0  0  0  0  0  0  0  0  0
   -4.9848    5.5883   -0.4267 S   0  0  0  0  0  0  0  0  0  0  0  0
   -4.8621    4.1630    0.5431 C   0  0  0  0  0  0  0  0  0  0  0  0
   -4.3077    2.8839    0.4280 C   0  0  0  0  0  0  0  0  0  0  0  0
   -3.6194    2.1503   -0.5002 N   0  0  0  0  0  0  0  0  0  0  0  0
   -3.3123    0.9200    0.0581 C   0  0  0  0  0  0  0  0  0  0  0  0
   -2.5641   -0.2091   -0.3836 C   0  0  0  0  0  0  0  0  0  0  0  0
   -1.7722   -0.4660   -1.4905 N   0  0  0  0  0  0  0  0  0  0  0  0
   -1.2612   -1.7278   -1.3700 C   0  0  0  0  0  0  0  0  0  0  0  0
   -0.3641   -2.5506   -2.0616 C   0  0  0  0  0  0  0  0  0  0  0  0
    0.5564   -2.4730   -3.5231 S   0  0  0  0  0  0  0  0  0  0  0  0
   -1.3680    0.3218   -2.6300 C   0  0  0  0  0  0  0  0  0  0  0  0
   -2.1978   -0.0143   -3.8693 C   0  0  0  0  0  0  0  0  0  0  0  0
   -3.4508    2.7024   -1.8233 C   0  0  0  0  0  0  0  0  0  0  0  0
   -2.2846    3.6904   -1.8823 C   0  0  0  0  0  0  0  0  0  0  0  0
   -6.0287    7.8371    0.7733 C   0  0  0  0  0  0  0  0  0  0  0  0
   -5.8286    8.6115   -0.3598 C   0  0  0  0  0  0  0  0  0  0  0  0
   -6.0503    9.9631   -0.1353 C   0  0  0  0  0  0  0  0  0  0  0  0
   -5.8657   11.2529   -1.2947 S   0  0  0  0  0  0  0  0  0  0  0  0
   -5.7327   10.3772   -2.8933 C   0  0  0  0  0  0  0  0  0  0  0  0
   -7.0534    9.7699   -3.3247 C   0  0  0  0  0  0  0  0  0  0  0  0
   -6.4148   10.2556    1.2007 C   0  0  0  0  0  0  0  0  0  0  0  0
   -6.4862    8.7838    2.1497 S   0  0  0  0  0  0  0  0  0  0  0  0
   -6.6752   11.5428    1.6562 C   0  0  0  0  0  0  0  0  0  0  0  0
   -6.9782   11.9925    2.9271 C   0  0  0  0  0  0  0  0  0  0  0  0
   -7.0579   11.1615    4.1240 C   0  0  0  0  0  0  0  0  0  0  0  0
   -6.9586    9.9497    4.2093 O   0  0  0  0  0  0  0  0  0  0  0  0
   -7.2880   12.0904    5.2508 C   0  0  0  0  0  0  0  0  0  0  0  0
   -7.3717   13.4050    4.7588 C   0  0  0  0  0  0  0  0  0  0  0  0
   -7.5764   14.4556    5.6379 C   0  0  0  0  0  0  0  0  0  0  0  0
   -7.6943   14.1763    6.9927 C   0  0  0  0  0  0  0  0  0  0  0  0
   -7.6133   12.8778    7.4698 C   0  0  0  0  0  0  0  0  0  0  0  0
   -7.7812   12.5631    9.3259 Br  0  0  0  0  0  0  0  0  0  0  0  0
   -7.4075   11.8026    6.5991 C   0  0  0  0  0  0  0  0  0  0  0  0
   -7.3027   10.1940    7.1727 Cl  0  0  0  0  0  0  0  0  0  0  0  0
   -7.2071   13.3666    3.3029 C   0  0  0  0  0  0  0  0  0  0  0  0
   -7.2876   14.4621    2.4782 C   0  0  0  0  0  0  0  0  0  0  0  0
   -7.1806   14.4496    1.0720 C   0  0  0  0  0  0  0  0  0  0  0  0
   -7.1203   14.5408   -0.0718 N   0  0  0  0  0  0  0  0  0  0  0  0
   -7.5130   15.7772    2.9326 C   0  0  0  0  0  0  0  0  0  0  0  0
   -7.6902   16.8709    3.2352 N   0  0  0  0  0  0  0  0  0  0  0  0
    6.1684   -6.0258   -5.8276 H   0  0  0  0  0  0  0  0  0  0  0  0
    7.0622   -7.4206    0.2292 H   0  0  0  0  0  0  0  0  0  0  0  0
   10.5395   -8.3212   -3.3425 H   0  0  0  0  0  0  0  0  0  0  0  0
   11.9915   -8.2663   -0.2373 H   0  0  0  0  0  0  0  0  0  0  0  0
   12.1951  -10.7151   -0.6364 H   0  0  0  0  0  0  0  0  0  0  0  0
    9.8609  -11.5295   -1.4865 H   0  0  0  0  0  0  0  0  0  0  0  0
    8.0712  -11.0608    0.4198 H   0  0  0  0  0  0  0  0  0  0  0  0
    9.3036   -9.9553    2.4452 H   0  0  0  0  0  0  0  0  0  0  0  0
   11.2811  -11.5531    1.7040 H   0  0  0  0  0  0  0  0  0  0  0  0
   11.9435   -9.9138    1.9218 H   0  0  0  0  0  0  0  0  0  0  0  0
   10.2482   -7.8076    1.6099 H   0  0  0  0  0  0  0  0  0  0  0  0
    4.3407   -4.7197   -6.6270 H   0  0  0  0  0  0  0  0  0  0  0  0
    2.5142   -4.5618   -8.1213 H   0  0  0  0  0  0  0  0  0  0  0  0
    3.3681   -3.0021   -7.9318 H   0  0  0  0  0  0  0  0  0  0  0  0
    0.5131   -3.3502   -8.9840 H   0  0  0  0  0  0  0  0  0  0  0  0
    1.3504   -1.8083   -8.7903 H   0  0  0  0  0  0  0  0  0  0  0  0
    1.9298   -2.9843   -9.9772 H   0  0  0  0  0  0  0  0  0  0  0  0
    0.5278   -6.9187   -3.3116 H   0  0  0  0  0  0  0  0  0  0  0  0
    1.1260   -9.1660   -2.4845 H   0  0  0  0  0  0  0  0  0  0  0  0
    2.1139   -9.4334   -0.2466 H   0  0  0  0  0  0  0  0  0  0  0  0
    2.4486   -6.6695    2.2038 H   0  0  0  0  0  0  0  0  0  0  0  0
    2.4048   -8.4304    2.0280 H   0  0  0  0  0  0  0  0  0  0  0  0
    4.7488   -7.5651    2.3147 H   0  0  0  0  0  0  0  0  0  0  0  0
    4.5293   -8.3819    0.7592 H   0  0  0  0  0  0  0  0  0  0  0  0
    4.5550   -6.6240    0.8230 H   0  0  0  0  0  0  0  0  0  0  0  0
    1.8390   -5.2220    0.3794 H   0  0  0  0  0  0  0  0  0  0  0  0
   -8.5603    6.3485    2.2745 H   0  0  0  0  0  0  0  0  0  0  0  0
   -9.6939    7.0244    4.3591 H   0  0  0  0  0  0  0  0  0  0  0  0
   -8.4397    7.1161    6.4728 H   0  0  0  0  0  0  0  0  0  0  0  0
   -6.2885    7.1794    7.5966 H   0  0  0  0  0  0  0  0  0  0  0  0
   -4.8029    6.7830    6.7223 H   0  0  0  0  0  0  0  0  0  0  0  0
   -5.2884    5.0680    8.4525 H   0  0  0  0  0  0  0  0  0  0  0  0
   -5.3933    4.3553    6.8380 H   0  0  0  0  0  0  0  0  0  0  0  0
   -6.8658    4.7577    7.7197 H   0  0  0  0  0  0  0  0  0  0  0  0
   -4.9185    5.8230    4.4408 H   0  0  0  0  0  0  0  0  0  0  0  0
   -0.3222    0.0711   -2.8366 H   0  0  0  0  0  0  0  0  0  0  0  0
   -1.4091    1.3784   -2.3864 H   0  0  0  0  0  0  0  0  0  0  0  0
   -3.2638    0.0861   -3.6739 H   0  0  0  0  0  0  0  0  0  0  0  0
   -1.9238    0.6442   -4.6886 H   0  0  0  0  0  0  0  0  0  0  0  0
   -2.0063   -1.0397   -4.1745 H   0  0  0  0  0  0  0  0  0  0  0  0
   -3.3422    1.8987   -2.5463 H   0  0  0  0  0  0  0  0  0  0  0  0
   -4.3731    3.2410   -2.0670 H   0  0  0  0  0  0  0  0  0  0  0  0
   -2.5126    4.5699   -1.2862 H   0  0  0  0  0  0  0  0  0  0  0  0
   -2.1170    4.0049   -2.9087 H   0  0  0  0  0  0  0  0  0  0  0  0
   -1.3691    3.2511   -1.4915 H   0  0  0  0  0  0  0  0  0  0  0  0
   -5.5178    8.1802   -1.2946 H   0  0  0  0  0  0  0  0  0  0  0  0
   -4.9363    9.6385   -2.8168 H   0  0  0  0  0  0  0  0  0  0  0  0
   -5.4207   11.1592   -3.5853 H   0  0  0  0  0  0  0  0  0  0  0  0
   -7.8123   10.5440   -3.4072 H   0  0  0  0  0  0  0  0  0  0  0  0
   -6.9386    9.2894   -4.2943 H   0  0  0  0  0  0  0  0  0  0  0  0
   -7.3963    9.0276   -2.6073 H   0  0  0  0  0  0  0  0  0  0  0  0
   -6.6007   12.2981    0.8819 H   0  0  0  0  0  0  0  0  0  0  0  0
   -7.6430   15.4762    5.3009 H   0  0  0  0  0  0  0  0  0  0  0  0
   -7.8518   14.9820    7.6931 H   0  0  0  0  0  0  0  0  0  0  0  0
  1  2  2  0  0  0  0
  2  3  1  0  0  0  0
  3  4  2  0  0  0  0
  3  5  1  0  0  0  0
  5  6  2  0  0  0  0
  6  7  1  0  0  0  0
  7  8  2  0  0  0  0
  8  9  1  0  0  0  0
  9 10  2  0  0  0  0
 10 11  1  0  0  0  0
 11 12  2  0  0  0  0
 12 13  1  0  0  0  0
 13 14  3  0  0  0  0
 12 15  1  0  0  0  0
 15 16  3  0  0  0  0
  8 17  1  0  0  0  0
 17 18  1  0  0  0  0
 18 19  1  0  0  0  0
 19 20  2  0  0  0  0
 20 21  1  0  0  0  0
 21 22  1  0  0  0  0
 21 23  1  0  0  0  0
  1 24  1  0  0  0  0
 24 25  2  0  0  0  0
 25 26  1  0  0  0  0
 26 27  1  0  0  0  0
 27 28  1  0  0  0  0
 28 29  1  0  0  0  0
 26 30  2  0  0  0  0
 30 31  1  0  0  0  0
 30 32  1  0  0  0  0
 32 33  2  0  0  0  0
 33 34  1  0  0  0  0
 34 35  2  0  0  0  0
 35 36  1  0  0  0  0
 36 37  2  0  0  0  0
 37 38  1  0  0  0  0
 38 39  1  0  0  0  0
 39 40  1  0  0  0  0
 38 41  2  0  0  0  0
 33 42  1  0  0  0  0
 42 43  1  0  0  0  0
 43 44  1  0  0  0  0
 44 45  1  0  0  0  0
 45 46  1  0  0  0  0
 46 47  1  0  0  0  0
 47 48  2  0  0  0  0
 48 49  1  0  0  0  0
 49 50  1  0  0  0  0
 47 51  1  0  0  0  0
 51 52  1  0  0  0  0
 52 53  1  0  0  0  0
 53 54  1  0  0  0  0
 54 55  1  0  0  0  0
 55 56  1  0  0  0  0
 56 57  2  0  0  0  0
 57 58  1  0  0  0  0
 58 59  2  0  0  0  0
 59 60  1  0  0  0  0
 60 61  1  0  0  0  0
 61 62  1  0  0  0  0
 60 63  2  0  0  0  0
 55 64  2  0  0  0  0
 64 65  1  0  0  0  0
 65 66  1  0  0  0  0
 66 67  1  0  0  0  0
 67 68  1  0  0  0  0
 68 69  1  0  0  0  0
 69 70  1  0  0  0  0
 70 71  1  0  0  0  0
 71 72  1  0  0  0  0
 72 73  1  0  0  0  0
 73 74  1  0  0  0  0
 71 75  1  0  0  0  0
 75 76  1  0  0  0  0
 68 77  1  0  0  0  0
 77 78  1  0  0  0  0
 64 79  1  0  0  0  0
 79 80  2  0  0  0  0
 80 81  1  0  0  0  0
 81 82  1  0  0  0  0
 82 83  1  0  0  0  0
 83 84  1  0  0  0  0
 81 85  2  0  0  0  0
 85 86  1  0  0  0  0
 85 87  1  0  0  0  0
 87 88  2  0  0  0  0
 88 89  1  0  0  0  0
 89 90  2  0  0  0  0
 89 91  1  0  0  0  0
 91 92  2  0  0  0  0
 92 93  1  0  0  0  0
 93 94  2  0  0  0  0
 94 95  1  0  0  0  0
 95 96  1  0  0  0  0
 95 97  2  0  0  0  0
 97 98  1  0  0  0  0
 92 99  1  0  0  0  0
 99100  2  0  0  0  0
100101  1  0  0  0  0
101102  3  0  0  0  0
100103  1  0  0  0  0
103104  3  0  0  0  0
 11  2  1  0  0  0  0
 23 17  1  0  0  0  0
 31 24  1  0  0  0  0
 74 32  1  0  0  0  0
 86 79  1  0  0  0  0
 99 88  1  0  0  0  0
 10  5  1  0  0  0  0
 22 18  1  0  0  0  0
 41 34  1  0  0  0  0
 73 42  2  0  0  0  0
 97 91  1  0  0  0  0
 23  7  1  0  0  0  0
 72 44  2  0  0  0  0
 70 45  2  0  0  0  0
 50 46  2  0  0  0  0
 69 51  2  0  0  0  0
 67 52  2  0  0  0  0
 66 54  2  0  0  0  0
 63 56  1  0  0  0  0
  1105  1  0  0  0  0
  6106  1  0  0  0  0
  9107  1  0  0  0  0
 17108  1  0  0  0  0
 18109  1  0  0  0  0
 19110  1  0  0  0  0
 20111  1  0  0  0  0
 21112  1  0  0  0  0
 22113  1  0  0  0  0
 22114  1  0  0  0  0
 23115  1  0  0  0  0
 25116  1  0  0  0  0
 28117  1  0  0  0  0
 28118  1  0  0  0  0
 29119  1  0  0  0  0
 29120  1  0  0  0  0
 29121  1  0  0  0  0
 35122  1  0  0  0  0
 36123  1  0  0  0  0
 37124  1  0  0  0  0
 39125  1  0  0  0  0
 39126  1  0  0  0  0
 40127  1  0  0  0  0
 40128  1  0  0  0  0
 40129  1  0  0  0  0
 41130  1  0  0  0  0
 57131  1  0  0  0  0
 58132  1  0  0  0  0
 59133  1  0  0  0  0
 61134  1  0  0  0  0
 61135  1  0  0  0  0
 62136  1  0  0  0  0
 62137  1  0  0  0  0
 62138  1  0  0  0  0
 63139  1  0  0  0  0
 75140  1  0  0  0  0
 75141  1  0  0  0  0
 76142  1  0  0  0  0
 76143  1  0  0  0  0
 76144  1  0  0  0  0
 77145  1  0  0  0  0
 77146  1  0  0  0  0
 78147  1  0  0  0  0
 78148  1  0  0  0  0
 78149  1  0  0  0  0
 80150  1  0  0  0  0
 83151  1  0  0  0  0
 83152  1  0  0  0  0
 84153  1  0  0  0  0
 84154  1  0  0  0  0
 84155  1  0  0  0  0
 87156  1  0  0  0  0
 93157  1  0  0  0  0
 94158  1  0  0  0  0
M  END
