
  xtb     02122217593D
 energy: -285.897637943693 gnorm: 0.000708779549 xtb: 6.4.1 (unknown)
167188  0     0  0            999 V2000
   -3.5028   -1.5540   -9.2710 C   0  0  0  0  0  0  0  0  0  0  0  0
   -4.5825   -0.9827   -8.6503 C   0  0  0  0  0  0  0  0  0  0  0  0
   -4.5559   -0.3027   -7.3507 C   0  0  0  0  0  0  0  0  0  0  0  0
   -3.5825   -0.0765   -6.6511 O   0  0  0  0  0  0  0  0  0  0  0  0
   -5.9480    0.0608   -7.0424 C   0  0  0  0  0  0  0  0  0  0  0  0
   -6.4139    0.6901   -5.8899 C   0  0  0  0  0  0  0  0  0  0  0  0
   -7.7734    0.8881   -5.8725 C   0  0  0  0  0  0  0  0  0  0  0  0
   -8.6081    0.4910   -6.9255 C   0  0  0  0  0  0  0  0  0  0  0  0
   -8.1610   -0.1316   -8.0669 C   0  0  0  0  0  0  0  0  0  0  0  0
   -6.7794   -0.3450   -8.1057 C   0  0  0  0  0  0  0  0  0  0  0  0
   -5.9514   -0.9812   -9.1304 C   0  0  0  0  0  0  0  0  0  0  0  0
   -6.4114   -1.4755  -10.3239 C   0  0  0  0  0  0  0  0  0  0  0  0
   -7.7604   -1.4452  -10.7353 C   0  0  0  0  0  0  0  0  0  0  0  0
   -8.8356   -1.4543  -11.1384 N   0  0  0  0  0  0  0  0  0  0  0  0
   -5.6236   -2.0812  -11.3252 C   0  0  0  0  0  0  0  0  0  0  0  0
   -5.0602   -2.5816  -12.1926 N   0  0  0  0  0  0  0  0  0  0  0  0
   -9.8514    0.9976   -6.2372 C   0  0  0  0  0  0  0  0  0  0  0  0
  -10.4247    2.3388   -6.7415 C   0  0  0  0  0  0  0  0  0  0  0  0
  -11.3079    2.8034   -5.6059 C   0  0  0  0  0  0  0  0  0  0  0  0
  -10.5182    3.1782   -4.6077 C   0  0  0  0  0  0  0  0  0  0  0  0
   -9.0877    2.9734   -5.0518 C   0  0  0  0  0  0  0  0  0  0  0  0
   -9.2293    3.2807   -6.5481 C   0  0  0  0  0  0  0  0  0  0  0  0
   -8.9206    1.4392   -5.0625 C   0  0  0  0  0  0  0  0  0  0  0  0
   -2.1641   -1.6364   -8.8548 C   0  0  0  0  0  0  0  0  0  0  0  0
   -1.2042   -2.3515   -9.5622 C   0  0  0  0  0  0  0  0  0  0  0  0
    0.0589   -2.3643   -8.9806 C   0  0  0  0  0  0  0  0  0  0  0  0
    1.3442   -3.3253   -9.7164 S   0  0  0  0  0  0  0  0  0  0  0  0
    1.9302   -4.3178   -8.2874 C   0  0  0  0  0  0  0  0  0  0  0  0
    3.0508   -5.2246   -8.7543 C   0  0  0  0  0  0  0  0  0  0  0  0
    0.1105   -1.6010   -7.8139 C   0  0  0  0  0  0  0  0  0  0  0  0
   -1.4549   -0.9464   -7.4182 S   0  0  0  0  0  0  0  0  0  0  0  0
    1.1683   -1.3251   -6.9037 C   0  0  0  0  0  0  0  0  0  0  0  0
    2.5401   -1.2137   -7.0852 C   0  0  0  0  0  0  0  0  0  0  0  0
    3.2418   -1.2016   -8.3674 C   0  0  0  0  0  0  0  0  0  0  0  0
    2.7232   -0.5036   -9.4552 C   0  0  0  0  0  0  0  0  0  0  0  0
    3.4236   -0.4664  -10.6445 C   0  0  0  0  0  0  0  0  0  0  0  0
    4.6382   -1.1197  -10.7615 C   0  0  0  0  0  0  0  0  0  0  0  0
    5.1721   -1.8173   -9.6857 C   0  0  0  0  0  0  0  0  0  0  0  0
    6.5138   -2.4842   -9.7826 C   0  0  0  0  0  0  0  0  0  0  0  0
    7.6058   -1.5502   -9.2570 C   0  0  0  0  0  0  0  0  0  0  0  0
    4.4683   -1.8460   -8.4920 C   0  0  0  0  0  0  0  0  0  0  0  0
    3.1974   -0.9821   -5.8588 C   0  0  0  0  0  0  0  0  0  0  0  0
    4.8810   -0.7677   -5.4330 S   0  0  0  0  0  0  0  0  0  0  0  0
    4.4157   -0.5102   -3.7850 C   0  0  0  0  0  0  0  0  0  0  0  0
    5.0011   -0.2149   -2.5387 C   0  0  0  0  0  0  0  0  0  0  0  0
    6.3167    0.1063   -2.1328 C   0  0  0  0  0  0  0  0  0  0  0  0
    6.5551    0.5195   -0.7719 C   0  0  0  0  0  0  0  0  0  0  0  0
    7.8177    0.8579   -0.5646 N   0  0  0  0  0  0  0  0  0  0  0  0
    8.6387    0.6671   -1.9459 S   0  0  0  0  0  0  0  0  0  0  0  0
    7.4153    0.1477   -2.8697 N   0  0  0  0  0  0  0  0  0  0  0  0
    5.4978    0.4624    0.1646 C   0  0  0  0  0  0  0  0  0  0  0  0
    5.4192    0.6737    1.5555 C   0  0  0  0  0  0  0  0  0  0  0  0
    6.4169    1.2060    2.8676 S   0  0  0  0  0  0  0  0  0  0  0  0
    5.0811    0.9540    3.9666 C   0  0  0  0  0  0  0  0  0  0  0  0
    4.9149    1.1761    5.3526 C   0  0  0  0  0  0  0  0  0  0  0  0
    5.9460    1.7517    6.2147 C   0  0  0  0  0  0  0  0  0  0  0  0
    7.2721    1.3513    6.0824 C   0  0  0  0  0  0  0  0  0  0  0  0
    8.2415    1.8992    6.9004 C   0  0  0  0  0  0  0  0  0  0  0  0
    7.9017    2.8468    7.8491 C   0  0  0  0  0  0  0  0  0  0  0  0
    6.5839    3.2655    7.9887 C   0  0  0  0  0  0  0  0  0  0  0  0
    6.2200    4.3296    8.9844 C   0  0  0  0  0  0  0  0  0  0  0  0
    6.3844    5.7192    8.3659 C   0  0  0  0  0  0  0  0  0  0  0  0
    5.6171    2.7179    7.1614 C   0  0  0  0  0  0  0  0  0  0  0  0
    3.6318    0.8624    5.7518 C   0  0  0  0  0  0  0  0  0  0  0  0
    2.6156    0.3179    4.4282 S   0  0  0  0  0  0  0  0  0  0  0  0
    3.9329    0.4846    3.3282 C   0  0  0  0  0  0  0  0  0  0  0  0
    4.1270    0.3168    1.9526 C   0  0  0  0  0  0  0  0  0  0  0  0
    3.3913   -0.0958    0.8694 N   0  0  0  0  0  0  0  0  0  0  0  0
    4.2111    0.0229   -0.2376 C   0  0  0  0  0  0  0  0  0  0  0  0
    3.9328   -0.1602   -1.6075 C   0  0  0  0  0  0  0  0  0  0  0  0
    2.7313   -0.3563   -2.2634 N   0  0  0  0  0  0  0  0  0  0  0  0
    3.0337   -0.5830   -3.5835 C   0  0  0  0  0  0  0  0  0  0  0  0
    2.3388   -0.8586   -4.7652 C   0  0  0  0  0  0  0  0  0  0  0  0
    0.6902   -1.0730   -5.2251 S   0  0  0  0  0  0  0  0  0  0  0  0
    1.4518    0.2232   -1.9030 C   0  0  0  0  0  0  0  0  0  0  0  0
    1.2129    1.5412   -2.6393 C   0  0  0  0  0  0  0  0  0  0  0  0
    2.3116   -1.0495    1.0350 C   0  0  0  0  0  0  0  0  0  0  0  0
    2.7854   -2.3049    1.7669 C   0  0  0  0  0  0  0  0  0  0  0  0
    3.0265    0.8861    7.0641 C   0  0  0  0  0  0  0  0  0  0  0  0
    3.6768    0.4422    8.2235 C   0  0  0  0  0  0  0  0  0  0  0  0
    4.9357   -0.0212    8.1447 F   0  0  0  0  0  0  0  0  0  0  0  0
    3.0581    0.4218    9.4518 C   0  0  0  0  0  0  0  0  0  0  0  0
    1.7197    0.8029    9.5891 C   0  0  0  0  0  0  0  0  0  0  0  0
    1.0822    1.2703    8.4341 C   0  0  0  0  0  0  0  0  0  0  0  0
   -0.1821    1.7380    8.5119 F   0  0  0  0  0  0  0  0  0  0  0  0
    1.7050    1.3141    7.2100 C   0  0  0  0  0  0  0  0  0  0  0  0
    1.0745    0.7312   10.8791 C   0  0  0  0  0  0  0  0  0  0  0  0
   -0.2151    0.4632   11.1709 C   0  0  0  0  0  0  0  0  0  0  0  0
   -0.7433    0.7801   12.5353 C   0  0  0  0  0  0  0  0  0  0  0  0
   -0.0844    1.0102   13.5218 O   0  0  0  0  0  0  0  0  0  0  0  0
   -2.2081    0.8042   12.3873 C   0  0  0  0  0  0  0  0  0  0  0  0
   -3.1473    1.2006   13.3394 C   0  0  0  0  0  0  0  0  0  0  0  0
   -4.4473    1.1537   12.8976 C   0  0  0  0  0  0  0  0  0  0  0  0
   -4.7947    0.7579   11.5974 C   0  0  0  0  0  0  0  0  0  0  0  0
   -3.8833    0.3605   10.6495 C   0  0  0  0  0  0  0  0  0  0  0  0
   -2.5551    0.3828   11.0852 C   0  0  0  0  0  0  0  0  0  0  0  0
   -1.3405    0.0018   10.3746 C   0  0  0  0  0  0  0  0  0  0  0  0
   -1.2832   -0.8249    9.2876 C   0  0  0  0  0  0  0  0  0  0  0  0
   -2.4182   -1.3265    8.6152 C   0  0  0  0  0  0  0  0  0  0  0  0
   -3.3008   -1.7626    8.0256 N   0  0  0  0  0  0  0  0  0  0  0  0
   -0.0882   -1.3440    8.7482 C   0  0  0  0  0  0  0  0  0  0  0  0
    0.8467   -1.8238    8.2868 N   0  0  0  0  0  0  0  0  0  0  0  0
   -6.2679    0.9651   11.8416 C   0  0  0  0  0  0  0  0  0  0  0  0
   -7.1099   -0.3072   12.0752 C   0  0  0  0  0  0  0  0  0  0  0  0
   -8.3617    0.2068   12.7488 C   0  0  0  0  0  0  0  0  0  0  0  0
   -8.0346    0.5746   13.9811 C   0  0  0  0  0  0  0  0  0  0  0  0
   -6.5561    0.3154   14.1614 C   0  0  0  0  0  0  0  0  0  0  0  0
   -6.3985   -0.9321   13.2823 C   0  0  0  0  0  0  0  0  0  0  0  0
   -5.8824    1.3990   13.2924 C   0  0  0  0  0  0  0  0  0  0  0  0
   -3.6787   -2.0443  -10.2207 H   0  0  0  0  0  0  0  0  0  0  0  0
   -5.7346    0.9744   -5.1015 H   0  0  0  0  0  0  0  0  0  0  0  0
   -8.8198   -0.4370   -8.8621 H   0  0  0  0  0  0  0  0  0  0  0  0
  -10.6207    0.2531   -6.0412 H   0  0  0  0  0  0  0  0  0  0  0  0
  -10.8769    2.2981   -7.7285 H   0  0  0  0  0  0  0  0  0  0  0  0
  -12.3811    2.7604   -5.6243 H   0  0  0  0  0  0  0  0  0  0  0  0
  -10.7998    3.5104   -3.6256 H   0  0  0  0  0  0  0  0  0  0  0  0
   -8.3221    3.5116   -4.4994 H   0  0  0  0  0  0  0  0  0  0  0  0
   -8.3552    3.0157   -7.1402 H   0  0  0  0  0  0  0  0  0  0  0  0
   -9.4915    4.3214   -6.7314 H   0  0  0  0  0  0  0  0  0  0  0  0
   -9.0692    0.9879   -4.0831 H   0  0  0  0  0  0  0  0  0  0  0  0
   -1.4262   -2.8792  -10.4730 H   0  0  0  0  0  0  0  0  0  0  0  0
    2.2766   -3.6349   -7.5142 H   0  0  0  0  0  0  0  0  0  0  0  0
    1.0773   -4.8889   -7.9205 H   0  0  0  0  0  0  0  0  0  0  0  0
    3.4161   -5.8217   -7.9215 H   0  0  0  0  0  0  0  0  0  0  0  0
    2.6995   -5.8919   -9.5377 H   0  0  0  0  0  0  0  0  0  0  0  0
    3.8711   -4.6297   -9.1502 H   0  0  0  0  0  0  0  0  0  0  0  0
    1.7802    0.0139   -9.3595 H   0  0  0  0  0  0  0  0  0  0  0  0
    3.0188    0.0743  -11.4868 H   0  0  0  0  0  0  0  0  0  0  0  0
    5.1773   -1.0890  -11.6973 H   0  0  0  0  0  0  0  0  0  0  0  0
    6.7263   -2.7434  -10.8215 H   0  0  0  0  0  0  0  0  0  0  0  0
    6.5161   -3.4037   -9.1929 H   0  0  0  0  0  0  0  0  0  0  0  0
    7.6293   -0.6319   -9.8394 H   0  0  0  0  0  0  0  0  0  0  0  0
    8.5800   -2.0288   -9.3230 H   0  0  0  0  0  0  0  0  0  0  0  0
    7.4139   -1.2914   -8.2181 H   0  0  0  0  0  0  0  0  0  0  0  0
    4.8698   -2.3946   -7.6518 H   0  0  0  0  0  0  0  0  0  0  0  0
    7.5358    0.5971    5.3573 H   0  0  0  0  0  0  0  0  0  0  0  0
    9.2684    1.5804    6.8006 H   0  0  0  0  0  0  0  0  0  0  0  0
    8.6638    3.2660    8.4902 H   0  0  0  0  0  0  0  0  0  0  0  0
    6.8638    4.2484    9.8625 H   0  0  0  0  0  0  0  0  0  0  0  0
    5.1847    4.1977    9.3063 H   0  0  0  0  0  0  0  0  0  0  0  0
    6.1190    6.4904    9.0853 H   0  0  0  0  0  0  0  0  0  0  0  0
    7.4145    5.8745    8.0535 H   0  0  0  0  0  0  0  0  0  0  0  0
    5.7439    5.8225    7.4928 H   0  0  0  0  0  0  0  0  0  0  0  0
    4.5917    3.0515    7.2480 H   0  0  0  0  0  0  0  0  0  0  0  0
    1.4378    0.4220   -0.8333 H   0  0  0  0  0  0  0  0  0  0  0  0
    0.6617   -0.4912   -2.1554 H   0  0  0  0  0  0  0  0  0  0  0  0
    0.2738    1.9756   -2.3086 H   0  0  0  0  0  0  0  0  0  0  0  0
    1.1595    1.3867   -3.7131 H   0  0  0  0  0  0  0  0  0  0  0  0
    2.0181    2.2413   -2.4260 H   0  0  0  0  0  0  0  0  0  0  0  0
    1.9467   -1.3448    0.0530 H   0  0  0  0  0  0  0  0  0  0  0  0
    1.5042   -0.5732    1.6006 H   0  0  0  0  0  0  0  0  0  0  0  0
    1.9698   -3.0203    1.8227 H   0  0  0  0  0  0  0  0  0  0  0  0
    3.6154   -2.7605    1.2310 H   0  0  0  0  0  0  0  0  0  0  0  0
    3.1077   -2.0729    2.7777 H   0  0  0  0  0  0  0  0  0  0  0  0
    3.6021    0.0488   10.3052 H   0  0  0  0  0  0  0  0  0  0  0  0
    1.1583    1.6819    6.3554 H   0  0  0  0  0  0  0  0  0  0  0  0
    1.7036    0.9649   11.7325 H   0  0  0  0  0  0  0  0  0  0  0  0
   -2.8395    1.5129   14.3250 H   0  0  0  0  0  0  0  0  0  0  0  0
   -4.1573    0.0733    9.6477 H   0  0  0  0  0  0  0  0  0  0  0  0
   -6.7593    1.6885   11.1940 H   0  0  0  0  0  0  0  0  0  0  0  0
   -7.2461   -0.9300   11.1955 H   0  0  0  0  0  0  0  0  0  0  0  0
   -9.3127    0.2981   12.2580 H   0  0  0  0  0  0  0  0  0  0  0  0
   -8.6580    1.0345   14.7252 H   0  0  0  0  0  0  0  0  0  0  0  0
   -6.1905    0.2587   15.1830 H   0  0  0  0  0  0  0  0  0  0  0  0
   -5.3647   -1.2142   13.0914 H   0  0  0  0  0  0  0  0  0  0  0  0
   -6.9409   -1.7874   13.6814 H   0  0  0  0  0  0  0  0  0  0  0  0
   -6.1195    2.4111   13.6150 H   0  0  0  0  0  0  0  0  0  0  0  0
  1  2  2  0  0  0  0
  2  3  1  0  0  0  0
  3  4  2  0  0  0  0
  3  5  1  0  0  0  0
  5  6  2  0  0  0  0
  6  7  1  0  0  0  0
  7  8  2  0  0  0  0
  8  9  1  0  0  0  0
  9 10  2  0  0  0  0
 10 11  1  0  0  0  0
 11 12  2  0  0  0  0
 12 13  1  0  0  0  0
 13 14  3  0  0  0  0
 12 15  1  0  0  0  0
 15 16  3  0  0  0  0
  8 17  1  0  0  0  0
 17 18  1  0  0  0  0
 18 19  1  0  0  0  0
 19 20  2  0  0  0  0
 20 21  1  0  0  0  0
 21 22  1  0  0  0  0
 21 23  1  0  0  0  0
  1 24  1  0  0  0  0
 24 25  2  0  0  0  0
 25 26  1  0  0  0  0
 26 27  1  0  0  0  0
 27 28  1  0  0  0  0
 28 29  1  0  0  0  0
 26 30  2  0  0  0  0
 30 31  1  0  0  0  0
 30 32  1  0  0  0  0
 32 33  2  0  0  0  0
 33 34  1  0  0  0  0
 34 35  2  0  0  0  0
 35 36  1  0  0  0  0
 36 37  2  0  0  0  0
 37 38  1  0  0  0  0
 38 39  1  0  0  0  0
 39 40  1  0  0  0  0
 38 41  2  0  0  0  0
 33 42  1  0  0  0  0
 42 43  1  0  0  0  0
 43 44  1  0  0  0  0
 44 45  1  0  0  0  0
 45 46  1  0  0  0  0
 46 47  1  0  0  0  0
 47 48  2  0  0  0  0
 48 49  1  0  0  0  0
 49 50  1  0  0  0  0
 47 51  1  0  0  0  0
 51 52  1  0  0  0  0
 52 53  1  0  0  0  0
 53 54  1  0  0  0  0
 54 55  1  0  0  0  0
 55 56  1  0  0  0  0
 56 57  2  0  0  0  0
 57 58  1  0  0  0  0
 58 59  2  0  0  0  0
 59 60  1  0  0  0  0
 60 61  1  0  0  0  0
 61 62  1  0  0  0  0
 60 63  2  0  0  0  0
 55 64  2  0  0  0  0
 64 65  1  0  0  0  0
 65 66  1  0  0  0  0
 66 67  1  0  0  0  0
 67 68  1  0  0  0  0
 68 69  1  0  0  0  0
 69 70  1  0  0  0  0
 70 71  1  0  0  0  0
 71 72  1  0  0  0  0
 72 73  1  0  0  0  0
 73 74  1  0  0  0  0
 71 75  1  0  0  0  0
 75 76  1  0  0  0  0
 68 77  1  0  0  0  0
 77 78  1  0  0  0  0
 64 79  1  0  0  0  0
 79 80  2  0  0  0  0
 80 81  1  0  0  0  0
 80 82  1  0  0  0  0
 82 83  2  0  0  0  0
 83 84  1  0  0  0  0
 84 85  1  0  0  0  0
 84 86  2  0  0  0  0
 83 87  1  0  0  0  0
 87 88  2  0  0  0  0
 88 89  1  0  0  0  0
 89 90  2  0  0  0  0
 89 91  1  0  0  0  0
 91 92  2  0  0  0  0
 92 93  1  0  0  0  0
 93 94  2  0  0  0  0
 94 95  1  0  0  0  0
 95 96  2  0  0  0  0
 96 97  1  0  0  0  0
 97 98  2  0  0  0  0
 98 99  1  0  0  0  0
 99100  3  0  0  0  0
 98101  1  0  0  0  0
101102  3  0  0  0  0
 94103  1  0  0  0  0
103104  1  0  0  0  0
104105  1  0  0  0  0
105106  2  0  0  0  0
106107  1  0  0  0  0
107108  1  0  0  0  0
107109  1  0  0  0  0
 11  2  1  0  0  0  0
 23 17  1  0  0  0  0
 31 24  1  0  0  0  0
 74 32  1  0  0  0  0
 86 79  1  0  0  0  0
 97 88  1  0  0  0  0
109103  1  0  0  0  0
 10  5  1  0  0  0  0
 22 18  1  0  0  0  0
 41 34  1  0  0  0  0
 73 42  2  0  0  0  0
 96 91  1  0  0  0  0
108104  1  0  0  0  0
 23  7  1  0  0  0  0
 72 44  2  0  0  0  0
109 93  1  0  0  0  0
 70 45  2  0  0  0  0
 50 46  2  0  0  0  0
 69 51  2  0  0  0  0
 67 52  2  0  0  0  0
 66 54  2  0  0  0  0
 63 56  1  0  0  0  0
  1110  1  0  0  0  0
  6111  1  0  0  0  0
  9112  1  0  0  0  0
 17113  1  0  0  0  0
 18114  1  0  0  0  0
 19115  1  0  0  0  0
 20116  1  0  0  0  0
 21117  1  0  0  0  0
 22118  1  0  0  0  0
 22119  1  0  0  0  0
 23120  1  0  0  0  0
 25121  1  0  0  0  0
 28122  1  0  0  0  0
 28123  1  0  0  0  0
 29124  1  0  0  0  0
 29125  1  0  0  0  0
 29126  1  0  0  0  0
 35127  1  0  0  0  0
 36128  1  0  0  0  0
 37129  1  0  0  0  0
 39130  1  0  0  0  0
 39131  1  0  0  0  0
 40132  1  0  0  0  0
 40133  1  0  0  0  0
 40134  1  0  0  0  0
 41135  1  0  0  0  0
 57136  1  0  0  0  0
 58137  1  0  0  0  0
 59138  1  0  0  0  0
 61139  1  0  0  0  0
 61140  1  0  0  0  0
 62141  1  0  0  0  0
 62142  1  0  0  0  0
 62143  1  0  0  0  0
 63144  1  0  0  0  0
 75145  1  0  0  0  0
 75146  1  0  0  0  0
 76147  1  0  0  0  0
 76148  1  0  0  0  0
 76149  1  0  0  0  0
 77150  1  0  0  0  0
 77151  1  0  0  0  0
 78152  1  0  0  0  0
 78153  1  0  0  0  0
 78154  1  0  0  0  0
 82155  1  0  0  0  0
 86156  1  0  0  0  0
 87157  1  0  0  0  0
 92158  1  0  0  0  0
 95159  1  0  0  0  0
103160  1  0  0  0  0
104161  1  0  0  0  0
105162  1  0  0  0  0
106163  1  0  0  0  0
107164  1  0  0  0  0
108165  1  0  0  0  0
108166  1  0  0  0  0
109167  1  0  0  0  0
M  END
