155

C          1.17220       -8.21490        5.37240
C          2.12820       -9.19200        5.38530
C          3.20790       -9.44240        4.40240
O          3.32410       -9.01110        3.27370
C          4.15810      -10.34710        5.07720
C          5.38760      -10.77710        4.58390
C          6.07940      -11.59530        5.44370
C          5.58290      -11.96480        6.70130
C          4.36690      -11.55650        7.19520
C          3.64870      -10.71900        6.33670
C          2.34510      -10.08610        6.51040
C          1.45430      -10.36200        7.51550
C          0.14460       -9.84530        7.61460
N         -0.94040       -9.49590        7.75900
C          1.70360      -11.26100        8.57330
N          1.83720      -11.97490        9.46270
C          6.80980      -12.77560        7.03560
C          7.84100      -12.15230        8.00880
C          7.70040      -10.65560        7.88210
C          8.16940      -10.30420        6.69220
C          8.63620      -11.55710        5.99300
C          9.12900      -12.37240        7.19920
C          7.36290      -12.36350        5.63490
C          0.82830       -7.26750        4.38920
C          1.17990       -7.09900        3.06320
C          0.53980       -6.02330        2.45680
S          0.80280       -5.61080        0.75740
C         -0.73700       -6.31350        0.04880
C         -0.77170       -7.82360        0.15960
C         -0.32190       -5.31670        3.29680
S         -0.34250       -6.04630        4.86910
C         -1.02700       -4.12060        3.01440
C         -1.92480       -3.43980        3.82880
C         -2.49280       -3.94830        5.08020
C         -2.39850       -3.19160        6.24270
C         -2.93460       -3.67670        7.42150
C         -3.56480       -4.90710        7.44730
C         -3.68670       -5.66750        6.28930
C         -4.40690       -6.98390        6.31510
C         -5.92070       -6.77320        6.25000
C         -3.15780       -5.17130        5.10890
C         -2.25110       -2.18330        3.29690
S         -3.27510       -0.88720        3.87370
C         -2.85260        0.03120        2.46770
C         -3.11520        1.28430        1.89480
C         -3.98390        2.31970        2.30220
C         -4.11290        3.48120        1.47270
N         -4.98950        4.35070        1.95080
S         -5.59640        3.75910        3.33040
N         -4.76510        2.37040        3.36980
C         -3.29870        3.59190        0.32490
C         -3.12980        4.65340       -0.57650
S         -3.75620        6.24030       -0.86770
C         -2.63230        6.41220       -2.19580
C         -2.36020        7.47610       -3.07730
C         -3.01010        8.78310       -2.96310
C         -2.25440        9.95330       -2.94430
C         -2.88140       11.17400       -2.78810
C         -4.25700       11.23950       -2.64540
C         -5.02410       10.08150       -2.64670
C         -6.51910       10.14880       -2.52740
C         -7.15990       10.25280       -3.91290
C         -4.38960        8.85840       -2.80500
C         -1.36020        7.13560       -3.97470
S         -0.72740        5.51910       -3.69780
C         -1.82710        5.28620       -2.38740
C         -2.11320        4.27880       -1.45800
N         -1.66570        3.02160       -1.15420
C         -2.38110        2.57030       -0.05570
C         -2.35800        1.36030        0.68920
N         -1.68370        0.16000        0.52740
C         -1.98320       -0.63550        1.60020
C         -1.63940       -1.90680        2.07140
S         -0.63930       -3.21610        1.55010
C         -1.10480       -0.44130       -0.65350
C         -2.12480       -0.54480       -1.78470
C         -0.40950        2.56760       -1.70700
C          0.70460        2.59760       -0.66340
C         -0.85530        7.87460       -5.07990
C         -1.43350        8.92700       -5.74980
C         -0.66810        9.41990       -6.81810
S         -1.40910       10.64470       -7.80870
C         -0.81250       10.38120       -9.51080
C         -0.96770        8.95270       -9.99270
C          0.55800        8.76320       -6.96580
S          0.65720        7.43440       -5.81420
C          1.67960        8.93690       -7.78890
C          2.14080       10.09780       -8.36400
C          1.72830       11.45830       -7.95430
O          0.88440       11.74770       -7.12720
C          2.61770       12.36690       -8.69590
C          2.81890       13.70240       -8.80190
S          4.12480       14.04080       -9.88340
C          4.39990       12.36580      -10.19150
C          3.52500       11.59410       -9.49150
C          3.22370       10.18650       -9.32120
C          3.80970        9.16570      -10.02680
C          4.84630        9.41510      -10.94740
N          5.69530        9.60760      -11.69570
C          3.43140        7.81230       -9.95540
N          3.13910        6.70120       -9.95880
H          0.58770       -8.10640        6.27930
H          5.73200      -10.46740        3.60950
H          4.00050      -11.84550        8.16610
H          6.64470      -13.83380        7.22780
H          7.80870      -12.55370        9.01810
H          7.23590      -10.03280        8.62400
H          8.17460       -9.32910        6.24140
H          9.32860      -11.41610        5.16720
H          9.32180      -13.41870        6.96630
H         10.00510      -11.93360        7.67430
H          7.56130      -13.15270        4.91230
H          1.87980       -7.73320        2.55110
H         -0.72570       -5.99090       -0.99130
H         -1.58080       -5.84920        0.55960
H         -1.67510       -8.20800       -0.31010
H         -0.76410       -8.13470        1.20270
H          0.09290       -8.25900       -0.33530
H         -1.89110       -2.23890        6.22240
H         -2.85350       -3.09210        8.32580
H         -3.96690       -5.28670        8.37520
H         -4.15460       -7.51910        7.23230
H         -4.08930       -7.59580        5.46890
H         -6.25890       -6.18030        7.09670
H         -6.43780       -7.72960        6.26730
H         -6.19140       -6.24780        5.33630
H         -3.25800       -5.74150        4.19540
H         -1.18040        9.90040       -3.04030
H         -2.29290       12.07900       -2.77470
H         -4.73950       12.19840       -2.52350
H         -6.88950        9.25380       -2.02410
H         -6.80350       11.01890       -1.93290
H         -8.24260       10.30650       -3.82800
H         -6.90140        9.38510       -4.51580
H         -6.80690       11.14380       -4.42750
H         -4.97570        7.95080       -2.81600
H         -0.21040        0.09810       -0.96460
H         -0.78560       -1.44570       -0.36440
H         -2.52170        0.43270       -2.04910
H         -2.95630       -1.17500       -1.47760
H         -1.66110       -0.98690       -2.66250
H         -0.52000        1.57920       -2.15240
H         -0.16010        3.25680       -2.51760
H          0.45450        1.98330        0.19840
H          1.63120        2.23420       -1.09930
H          0.86100        3.61690       -0.31820
H         -2.40000        9.32770       -5.50580
H          0.22210       10.72090       -9.58580
H         -1.44320       11.05710      -10.08950
H         -0.30860        8.27800       -9.45110
H         -0.71300        8.89800      -11.04920
H         -1.99380        8.61650       -9.86390
H          2.29480        8.05130       -7.90170
H          2.29310       14.50630       -8.32740
H          5.18680       12.07390      -10.85760
