
  xtb     02112223213D
 energy: -297.504010321231 gnorm: 0.000276701247 xtb: 6.4.1 (unknown)
177200  0     0  0            999 V2000
   -3.8988    0.3275   -5.5342 C   0  0  0  0  0  0  0  0  0  0  0  0
   -4.9989    1.0310   -5.1116 C   0  0  0  0  0  0  0  0  0  0  0  0
   -6.1430    0.4739   -4.3821 C   0  0  0  0  0  0  0  0  0  0  0  0
   -6.2658   -0.6564   -3.9413 O   0  0  0  0  0  0  0  0  0  0  0  0
   -7.1435    1.5532   -4.3029 C   0  0  0  0  0  0  0  0  0  0  0  0
   -8.4071    1.4845   -3.7214 C   0  0  0  0  0  0  0  0  0  0  0  0
   -9.1196    2.6578   -3.7941 C   0  0  0  0  0  0  0  0  0  0  0  0
   -8.6169    3.8117   -4.4093 C   0  0  0  0  0  0  0  0  0  0  0  0
   -7.3723    3.8921   -4.9889 C   0  0  0  0  0  0  0  0  0  0  0  0
   -6.6261    2.7126   -4.9156 C   0  0  0  0  0  0  0  0  0  0  0  0
   -5.2664    2.4275   -5.3715 C   0  0  0  0  0  0  0  0  0  0  0  0
   -4.3737    3.3572   -5.8461 C   0  0  0  0  0  0  0  0  0  0  0  0
   -3.0100    3.1157   -6.1042 C   0  0  0  0  0  0  0  0  0  0  0  0
   -1.8794    3.0211   -6.2920 N   0  0  0  0  0  0  0  0  0  0  0  0
   -4.6779    4.7148   -6.0718 C   0  0  0  0  0  0  0  0  0  0  0  0
   -4.8518    5.8299   -6.2855 N   0  0  0  0  0  0  0  0  0  0  0  0
   -9.8601    4.6113   -4.1082 C   0  0  0  0  0  0  0  0  0  0  0  0
   -9.7658    5.6131   -2.9378 C   0  0  0  0  0  0  0  0  0  0  0  0
  -11.2083    5.8784   -2.5716 C   0  0  0  0  0  0  0  0  0  0  0  0
  -11.6833    4.7865   -1.9863 C   0  0  0  0  0  0  0  0  0  0  0  0
  -10.5700    3.7646   -1.9473 C   0  0  0  0  0  0  0  0  0  0  0  0
   -9.3633    4.6963   -1.7754 C   0  0  0  0  0  0  0  0  0  0  0  0
  -10.4196    3.3252   -3.4195 C   0  0  0  0  0  0  0  0  0  0  0  0
   -3.4911   -0.9710   -5.2046 C   0  0  0  0  0  0  0  0  0  0  0  0
   -2.3060   -1.5272   -5.6813 C   0  0  0  0  0  0  0  0  0  0  0  0
   -1.9688   -2.7274   -5.0799 C   0  0  0  0  0  0  0  0  0  0  0  0
   -0.5262   -3.6641   -5.4694 S   0  0  0  0  0  0  0  0  0  0  0  0
    0.7636   -2.3681   -5.3654 C   0  0  0  0  0  0  0  0  0  0  0  0
    0.8660   -1.7823   -3.9720 C   0  0  0  0  0  0  0  0  0  0  0  0
   -2.9070   -3.1434   -4.1292 C   0  0  0  0  0  0  0  0  0  0  0  0
   -4.2534   -2.0447   -4.0511 S   0  0  0  0  0  0  0  0  0  0  0  0
   -2.7465   -4.1581   -3.1571 C   0  0  0  0  0  0  0  0  0  0  0  0
   -3.6888   -4.5951   -2.2306 C   0  0  0  0  0  0  0  0  0  0  0  0
   -5.1298   -4.3991   -2.3786 C   0  0  0  0  0  0  0  0  0  0  0  0
   -5.7551   -4.6919   -3.5896 C   0  0  0  0  0  0  0  0  0  0  0  0
   -7.1177   -4.5170   -3.7184 C   0  0  0  0  0  0  0  0  0  0  0  0
   -7.8661   -4.0546   -2.6491 C   0  0  0  0  0  0  0  0  0  0  0  0
   -7.2605   -3.7658   -1.4342 C   0  0  0  0  0  0  0  0  0  0  0  0
   -8.0688   -3.3166   -0.2513 C   0  0  0  0  0  0  0  0  0  0  0  0
   -8.3836   -4.5056    0.6587 C   0  0  0  0  0  0  0  0  0  0  0  0
   -5.8914   -3.9470   -1.3081 C   0  0  0  0  0  0  0  0  0  0  0  0
   -3.0788   -5.2374   -1.1407 C   0  0  0  0  0  0  0  0  0  0  0  0
   -3.6849   -5.8007    0.4051 S   0  0  0  0  0  0  0  0  0  0  0  0
   -2.0505   -6.0246    0.9410 C   0  0  0  0  0  0  0  0  0  0  0  0
   -1.3396   -6.1795    2.1424 C   0  0  0  0  0  0  0  0  0  0  0  0
   -1.7942   -6.2356    3.4790 C   0  0  0  0  0  0  0  0  0  0  0  0
   -0.8658   -5.9474    4.5367 C   0  0  0  0  0  0  0  0  0  0  0  0
   -1.4463   -5.9252    5.7256 N   0  0  0  0  0  0  0  0  0  0  0  0
   -3.0208   -6.2530    5.5356 S   0  0  0  0  0  0  0  0  0  0  0  0
   -3.0260   -6.4208    3.9244 N   0  0  0  0  0  0  0  0  0  0  0  0
    0.4885   -5.7120    4.2137 C   0  0  0  0  0  0  0  0  0  0  0  0
    1.5594   -5.2175    4.9812 C   0  0  0  0  0  0  0  0  0  0  0  0
    1.8343   -4.4506    6.5119 S   0  0  0  0  0  0  0  0  0  0  0  0
    3.4202   -3.9463    5.9626 C   0  0  0  0  0  0  0  0  0  0  0  0
    4.3655   -3.0070    6.4449 C   0  0  0  0  0  0  0  0  0  0  0  0
    4.2885   -2.3101    7.7273 C   0  0  0  0  0  0  0  0  0  0  0  0
    5.4533   -2.0022    8.4298 C   0  0  0  0  0  0  0  0  0  0  0  0
    5.3748   -1.3505    9.6442 C   0  0  0  0  0  0  0  0  0  0  0  0
    4.1433   -1.0032   10.1741 C   0  0  0  0  0  0  0  0  0  0  0  0
    2.9729   -1.2998    9.4886 C   0  0  0  0  0  0  0  0  0  0  0  0
    1.6270   -0.9719   10.0675 C   0  0  0  0  0  0  0  0  0  0  0  0
    1.0142   -2.2114   10.7223 C   0  0  0  0  0  0  0  0  0  0  0  0
    3.0580   -1.9525    8.2679 C   0  0  0  0  0  0  0  0  0  0  0  0
    5.3876   -2.8198    5.5382 C   0  0  0  0  0  0  0  0  0  0  0  0
    5.2492   -3.8621    4.1301 S   0  0  0  0  0  0  0  0  0  0  0  0
    3.7352   -4.4580    4.7050 C   0  0  0  0  0  0  0  0  0  0  0  0
    2.6681   -5.1656    4.1381 C   0  0  0  0  0  0  0  0  0  0  0  0
    2.3423   -5.6173    2.8868 N   0  0  0  0  0  0  0  0  0  0  0  0
    0.9795   -5.8891    2.8894 C   0  0  0  0  0  0  0  0  0  0  0  0
    0.0428   -6.0228    1.8315 C   0  0  0  0  0  0  0  0  0  0  0  0
    0.1583   -5.8293    0.4673 N   0  0  0  0  0  0  0  0  0  0  0  0
   -1.1040   -5.7699   -0.0554 C   0  0  0  0  0  0  0  0  0  0  0  0
   -1.6874   -5.3214   -1.2433 C   0  0  0  0  0  0  0  0  0  0  0  0
   -1.1129   -4.6758   -2.7381 S   0  0  0  0  0  0  0  0  0  0  0  0
    1.2747   -5.4105   -0.3451 C   0  0  0  0  0  0  0  0  0  0  0  0
    1.6406   -3.9499   -0.0891 C   0  0  0  0  0  0  0  0  0  0  0  0
    3.3916   -6.1221    2.0251 C   0  0  0  0  0  0  0  0  0  0  0  0
    3.2196   -7.6122    1.7455 C   0  0  0  0  0  0  0  0  0  0  0  0
    6.2919   -1.6949    5.3823 C   0  0  0  0  0  0  0  0  0  0  0  0
    5.7811   -0.4031    5.5940 C   0  0  0  0  0  0  0  0  0  0  0  0
    6.4759    0.6657    5.0855 C   0  0  0  0  0  0  0  0  0  0  0  0
    6.0205    2.0763    4.9479 C   0  0  0  0  0  0  0  0  0  0  0  0
    5.0679    2.6025    5.4685 O   0  0  0  0  0  0  0  0  0  0  0  0
    6.9997    2.6757    4.0026 C   0  0  0  0  0  0  0  0  0  0  0  0
    8.0444    1.7585    3.7633 C   0  0  0  0  0  0  0  0  0  0  0  0
    7.7044    0.4992    4.4135 C   0  0  0  0  0  0  0  0  0  0  0  0
    8.2678   -0.7596    4.3187 C   0  0  0  0  0  0  0  0  0  0  0  0
    7.5439   -1.8480    4.7859 C   0  0  0  0  0  0  0  0  0  0  0  0
    9.0862    2.1086    2.9243 C   0  0  0  0  0  0  0  0  0  0  0  0
    9.0172    3.3197    2.2501 C   0  0  0  0  0  0  0  0  0  0  0  0
    7.9084    4.1605    2.3708 C   0  0  0  0  0  0  0  0  0  0  0  0
    6.9118    3.8587    3.3121 C   0  0  0  0  0  0  0  0  0  0  0  0
    7.7710    5.2899    1.4719 C   0  0  0  0  0  0  0  0  0  0  0  0
    6.6441    5.5559    0.7723 C   0  0  0  0  0  0  0  0  0  0  0  0
    5.4965    4.6093    0.6279 C   0  0  0  0  0  0  0  0  0  0  0  0
    5.2966    3.5783    1.2310 O   0  0  0  0  0  0  0  0  0  0  0  0
    4.6883    5.1364   -0.4834 C   0  0  0  0  0  0  0  0  0  0  0  0
    3.5430    4.5499   -1.0208 C   0  0  0  0  0  0  0  0  0  0  0  0
    2.9960    5.2465   -2.0702 C   0  0  0  0  0  0  0  0  0  0  0  0
    3.5504    6.4398   -2.5580 C   0  0  0  0  0  0  0  0  0  0  0  0
    4.6745    7.0321   -2.0338 C   0  0  0  0  0  0  0  0  0  0  0  0
    5.2470    6.3405   -0.9589 C   0  0  0  0  0  0  0  0  0  0  0  0
    6.4268    6.6543   -0.1624 C   0  0  0  0  0  0  0  0  0  0  0  0
    7.1651    7.8037   -0.2311 C   0  0  0  0  0  0  0  0  0  0  0  0
    8.2625    8.1036    0.6051 C   0  0  0  0  0  0  0  0  0  0  0  0
    9.1557    8.4202    1.2531 N   0  0  0  0  0  0  0  0  0  0  0  0
    6.9168    8.8616   -1.1318 C   0  0  0  0  0  0  0  0  0  0  0  0
    6.7762    9.7537   -1.8402 N   0  0  0  0  0  0  0  0  0  0  0  0
    2.4979    6.5810   -3.6300 C   0  0  0  0  0  0  0  0  0  0  0  0
    2.9134    6.1939   -5.0652 C   0  0  0  0  0  0  0  0  0  0  0  0
    1.5979    5.9680   -5.7775 C   0  0  0  0  0  0  0  0  0  0  0  0
    1.0721    4.8412   -5.3139 C   0  0  0  0  0  0  0  0  0  0  0  0
    2.0247    4.2879   -4.2776 C   0  0  0  0  0  0  0  0  0  0  0  0
    3.3623    4.7387   -4.8787 C   0  0  0  0  0  0  0  0  0  0  0  0
    1.8789    5.2549   -3.0827 C   0  0  0  0  0  0  0  0  0  0  0  0
   -3.2081    0.8424   -6.1923 H   0  0  0  0  0  0  0  0  0  0  0  0
   -8.7555    0.5727   -3.2619 H   0  0  0  0  0  0  0  0  0  0  0  0
   -7.0023    4.7853   -5.4640 H   0  0  0  0  0  0  0  0  0  0  0  0
  -10.3884    5.0126   -4.9709 H   0  0  0  0  0  0  0  0  0  0  0  0
   -9.1417    6.4812   -3.1312 H   0  0  0  0  0  0  0  0  0  0  0  0
  -11.7330    6.7828   -2.8174 H   0  0  0  0  0  0  0  0  0  0  0  0
  -12.6843    4.5964   -1.6457 H   0  0  0  0  0  0  0  0  0  0  0  0
  -10.6787    2.9492   -1.2372 H   0  0  0  0  0  0  0  0  0  0  0  0
   -9.3775    5.2153   -0.8184 H   0  0  0  0  0  0  0  0  0  0  0  0
   -8.4008    4.2059   -1.9091 H   0  0  0  0  0  0  0  0  0  0  0  0
  -11.3223    2.8693   -3.8219 H   0  0  0  0  0  0  0  0  0  0  0  0
   -1.7047   -1.0374   -6.4267 H   0  0  0  0  0  0  0  0  0  0  0  0
    1.6792   -2.8867   -5.6465 H   0  0  0  0  0  0  0  0  0  0  0  0
    0.5435   -1.6050   -6.1100 H   0  0  0  0  0  0  0  0  0  0  0  0
    1.6727   -1.0530   -3.9366 H   0  0  0  0  0  0  0  0  0  0  0  0
   -0.0620   -1.2846   -3.6964 H   0  0  0  0  0  0  0  0  0  0  0  0
    1.0674   -2.5666   -3.2459 H   0  0  0  0  0  0  0  0  0  0  0  0
   -5.1684   -5.0611   -4.4184 H   0  0  0  0  0  0  0  0  0  0  0  0
   -7.6011   -4.7430   -4.6574 H   0  0  0  0  0  0  0  0  0  0  0  0
   -8.9320   -3.9160   -2.7606 H   0  0  0  0  0  0  0  0  0  0  0  0
   -9.0016   -2.8618   -0.5899 H   0  0  0  0  0  0  0  0  0  0  0  0
   -7.5091   -2.5692    0.3147 H   0  0  0  0  0  0  0  0  0  0  0  0
   -8.9628   -4.1828    1.5207 H   0  0  0  0  0  0  0  0  0  0  0  0
   -7.4637   -4.9671    1.0103 H   0  0  0  0  0  0  0  0  0  0  0  0
   -8.9560   -5.2550    0.1164 H   0  0  0  0  0  0  0  0  0  0  0  0
   -5.4064   -3.7116   -0.3719 H   0  0  0  0  0  0  0  0  0  0  0  0
    6.4136   -2.2862    8.0253 H   0  0  0  0  0  0  0  0  0  0  0  0
    6.2796   -1.1148   10.1851 H   0  0  0  0  0  0  0  0  0  0  0  0
    4.0913   -0.4961   11.1267 H   0  0  0  0  0  0  0  0  0  0  0  0
    1.7252   -0.1789   10.8109 H   0  0  0  0  0  0  0  0  0  0  0  0
    0.9619   -0.6191    9.2765 H   0  0  0  0  0  0  0  0  0  0  0  0
    0.0381   -1.9771   11.1405 H   0  0  0  0  0  0  0  0  0  0  0  0
    1.6571   -2.5731   11.5219 H   0  0  0  0  0  0  0  0  0  0  0  0
    0.8970   -3.0075    9.9905 H   0  0  0  0  0  0  0  0  0  0  0  0
    2.1515   -2.1674    7.7221 H   0  0  0  0  0  0  0  0  0  0  0  0
    0.9616   -5.5246   -1.3865 H   0  0  0  0  0  0  0  0  0  0  0  0
    2.1227   -6.0749   -0.1890 H   0  0  0  0  0  0  0  0  0  0  0  0
    0.8048   -3.3087   -0.3594 H   0  0  0  0  0  0  0  0  0  0  0  0
    2.5010   -3.6690   -0.6908 H   0  0  0  0  0  0  0  0  0  0  0  0
    1.8729   -3.7811    0.9597 H   0  0  0  0  0  0  0  0  0  0  0  0
    4.3308   -5.9627    2.5614 H   0  0  0  0  0  0  0  0  0  0  0  0
    3.4561   -5.5454    1.1007 H   0  0  0  0  0  0  0  0  0  0  0  0
    4.0210   -7.9620    1.1000 H   0  0  0  0  0  0  0  0  0  0  0  0
    3.2542   -8.1728    2.6769 H   0  0  0  0  0  0  0  0  0  0  0  0
    2.2659   -7.8170    1.2643 H   0  0  0  0  0  0  0  0  0  0  0  0
    4.8176   -0.2605    6.0586 H   0  0  0  0  0  0  0  0  0  0  0  0
    9.2199   -0.9111    3.8329 H   0  0  0  0  0  0  0  0  0  0  0  0
    7.9325   -2.8464    4.6418 H   0  0  0  0  0  0  0  0  0  0  0  0
    9.9215    1.4441    2.7625 H   0  0  0  0  0  0  0  0  0  0  0  0
    9.8011    3.5866    1.5555 H   0  0  0  0  0  0  0  0  0  0  0  0
    6.0881    4.5334    3.4834 H   0  0  0  0  0  0  0  0  0  0  0  0
    8.6579    5.8900    1.3084 H   0  0  0  0  0  0  0  0  0  0  0  0
    3.1515    3.6310   -0.6132 H   0  0  0  0  0  0  0  0  0  0  0  0
    5.0881    7.9499   -2.4176 H   0  0  0  0  0  0  0  0  0  0  0  0
    1.9020    7.4905   -3.5913 H   0  0  0  0  0  0  0  0  0  0  0  0
    3.6141    6.8784   -5.5357 H   0  0  0  0  0  0  0  0  0  0  0  0
    1.1743    6.6564   -6.4845 H   0  0  0  0  0  0  0  0  0  0  0  0
    0.1270    4.3941   -5.5605 H   0  0  0  0  0  0  0  0  0  0  0  0
    1.9157    3.2363   -4.0263 H   0  0  0  0  0  0  0  0  0  0  0  0
    3.5714    4.2491   -5.8283 H   0  0  0  0  0  0  0  0  0  0  0  0
    4.2141    4.6175   -4.2110 H   0  0  0  0  0  0  0  0  0  0  0  0
    0.8694    5.2793   -2.6771 H   0  0  0  0  0  0  0  0  0  0  0  0
  1  2  2  0  0  0  0
  2  3  1  0  0  0  0
  3  4  2  0  0  0  0
  3  5  1  0  0  0  0
  5  6  2  0  0  0  0
  6  7  1  0  0  0  0
  7  8  2  0  0  0  0
  8  9  1  0  0  0  0
  9 10  2  0  0  0  0
 10 11  1  0  0  0  0
 11 12  2  0  0  0  0
 12 13  1  0  0  0  0
 13 14  3  0  0  0  0
 12 15  1  0  0  0  0
 15 16  3  0  0  0  0
  8 17  1  0  0  0  0
 17 18  1  0  0  0  0
 18 19  1  0  0  0  0
 19 20  2  0  0  0  0
 20 21  1  0  0  0  0
 21 22  1  0  0  0  0
 21 23  1  0  0  0  0
  1 24  1  0  0  0  0
 24 25  2  0  0  0  0
 25 26  1  0  0  0  0
 26 27  1  0  0  0  0
 27 28  1  0  0  0  0
 28 29  1  0  0  0  0
 26 30  2  0  0  0  0
 30 31  1  0  0  0  0
 30 32  1  0  0  0  0
 32 33  2  0  0  0  0
 33 34  1  0  0  0  0
 34 35  2  0  0  0  0
 35 36  1  0  0  0  0
 36 37  2  0  0  0  0
 37 38  1  0  0  0  0
 38 39  1  0  0  0  0
 39 40  1  0  0  0  0
 38 41  2  0  0  0  0
 33 42  1  0  0  0  0
 42 43  1  0  0  0  0
 43 44  1  0  0  0  0
 44 45  1  0  0  0  0
 45 46  1  0  0  0  0
 46 47  1  0  0  0  0
 47 48  2  0  0  0  0
 48 49  1  0  0  0  0
 49 50  1  0  0  0  0
 47 51  1  0  0  0  0
 51 52  1  0  0  0  0
 52 53  1  0  0  0  0
 53 54  1  0  0  0  0
 54 55  1  0  0  0  0
 55 56  1  0  0  0  0
 56 57  2  0  0  0  0
 57 58  1  0  0  0  0
 58 59  2  0  0  0  0
 59 60  1  0  0  0  0
 60 61  1  0  0  0  0
 61 62  1  0  0  0  0
 60 63  2  0  0  0  0
 55 64  2  0  0  0  0
 64 65  1  0  0  0  0
 65 66  1  0  0  0  0
 66 67  1  0  0  0  0
 67 68  1  0  0  0  0
 68 69  1  0  0  0  0
 69 70  1  0  0  0  0
 70 71  1  0  0  0  0
 71 72  1  0  0  0  0
 72 73  1  0  0  0  0
 73 74  1  0  0  0  0
 71 75  1  0  0  0  0
 75 76  1  0  0  0  0
 68 77  1  0  0  0  0
 77 78  1  0  0  0  0
 64 79  1  0  0  0  0
 79 80  2  0  0  0  0
 80 81  1  0  0  0  0
 81 82  1  0  0  0  0
 82 83  2  0  0  0  0
 82 84  1  0  0  0  0
 84 85  2  0  0  0  0
 85 86  1  0  0  0  0
 86 87  1  0  0  0  0
 87 88  2  0  0  0  0
 85 89  1  0  0  0  0
 89 90  2  0  0  0  0
 90 91  1  0  0  0  0
 91 92  2  0  0  0  0
 91 93  1  0  0  0  0
 93 94  2  0  0  0  0
 94 95  1  0  0  0  0
 95 96  2  0  0  0  0
 95 97  1  0  0  0  0
 97 98  2  0  0  0  0
 98 99  1  0  0  0  0
 99100  2  0  0  0  0
100101  1  0  0  0  0
101102  2  0  0  0  0
102103  1  0  0  0  0
103104  2  0  0  0  0
104105  1  0  0  0  0
105106  3  0  0  0  0
104107  1  0  0  0  0
107108  3  0  0  0  0
100109  1  0  0  0  0
109110  1  0  0  0  0
110111  1  0  0  0  0
111112  2  0  0  0  0
112113  1  0  0  0  0
113114  1  0  0  0  0
113115  1  0  0  0  0
 11  2  1  0  0  0  0
 23 17  1  0  0  0  0
 31 24  1  0  0  0  0
 74 32  1  0  0  0  0
 88 79  1  0  0  0  0
103 94  1  0  0  0  0
115109  1  0  0  0  0
 10  5  1  0  0  0  0
 22 18  1  0  0  0  0
 41 34  1  0  0  0  0
 73 42  2  0  0  0  0
 86 81  2  0  0  0  0
102 97  1  0  0  0  0
114110  1  0  0  0  0
 23  7  1  0  0  0  0
 72 44  2  0  0  0  0
 92 84  1  0  0  0  0
115 99  1  0  0  0  0
 70 45  2  0  0  0  0
 50 46  2  0  0  0  0
 69 51  2  0  0  0  0
 67 52  2  0  0  0  0
 66 54  2  0  0  0  0
 63 56  1  0  0  0  0
  1116  1  0  0  0  0
  6117  1  0  0  0  0
  9118  1  0  0  0  0
 17119  1  0  0  0  0
 18120  1  0  0  0  0
 19121  1  0  0  0  0
 20122  1  0  0  0  0
 21123  1  0  0  0  0
 22124  1  0  0  0  0
 22125  1  0  0  0  0
 23126  1  0  0  0  0
 25127  1  0  0  0  0
 28128  1  0  0  0  0
 28129  1  0  0  0  0
 29130  1  0  0  0  0
 29131  1  0  0  0  0
 29132  1  0  0  0  0
 35133  1  0  0  0  0
 36134  1  0  0  0  0
 37135  1  0  0  0  0
 39136  1  0  0  0  0
 39137  1  0  0  0  0
 40138  1  0  0  0  0
 40139  1  0  0  0  0
 40140  1  0  0  0  0
 41141  1  0  0  0  0
 57142  1  0  0  0  0
 58143  1  0  0  0  0
 59144  1  0  0  0  0
 61145  1  0  0  0  0
 61146  1  0  0  0  0
 62147  1  0  0  0  0
 62148  1  0  0  0  0
 62149  1  0  0  0  0
 63150  1  0  0  0  0
 75151  1  0  0  0  0
 75152  1  0  0  0  0
 76153  1  0  0  0  0
 76154  1  0  0  0  0
 76155  1  0  0  0  0
 77156  1  0  0  0  0
 77157  1  0  0  0  0
 78158  1  0  0  0  0
 78159  1  0  0  0  0
 78160  1  0  0  0  0
 80161  1  0  0  0  0
 87162  1  0  0  0  0
 88163  1  0  0  0  0
 89164  1  0  0  0  0
 90165  1  0  0  0  0
 92166  1  0  0  0  0
 93167  1  0  0  0  0
 98168  1  0  0  0  0
101169  1  0  0  0  0
109170  1  0  0  0  0
110171  1  0  0  0  0
111172  1  0  0  0  0
112173  1  0  0  0  0
113174  1  0  0  0  0
114175  1  0  0  0  0
114176  1  0  0  0  0
115177  1  0  0  0  0
M  END
