
  xtb     02162205403D
 energy: -393.500645830862 gnorm: 0.000556210745 xtb: 6.4.1 (unknown)
222248  0     0  0            999 V2000
    6.9738    6.8557   10.6663 C   0  0  0  0  0  0  0  0  0  0  0  0
    8.0159    7.5765   10.1567 C   0  0  0  0  0  0  0  0  0  0  0  0
    8.4114    7.7925    8.7428 C   0  0  0  0  0  0  0  0  0  0  0  0
    7.7722    7.6026    7.7274 O   0  0  0  0  0  0  0  0  0  0  0  0
    9.7911    8.3090    8.7869 C   0  0  0  0  0  0  0  0  0  0  0  0
   10.6147    8.5672    7.6921 C   0  0  0  0  0  0  0  0  0  0  0  0
   11.8657    9.0228    8.0294 C   0  0  0  0  0  0  0  0  0  0  0  0
   12.2693    9.2118    9.3587 C   0  0  0  0  0  0  0  0  0  0  0  0
   11.4636    8.9735   10.4462 C   0  0  0  0  0  0  0  0  0  0  0  0
   10.1844    8.5077   10.1242 C   0  0  0  0  0  0  0  0  0  0  0  0
    9.0648    8.1521   10.9895 C   0  0  0  0  0  0  0  0  0  0  0  0
    8.9971    8.3981   12.3349 C   0  0  0  0  0  0  0  0  0  0  0  0
    7.8763    8.1675   13.1625 C   0  0  0  0  0  0  0  0  0  0  0  0
    7.0111    8.0395   13.9067 N   0  0  0  0  0  0  0  0  0  0  0  0
   10.0377    8.9802   13.0901 C   0  0  0  0  0  0  0  0  0  0  0  0
   10.8405    9.4433   13.7678 N   0  0  0  0  0  0  0  0  0  0  0  0
   13.6504    9.6672    8.9586 C   0  0  0  0  0  0  0  0  0  0  0  0
   14.7888    8.6370    9.1179 C   0  0  0  0  0  0  0  0  0  0  0  0
   15.8862    9.1702    8.2254 C   0  0  0  0  0  0  0  0  0  0  0  0
   15.5043    8.9937    6.9669 C   0  0  0  0  0  0  0  0  0  0  0  0
   14.1423    8.3382    6.9876 C   0  0  0  0  0  0  0  0  0  0  0  0
   14.2835    7.4774    8.2497 C   0  0  0  0  0  0  0  0  0  0  0  0
   13.2000    9.4587    7.4770 C   0  0  0  0  0  0  0  0  0  0  0  0
    5.9044    6.1904   10.0247 C   0  0  0  0  0  0  0  0  0  0  0  0
    5.4748    6.1973    8.7219 C   0  0  0  0  0  0  0  0  0  0  0  0
    4.3767    5.3511    8.4817 C   0  0  0  0  0  0  0  0  0  0  0  0
    3.7434    5.1100    7.2434 C   0  0  0  0  0  0  0  0  0  0  0  0
    4.2191    5.7568    6.0330 C   0  0  0  0  0  0  0  0  0  0  0  0
    5.8961    5.6718    5.5838 S   0  0  0  0  0  0  0  0  0  0  0  0
    5.6541    6.6610    4.1891 C   0  0  0  0  0  0  0  0  0  0  0  0
    6.8148    7.0935    3.3644 C   0  0  0  0  0  0  0  0  0  0  0  0
    7.5610    8.2318    4.0664 C   0  0  0  0  0  0  0  0  0  0  0  0
    4.3431    7.0190    4.0818 C   0  0  0  0  0  0  0  0  0  0  0  0
    3.7190    8.0084    2.8254 Cl  0  0  0  0  0  0  0  0  0  0  0  0
    3.5235    6.5002    5.1194 C   0  0  0  0  0  0  0  0  0  0  0  0
    1.8547    6.8694    5.2442 Cl  0  0  0  0  0  0  0  0  0  0  0  0
    2.6930    4.2105    7.2490 C   0  0  0  0  0  0  0  0  0  0  0  0
    2.2483    3.5414    8.4214 C   0  0  0  0  0  0  0  0  0  0  0  0
    2.8566    3.8016    9.6669 C   0  0  0  0  0  0  0  0  0  0  0  0
    2.4172    3.1806   10.9004 C   0  0  0  0  0  0  0  0  0  0  0  0
    2.3352    3.7662   12.1341 C   0  0  0  0  0  0  0  0  0  0  0  0
    1.8859    2.8918   13.1413 C   0  0  0  0  0  0  0  0  0  0  0  0
    1.6324    1.6323   12.6928 C   0  0  0  0  0  0  0  0  0  0  0  0
    1.1873    0.4419   13.4688 C   0  0  0  0  0  0  0  0  0  0  0  0
    2.3443   -0.5320   13.7036 C   0  0  0  0  0  0  0  0  0  0  0  0
    1.9420    1.5052   10.9937 S   0  0  0  0  0  0  0  0  0  0  0  0
    3.9163    4.7057    9.6592 C   0  0  0  0  0  0  0  0  0  0  0  0
    4.8893    5.1533   11.0279 S   0  0  0  0  0  0  0  0  0  0  0  0
    1.1937    2.6462    8.1415 C   0  0  0  0  0  0  0  0  0  0  0  0
    0.8391    2.5978    6.8218 C   0  0  0  0  0  0  0  0  0  0  0  0
    1.8032    3.6923    5.8480 S   0  0  0  0  0  0  0  0  0  0  0  0
   -0.1179    1.7561    6.1869 C   0  0  0  0  0  0  0  0  0  0  0  0
   -0.9725    0.8162    6.7405 C   0  0  0  0  0  0  0  0  0  0  0  0
   -1.2287    0.5979    8.1681 C   0  0  0  0  0  0  0  0  0  0  0  0
   -1.6373    1.6452    8.9911 C   0  0  0  0  0  0  0  0  0  0  0  0
   -1.8913    1.4097   10.3281 C   0  0  0  0  0  0  0  0  0  0  0  0
   -1.7469    0.1359   10.8526 C   0  0  0  0  0  0  0  0  0  0  0  0
   -1.3601   -0.9228   10.0426 C   0  0  0  0  0  0  0  0  0  0  0  0
   -1.1814   -2.3067   10.5974 C   0  0  0  0  0  0  0  0  0  0  0  0
    0.3023   -2.6445   10.7524 C   0  0  0  0  0  0  0  0  0  0  0  0
   -1.1081   -0.6795    8.6994 C   0  0  0  0  0  0  0  0  0  0  0  0
   -1.6128    0.0612    5.7390 C   0  0  0  0  0  0  0  0  0  0  0  0
   -2.7244   -1.2866    5.8090 S   0  0  0  0  0  0  0  0  0  0  0  0
   -2.7311   -1.3383    4.0782 C   0  0  0  0  0  0  0  0  0  0  0  0
   -3.2422   -2.1322    3.0380 C   0  0  0  0  0  0  0  0  0  0  0  0
   -3.9465   -3.3560    3.0628 C   0  0  0  0  0  0  0  0  0  0  0  0
   -4.1640   -4.0563    1.8286 C   0  0  0  0  0  0  0  0  0  0  0  0
   -4.7630   -5.2231    2.0080 N   0  0  0  0  0  0  0  0  0  0  0  0
   -5.0374   -5.4206    3.5915 S   0  0  0  0  0  0  0  0  0  0  0  0
   -4.3980   -4.0269    4.1108 N   0  0  0  0  0  0  0  0  0  0  0  0
   -3.7945   -3.4334    0.6166 C   0  0  0  0  0  0  0  0  0  0  0  0
   -4.0044   -3.8062   -0.7203 C   0  0  0  0  0  0  0  0  0  0  0  0
   -4.6378   -5.1416   -1.6207 S   0  0  0  0  0  0  0  0  0  0  0  0
   -4.3590   -4.2433   -3.0917 C   0  0  0  0  0  0  0  0  0  0  0  0
   -4.5934   -4.5503   -4.4422 C   0  0  0  0  0  0  0  0  0  0  0  0
   -5.1968   -5.8104   -4.8969 C   0  0  0  0  0  0  0  0  0  0  0  0
   -6.3788   -5.8024   -5.6339 C   0  0  0  0  0  0  0  0  0  0  0  0
   -6.9119   -6.9924   -6.0886 C   0  0  0  0  0  0  0  0  0  0  0  0
   -6.2804   -8.1928   -5.8093 C   0  0  0  0  0  0  0  0  0  0  0  0
   -5.1135   -8.2196   -5.0578 C   0  0  0  0  0  0  0  0  0  0  0  0
   -4.4518   -9.5200   -4.7069 C   0  0  0  0  0  0  0  0  0  0  0  0
   -4.8259   -9.9412   -3.2851 C   0  0  0  0  0  0  0  0  0  0  0  0
   -4.5829   -7.0203   -4.6001 C   0  0  0  0  0  0  0  0  0  0  0  0
   -4.2097   -3.5049   -5.2666 C   0  0  0  0  0  0  0  0  0  0  0  0
   -3.5902   -2.1308   -4.3689 S   0  0  0  0  0  0  0  0  0  0  0  0
   -3.8115   -2.9741   -2.8766 C   0  0  0  0  0  0  0  0  0  0  0  0
   -3.5915   -2.7324   -1.5150 C   0  0  0  0  0  0  0  0  0  0  0  0
   -3.1064   -1.7254   -0.7223 N   0  0  0  0  0  0  0  0  0  0  0  0
   -3.1943   -2.1432    0.5931 C   0  0  0  0  0  0  0  0  0  0  0  0
   -2.7885   -1.5554    1.8191 C   0  0  0  0  0  0  0  0  0  0  0  0
   -1.9911   -0.4603    2.1188 N   0  0  0  0  0  0  0  0  0  0  0  0
   -1.9443   -0.3492    3.4842 C   0  0  0  0  0  0  0  0  0  0  0  0
   -1.2902    0.4434    4.4351 C   0  0  0  0  0  0  0  0  0  0  0  0
   -0.1563    1.7444    4.4297 S   0  0  0  0  0  0  0  0  0  0  0  0
   -0.9166    0.1213    1.3437 C   0  0  0  0  0  0  0  0  0  0  0  0
    0.2105   -0.8870    1.1307 C   0  0  0  0  0  0  0  0  0  0  0  0
   -2.9563   -0.3925   -1.2609 C   0  0  0  0  0  0  0  0  0  0  0  0
   -1.6675   -0.2322   -2.0658 C   0  0  0  0  0  0  0  0  0  0  0  0
   -4.1972   -3.4973   -6.6901 C   0  0  0  0  0  0  0  0  0  0  0  0
   -4.2459   -4.5976   -7.4988 C   0  0  0  0  0  0  0  0  0  0  0  0
   -4.2466   -4.2975   -8.8755 C   0  0  0  0  0  0  0  0  0  0  0  0
   -4.3679   -5.2128   -9.9357 C   0  0  0  0  0  0  0  0  0  0  0  0
   -4.5094   -6.6436   -9.6320 C   0  0  0  0  0  0  0  0  0  0  0  0
   -5.6222   -7.3651  -10.0559 C   0  0  0  0  0  0  0  0  0  0  0  0
   -5.7934   -8.6766   -9.6667 C   0  0  0  0  0  0  0  0  0  0  0  0
   -4.8680   -9.3184   -8.8451 C   0  0  0  0  0  0  0  0  0  0  0  0
   -5.2340  -10.9679   -8.3354 S   0  0  0  0  0  0  0  0  0  0  0  0
   -3.5833  -11.7729   -8.2401 C   0  0  0  0  0  0  0  0  0  0  0  0
   -3.7558  -13.2682   -8.4181 C   0  0  0  0  0  0  0  0  0  0  0  0
   -3.7551   -8.5884   -8.4408 C   0  0  0  0  0  0  0  0  0  0  0  0
   -2.8205   -9.1330   -7.6288 F   0  0  0  0  0  0  0  0  0  0  0  0
   -3.5660   -7.2796   -8.8317 C   0  0  0  0  0  0  0  0  0  0  0  0
   -4.4032   -4.6805  -11.2112 C   0  0  0  0  0  0  0  0  0  0  0  0
   -4.2729   -3.2863  -11.4575 C   0  0  0  0  0  0  0  0  0  0  0  0
   -4.1700   -2.3677  -10.3913 C   0  0  0  0  0  0  0  0  0  0  0  0
   -4.1443   -0.9272  -10.6684 C   0  0  0  0  0  0  0  0  0  0  0  0
   -3.2166   -0.3739  -11.5509 C   0  0  0  0  0  0  0  0  0  0  0  0
   -3.2572    0.9674  -11.8580 C   0  0  0  0  0  0  0  0  0  0  0  0
   -4.2278    1.8151  -11.3185 C   0  0  0  0  0  0  0  0  0  0  0  0
   -4.1911    3.4796  -11.8956 S   0  0  0  0  0  0  0  0  0  0  0  0
   -4.9504    4.4990  -10.5806 C   0  0  0  0  0  0  0  0  0  0  0  0
   -4.1674    4.4363   -9.2846 C   0  0  0  0  0  0  0  0  0  0  0  0
   -5.1444    1.2461  -10.4382 C   0  0  0  0  0  0  0  0  0  0  0  0
   -5.0990   -0.0920  -10.1011 C   0  0  0  0  0  0  0  0  0  0  0  0
   -6.1319    1.9803   -9.8823 F   0  0  0  0  0  0  0  0  0  0  0  0
   -4.1816   -2.9001   -9.1174 C   0  0  0  0  0  0  0  0  0  0  0  0
   -4.1082   -2.0088   -7.6166 S   0  0  0  0  0  0  0  0  0  0  0  0
   -4.3668   -2.9845  -12.8261 C   0  0  0  0  0  0  0  0  0  0  0  0
   -4.5730   -4.0798  -13.6307 C   0  0  0  0  0  0  0  0  0  0  0  0
   -4.6012   -5.5678  -12.6944 S   0  0  0  0  0  0  0  0  0  0  0  0
   -4.7017   -4.1294  -15.0354 C   0  0  0  0  0  0  0  0  0  0  0  0
   -4.9307   -3.1078  -15.9112 C   0  0  0  0  0  0  0  0  0  0  0  0
   -4.5927   -3.3162  -17.3442 C   0  0  0  0  0  0  0  0  0  0  0  0
   -4.3611   -4.3699  -17.8865 O   0  0  0  0  0  0  0  0  0  0  0  0
   -4.5475   -1.9560  -17.9296 C   0  0  0  0  0  0  0  0  0  0  0  0
   -4.9503   -1.0160  -16.9616 C   0  0  0  0  0  0  0  0  0  0  0  0
   -4.9475    0.3368  -17.2588 C   0  0  0  0  0  0  0  0  0  0  0  0
   -4.5505    0.7345  -18.5270 C   0  0  0  0  0  0  0  0  0  0  0  0
   -4.1713   -0.1938  -19.4847 C   0  0  0  0  0  0  0  0  0  0  0  0
   -3.6543    0.4124  -21.1973 Br  0  0  0  0  0  0  0  0  0  0  0  0
   -4.1611   -1.5649  -19.2017 C   0  0  0  0  0  0  0  0  0  0  0  0
   -3.6884   -2.7128  -20.3792 Cl  0  0  0  0  0  0  0  0  0  0  0  0
   -5.3426   -1.7319  -15.7475 C   0  0  0  0  0  0  0  0  0  0  0  0
   -6.1607   -1.2199  -14.7729 C   0  0  0  0  0  0  0  0  0  0  0  0
   -6.5480    0.1330  -14.6905 C   0  0  0  0  0  0  0  0  0  0  0  0
   -6.8674    1.2267  -14.5517 N   0  0  0  0  0  0  0  0  0  0  0  0
   -6.7655   -2.0001  -13.7662 C   0  0  0  0  0  0  0  0  0  0  0  0
   -7.3143   -2.5948  -12.9525 N   0  0  0  0  0  0  0  0  0  0  0  0
    6.9723    6.7143   11.7412 H   0  0  0  0  0  0  0  0  0  0  0  0
   10.2630    8.4097    6.6844 H   0  0  0  0  0  0  0  0  0  0  0  0
   11.7888    9.1250   11.4617 H   0  0  0  0  0  0  0  0  0  0  0  0
   13.9328   10.6669    9.2826 H   0  0  0  0  0  0  0  0  0  0  0  0
   15.0593    8.4132   10.1461 H   0  0  0  0  0  0  0  0  0  0  0  0
   16.7730    9.6548    8.5894 H   0  0  0  0  0  0  0  0  0  0  0  0
   16.0083    9.3018    6.0697 H   0  0  0  0  0  0  0  0  0  0  0  0
   13.8244    7.8414    6.0749 H   0  0  0  0  0  0  0  0  0  0  0  0
   15.0316    6.6951    8.1324 H   0  0  0  0  0  0  0  0  0  0  0  0
   13.3490    7.0384    8.5945 H   0  0  0  0  0  0  0  0  0  0  0  0
   13.1812   10.3203    6.8122 H   0  0  0  0  0  0  0  0  0  0  0  0
    5.9468    6.7972    7.9680 H   0  0  0  0  0  0  0  0  0  0  0  0
    7.4928    6.2500    3.2206 H   0  0  0  0  0  0  0  0  0  0  0  0
    6.4568    7.4269    2.3889 H   0  0  0  0  0  0  0  0  0  0  0  0
    7.8538    7.9252    5.0681 H   0  0  0  0  0  0  0  0  0  0  0  0
    8.4491    8.5031    3.5013 H   0  0  0  0  0  0  0  0  0  0  0  0
    6.9199    9.1060    4.1490 H   0  0  0  0  0  0  0  0  0  0  0  0
    2.5531    4.8039   12.3108 H   0  0  0  0  0  0  0  0  0  0  0  0
    1.7519    3.1906   14.1657 H   0  0  0  0  0  0  0  0  0  0  0  0
    0.7894    0.7765   14.4291 H   0  0  0  0  0  0  0  0  0  0  0  0
    0.3893   -0.0693   12.9246 H   0  0  0  0  0  0  0  0  0  0  0  0
    2.0007   -1.4004   14.2604 H   0  0  0  0  0  0  0  0  0  0  0  0
    3.1368   -0.0470   14.2688 H   0  0  0  0  0  0  0  0  0  0  0  0
    2.7556   -0.8667   12.7535 H   0  0  0  0  0  0  0  0  0  0  0  0
    0.7189    2.0402    8.8869 H   0  0  0  0  0  0  0  0  0  0  0  0
   -1.7581    2.6351    8.5762 H   0  0  0  0  0  0  0  0  0  0  0  0
   -2.2049    2.2227   10.9661 H   0  0  0  0  0  0  0  0  0  0  0  0
   -1.9538   -0.0375   11.8992 H   0  0  0  0  0  0  0  0  0  0  0  0
   -1.6745   -2.3824   11.5685 H   0  0  0  0  0  0  0  0  0  0  0  0
   -1.6450   -3.0306    9.9236 H   0  0  0  0  0  0  0  0  0  0  0  0
    0.4228   -3.6438   11.1638 H   0  0  0  0  0  0  0  0  0  0  0  0
    0.8053   -2.6024    9.7894 H   0  0  0  0  0  0  0  0  0  0  0  0
    0.7864   -1.9343   11.4180 H   0  0  0  0  0  0  0  0  0  0  0  0
   -0.8047   -1.4938    8.0577 H   0  0  0  0  0  0  0  0  0  0  0  0
   -6.8647   -4.8633   -5.8534 H   0  0  0  0  0  0  0  0  0  0  0  0
   -7.8234   -6.9856   -6.6673 H   0  0  0  0  0  0  0  0  0  0  0  0
   -6.6974   -9.1178   -6.1802 H   0  0  0  0  0  0  0  0  0  0  0  0
   -4.7710  -10.2933   -5.4075 H   0  0  0  0  0  0  0  0  0  0  0  0
   -3.3672   -9.4140   -4.7804 H   0  0  0  0  0  0  0  0  0  0  0  0
   -4.5189   -9.1819   -2.5694 H   0  0  0  0  0  0  0  0  0  0  0  0
   -4.3411  -10.8798   -3.0267 H   0  0  0  0  0  0  0  0  0  0  0  0
   -5.9025  -10.0720   -3.2026 H   0  0  0  0  0  0  0  0  0  0  0  0
   -3.6676   -7.0235   -4.0254 H   0  0  0  0  0  0  0  0  0  0  0  0
   -1.2768    0.4959    0.3900 H   0  0  0  0  0  0  0  0  0  0  0  0
   -0.5432    0.9741    1.9161 H   0  0  0  0  0  0  0  0  0  0  0  0
   -0.1516   -1.7573    0.5869 H   0  0  0  0  0  0  0  0  0  0  0  0
    0.6010   -1.2203    2.0894 H   0  0  0  0  0  0  0  0  0  0  0  0
    1.0192   -0.4278    0.5686 H   0  0  0  0  0  0  0  0  0  0  0  0
   -3.0233    0.3251   -0.4421 H   0  0  0  0  0  0  0  0  0  0  0  0
   -3.8065   -0.2073   -1.9279 H   0  0  0  0  0  0  0  0  0  0  0  0
   -1.7072   -0.8515   -2.9576 H   0  0  0  0  0  0  0  0  0  0  0  0
   -1.5547    0.8033   -2.3751 H   0  0  0  0  0  0  0  0  0  0  0  0
   -0.7961   -0.5267   -1.4883 H   0  0  0  0  0  0  0  0  0  0  0  0
   -4.2846   -5.5988   -7.1180 H   0  0  0  0  0  0  0  0  0  0  0  0
   -6.3651   -6.8872  -10.6752 H   0  0  0  0  0  0  0  0  0  0  0  0
   -6.6628   -9.2302   -9.9851 H   0  0  0  0  0  0  0  0  0  0  0  0
   -2.9750  -11.3486   -9.0373 H   0  0  0  0  0  0  0  0  0  0  0  0
   -3.1399  -11.5396   -7.2732 H   0  0  0  0  0  0  0  0  0  0  0  0
   -4.2126  -13.4890   -9.3801 H   0  0  0  0  0  0  0  0  0  0  0  0
   -4.3898  -13.6756   -7.6339 H   0  0  0  0  0  0  0  0  0  0  0  0
   -2.7850  -13.7569   -8.3707 H   0  0  0  0  0  0  0  0  0  0  0  0
   -2.6787   -6.7626   -8.4999 H   0  0  0  0  0  0  0  0  0  0  0  0
   -2.4438   -0.9978  -11.9748 H   0  0  0  0  0  0  0  0  0  0  0  0
   -2.5341    1.3935  -12.5364 H   0  0  0  0  0  0  0  0  0  0  0  0
   -5.9871    4.1979  -10.4514 H   0  0  0  0  0  0  0  0  0  0  0  0
   -4.9235    5.5027  -11.0057 H   0  0  0  0  0  0  0  0  0  0  0  0
   -4.6052    5.1209   -8.5611 H   0  0  0  0  0  0  0  0  0  0  0  0
   -4.1894    3.4338   -8.8629 H   0  0  0  0  0  0  0  0  0  0  0  0
   -3.1301    4.7192   -9.4516 H   0  0  0  0  0  0  0  0  0  0  0  0
   -5.8471   -0.4795   -9.4275 H   0  0  0  0  0  0  0  0  0  0  0  0
   -4.2514   -1.9879  -13.2105 H   0  0  0  0  0  0  0  0  0  0  0  0
   -4.5234   -5.0947  -15.4989 H   0  0  0  0  0  0  0  0  0  0  0  0
   -5.2323    1.0784  -16.5308 H   0  0  0  0  0  0  0  0  0  0  0  0
   -4.5360    1.7834  -18.7802 H   0  0  0  0  0  0  0  0  0  0  0  0
  1  2  2  0  0  0  0
  2  3  1  0  0  0  0
  3  4  2  0  0  0  0
  3  5  1  0  0  0  0
  5  6  2  0  0  0  0
  6  7  1  0  0  0  0
  7  8  2  0  0  0  0
  8  9  1  0  0  0  0
  9 10  2  0  0  0  0
 10 11  1  0  0  0  0
 11 12  2  0  0  0  0
 12 13  1  0  0  0  0
 13 14  3  0  0  0  0
 12 15  1  0  0  0  0
 15 16  3  0  0  0  0
  8 17  1  0  0  0  0
 17 18  1  0  0  0  0
 18 19  1  0  0  0  0
 19 20  2  0  0  0  0
 20 21  1  0  0  0  0
 21 22  1  0  0  0  0
 21 23  1  0  0  0  0
  1 24  1  0  0  0  0
 24 25  2  0  0  0  0
 25 26  1  0  0  0  0
 26 27  2  0  0  0  0
 27 28  1  0  0  0  0
 28 29  1  0  0  0  0
 29 30  1  0  0  0  0
 30 31  1  0  0  0  0
 31 32  1  0  0  0  0
 30 33  2  0  0  0  0
 33 34  1  0  0  0  0
 33 35  1  0  0  0  0
 35 36  1  0  0  0  0
 27 37  1  0  0  0  0
 37 38  2  0  0  0  0
 38 39  1  0  0  0  0
 39 40  1  0  0  0  0
 40 41  2  0  0  0  0
 41 42  1  0  0  0  0
 42 43  2  0  0  0  0
 43 44  1  0  0  0  0
 44 45  1  0  0  0  0
 43 46  1  0  0  0  0
 39 47  2  0  0  0  0
 47 48  1  0  0  0  0
 38 49  1  0  0  0  0
 49 50  2  0  0  0  0
 50 51  1  0  0  0  0
 50 52  1  0  0  0  0
 52 53  2  0  0  0  0
 53 54  1  0  0  0  0
 54 55  2  0  0  0  0
 55 56  1  0  0  0  0
 56 57  2  0  0  0  0
 57 58  1  0  0  0  0
 58 59  1  0  0  0  0
 59 60  1  0  0  0  0
 58 61  2  0  0  0  0
 53 62  1  0  0  0  0
 62 63  1  0  0  0  0
 63 64  1  0  0  0  0
 64 65  1  0  0  0  0
 65 66  1  0  0  0  0
 66 67  1  0  0  0  0
 67 68  2  0  0  0  0
 68 69  1  0  0  0  0
 69 70  1  0  0  0  0
 67 71  1  0  0  0  0
 71 72  1  0  0  0  0
 72 73  1  0  0  0  0
 73 74  1  0  0  0  0
 74 75  1  0  0  0  0
 75 76  1  0  0  0  0
 76 77  2  0  0  0  0
 77 78  1  0  0  0  0
 78 79  2  0  0  0  0
 79 80  1  0  0  0  0
 80 81  1  0  0  0  0
 81 82  1  0  0  0  0
 80 83  2  0  0  0  0
 75 84  2  0  0  0  0
 84 85  1  0  0  0  0
 85 86  1  0  0  0  0
 86 87  1  0  0  0  0
 87 88  1  0  0  0  0
 88 89  1  0  0  0  0
 89 90  1  0  0  0  0
 90 91  1  0  0  0  0
 91 92  1  0  0  0  0
 92 93  1  0  0  0  0
 93 94  1  0  0  0  0
 91 95  1  0  0  0  0
 95 96  1  0  0  0  0
 88 97  1  0  0  0  0
 97 98  1  0  0  0  0
 84 99  1  0  0  0  0
 99100  2  0  0  0  0
100101  1  0  0  0  0
101102  2  0  0  0  0
102103  1  0  0  0  0
103104  2  0  0  0  0
104105  1  0  0  0  0
105106  2  0  0  0  0
106107  1  0  0  0  0
107108  1  0  0  0  0
108109  1  0  0  0  0
106110  1  0  0  0  0
110111  1  0  0  0  0
110112  2  0  0  0  0
102113  1  0  0  0  0
113114  2  0  0  0  0
114115  1  0  0  0  0
115116  1  0  0  0  0
116117  2  0  0  0  0
117118  1  0  0  0  0
118119  2  0  0  0  0
119120  1  0  0  0  0
120121  1  0  0  0  0
121122  1  0  0  0  0
119123  1  0  0  0  0
123124  2  0  0  0  0
123125  1  0  0  0  0
115126  2  0  0  0  0
126127  1  0  0  0  0
114128  1  0  0  0  0
128129  2  0  0  0  0
129130  1  0  0  0  0
129131  1  0  0  0  0
131132  2  0  0  0  0
132133  1  0  0  0  0
133134  2  0  0  0  0
133135  1  0  0  0  0
135136  2  0  0  0  0
136137  1  0  0  0  0
137138  2  0  0  0  0
138139  1  0  0  0  0
139140  1  0  0  0  0
139141  2  0  0  0  0
141142  1  0  0  0  0
136143  1  0  0  0  0
143144  2  0  0  0  0
144145  1  0  0  0  0
145146  3  0  0  0  0
144147  1  0  0  0  0
147148  3  0  0  0  0
 11  2  1  0  0  0  0
 23 17  1  0  0  0  0
 48 24  1  0  0  0  0
 94 52  1  0  0  0  0
127 99  1  0  0  0  0
143132  1  0  0  0  0
 10  5  1  0  0  0  0
 22 18  1  0  0  0  0
 47 26  1  0  0  0  0
 61 54  1  0  0  0  0
 93 62  2  0  0  0  0
126101  1  0  0  0  0
141135  1  0  0  0  0
 23  7  1  0  0  0  0
 35 28  2  0  0  0  0
 51 37  1  0  0  0  0
 92 64  2  0  0  0  0
112103  1  0  0  0  0
130113  1  0  0  0  0
 46 40  1  0  0  0  0
 90 65  2  0  0  0  0
124116  1  0  0  0  0
 70 66  2  0  0  0  0
 89 71  2  0  0  0  0
 87 72  2  0  0  0  0
 86 74  2  0  0  0  0
 83 76  1  0  0  0  0
  1149  1  0  0  0  0
  6150  1  0  0  0  0
  9151  1  0  0  0  0
 17152  1  0  0  0  0
 18153  1  0  0  0  0
 19154  1  0  0  0  0
 20155  1  0  0  0  0
 21156  1  0  0  0  0
 22157  1  0  0  0  0
 22158  1  0  0  0  0
 23159  1  0  0  0  0
 25160  1  0  0  0  0
 31161  1  0  0  0  0
 31162  1  0  0  0  0
 32163  1  0  0  0  0
 32164  1  0  0  0  0
 32165  1  0  0  0  0
 41166  1  0  0  0  0
 42167  1  0  0  0  0
 44168  1  0  0  0  0
 44169  1  0  0  0  0
 45170  1  0  0  0  0
 45171  1  0  0  0  0
 45172  1  0  0  0  0
 49173  1  0  0  0  0
 55174  1  0  0  0  0
 56175  1  0  0  0  0
 57176  1  0  0  0  0
 59177  1  0  0  0  0
 59178  1  0  0  0  0
 60179  1  0  0  0  0
 60180  1  0  0  0  0
 60181  1  0  0  0  0
 61182  1  0  0  0  0
 77183  1  0  0  0  0
 78184  1  0  0  0  0
 79185  1  0  0  0  0
 81186  1  0  0  0  0
 81187  1  0  0  0  0
 82188  1  0  0  0  0
 82189  1  0  0  0  0
 82190  1  0  0  0  0
 83191  1  0  0  0  0
 95192  1  0  0  0  0
 95193  1  0  0  0  0
 96194  1  0  0  0  0
 96195  1  0  0  0  0
 96196  1  0  0  0  0
 97197  1  0  0  0  0
 97198  1  0  0  0  0
 98199  1  0  0  0  0
 98200  1  0  0  0  0
 98201  1  0  0  0  0
100202  1  0  0  0  0
104203  1  0  0  0  0
105204  1  0  0  0  0
108205  1  0  0  0  0
108206  1  0  0  0  0
109207  1  0  0  0  0
109208  1  0  0  0  0
109209  1  0  0  0  0
112210  1  0  0  0  0
117211  1  0  0  0  0
118212  1  0  0  0  0
121213  1  0  0  0  0
121214  1  0  0  0  0
122215  1  0  0  0  0
122216  1  0  0  0  0
122217  1  0  0  0  0
124218  1  0  0  0  0
128219  1  0  0  0  0
131220  1  0  0  0  0
137221  1  0  0  0  0
138222  1  0  0  0  0
M  END
