
  xtb     02112214543D
 energy: -281.637197700018 gnorm: 0.000854456557 xtb: 6.4.1 (unknown)
170191  0     0  0            999 V2000
    3.3067  -10.5610    2.3080 C   0  0  0  0  0  0  0  0  0  0  0  0
    3.9161  -10.6821    3.5280 C   0  0  0  0  0  0  0  0  0  0  0  0
    4.6071   -9.6223    4.2981 C   0  0  0  0  0  0  0  0  0  0  0  0
    4.9687   -8.5216    3.9302 O   0  0  0  0  0  0  0  0  0  0  0  0
    4.7371  -10.1452    5.6702 C   0  0  0  0  0  0  0  0  0  0  0  0
    5.2625   -9.4657    6.7674 C   0  0  0  0  0  0  0  0  0  0  0  0
    5.2391  -10.1888    7.9349 C   0  0  0  0  0  0  0  0  0  0  0  0
    4.7266  -11.4912    8.0083 C   0  0  0  0  0  0  0  0  0  0  0  0
    4.2155  -12.1761    6.9313 C   0  0  0  0  0  0  0  0  0  0  0  0
    4.2329  -11.4586    5.7308 C   0  0  0  0  0  0  0  0  0  0  0  0
    3.7822  -11.8392    4.3952 C   0  0  0  0  0  0  0  0  0  0  0  0
    3.3779  -13.0933    4.0165 C   0  0  0  0  0  0  0  0  0  0  0  0
    3.0515  -13.4797    2.6992 C   0  0  0  0  0  0  0  0  0  0  0  0
    2.7949  -13.8875    1.6564 N   0  0  0  0  0  0  0  0  0  0  0  0
    3.2772  -14.1943    4.8918 C   0  0  0  0  0  0  0  0  0  0  0  0
    3.1682  -15.1263    5.5539 N   0  0  0  0  0  0  0  0  0  0  0  0
    4.9936  -11.5973    9.4895 C   0  0  0  0  0  0  0  0  0  0  0  0
    3.7766  -11.4247   10.4235 C   0  0  0  0  0  0  0  0  0  0  0  0
    4.3939  -11.0994   11.7647 C   0  0  0  0  0  0  0  0  0  0  0  0
    4.8863   -9.8693   11.6948 C   0  0  0  0  0  0  0  0  0  0  0  0
    4.6102   -9.3425   10.3052 C   0  0  0  0  0  0  0  0  0  0  0  0
    3.2697  -10.0331   10.0228 C   0  0  0  0  0  0  0  0  0  0  0  0
    5.5714  -10.1481    9.4056 C   0  0  0  0  0  0  0  0  0  0  0  0
    3.3648   -9.4885    1.3974 C   0  0  0  0  0  0  0  0  0  0  0  0
    4.2815   -8.4697    1.2381 C   0  0  0  0  0  0  0  0  0  0  0  0
    3.9208   -7.5444    0.2627 C   0  0  0  0  0  0  0  0  0  0  0  0
    4.9026   -6.1315   -0.1184 S   0  0  0  0  0  0  0  0  0  0  0  0
    5.0935   -5.4209    1.5585 C   0  0  0  0  0  0  0  0  0  0  0  0
    3.7806   -4.8809    2.0867 C   0  0  0  0  0  0  0  0  0  0  0  0
    2.7307   -7.8511   -0.3937 C   0  0  0  0  0  0  0  0  0  0  0  0
    2.0755   -9.3420    0.2113 S   0  0  0  0  0  0  0  0  0  0  0  0
    2.0056   -7.0336   -1.2983 C   0  0  0  0  0  0  0  0  0  0  0  0
    0.9347   -7.3811   -2.1116 C   0  0  0  0  0  0  0  0  0  0  0  0
    0.5471   -8.7546   -2.4300 C   0  0  0  0  0  0  0  0  0  0  0  0
   -0.7932   -9.1279   -2.4222 C   0  0  0  0  0  0  0  0  0  0  0  0
   -1.1458  -10.4276   -2.7338 C   0  0  0  0  0  0  0  0  0  0  0  0
   -0.1739  -11.3578   -3.0551 C   0  0  0  0  0  0  0  0  0  0  0  0
    1.1693  -10.9996   -3.0795 C   0  0  0  0  0  0  0  0  0  0  0  0
    2.2211  -11.9958   -3.4730 C   0  0  0  0  0  0  0  0  0  0  0  0
    2.4143  -12.0005   -4.9906 C   0  0  0  0  0  0  0  0  0  0  0  0
    1.5165   -9.6937   -2.7749 C   0  0  0  0  0  0  0  0  0  0  0  0
    0.2930   -6.2410   -2.6284 C   0  0  0  0  0  0  0  0  0  0  0  0
   -1.1120   -6.0203   -3.6495 S   0  0  0  0  0  0  0  0  0  0  0  0
   -0.9305   -4.3044   -3.4899 C   0  0  0  0  0  0  0  0  0  0  0  0
   -1.6070   -3.1215   -3.8263 C   0  0  0  0  0  0  0  0  0  0  0  0
   -2.8385   -2.9201   -4.4865 C   0  0  0  0  0  0  0  0  0  0  0  0
   -3.3923   -1.5982   -4.5316 C   0  0  0  0  0  0  0  0  0  0  0  0
   -4.5754   -1.5647   -5.1249 N   0  0  0  0  0  0  0  0  0  0  0  0
   -4.9560   -3.0673   -5.5934 S   0  0  0  0  0  0  0  0  0  0  0  0
   -3.6287   -3.8194   -5.0518 N   0  0  0  0  0  0  0  0  0  0  0  0
   -2.6500   -0.5274   -3.9884 C   0  0  0  0  0  0  0  0  0  0  0  0
   -2.9405    0.8436   -3.9028 C   0  0  0  0  0  0  0  0  0  0  0  0
   -4.2305    1.9441   -4.2551 S   0  0  0  0  0  0  0  0  0  0  0  0
   -3.2758    3.2461   -3.5808 C   0  0  0  0  0  0  0  0  0  0  0  0
   -3.5316    4.6174   -3.3828 C   0  0  0  0  0  0  0  0  0  0  0  0
   -4.7507    5.2874   -3.8384 C   0  0  0  0  0  0  0  0  0  0  0  0
   -5.9979    4.7173   -3.5996 C   0  0  0  0  0  0  0  0  0  0  0  0
   -7.1417    5.3635   -4.0301 C   0  0  0  0  0  0  0  0  0  0  0  0
   -7.0534    6.5724   -4.6982 C   0  0  0  0  0  0  0  0  0  0  0  0
   -5.8151    7.1455   -4.9633 C   0  0  0  0  0  0  0  0  0  0  0  0
   -5.7041    8.4772   -5.6474 C   0  0  0  0  0  0  0  0  0  0  0  0
   -5.4763    9.5879   -4.6195 C   0  0  0  0  0  0  0  0  0  0  0  0
   -4.6714    6.4899   -4.5349 C   0  0  0  0  0  0  0  0  0  0  0  0
   -2.4665    5.2392   -2.7479 C   0  0  0  0  0  0  0  0  0  0  0  0
   -1.1259    4.1401   -2.4565 S   0  0  0  0  0  0  0  0  0  0  0  0
   -2.0175    2.8292   -3.1388 C   0  0  0  0  0  0  0  0  0  0  0  0
   -1.8281    1.4556   -3.3221 C   0  0  0  0  0  0  0  0  0  0  0  0
   -0.8668    0.5237   -3.0378 N   0  0  0  0  0  0  0  0  0  0  0  0
   -1.3581   -0.7168   -3.4180 C   0  0  0  0  0  0  0  0  0  0  0  0
   -0.8693   -2.0411   -3.2588 C   0  0  0  0  0  0  0  0  0  0  0  0
    0.2263   -2.5698   -2.5970 N   0  0  0  0  0  0  0  0  0  0  0  0
    0.1734   -3.9307   -2.7202 C   0  0  0  0  0  0  0  0  0  0  0  0
    0.8750   -5.0360   -2.2285 C   0  0  0  0  0  0  0  0  0  0  0  0
    2.2661   -5.2931   -1.2407 S   0  0  0  0  0  0  0  0  0  0  0  0
    1.1095   -1.9893   -1.6123 C   0  0  0  0  0  0  0  0  0  0  0  0
    0.3467   -1.5576   -0.3618 C   0  0  0  0  0  0  0  0  0  0  0  0
    0.4919    0.9682   -2.8155 C   0  0  0  0  0  0  0  0  0  0  0  0
    1.3924    0.6279   -4.0003 C   0  0  0  0  0  0  0  0  0  0  0  0
   -2.3586    6.5530   -2.2121 C   0  0  0  0  0  0  0  0  0  0  0  0
   -3.3832    7.4250   -1.9001 C   0  0  0  0  0  0  0  0  0  0  0  0
   -3.0179    8.6532   -1.3368 C   0  0  0  0  0  0  0  0  0  0  0  0
   -4.0286    9.6334   -0.8421 C   0  0  0  0  0  0  0  0  0  0  0  0
   -5.3259    8.9939   -0.3575 C   0  0  0  0  0  0  0  0  0  0  0  0
   -1.6408    8.8219   -1.1790 C   0  0  0  0  0  0  0  0  0  0  0  0
   -0.6965    7.2735   -1.7286 Se  0  0  0  0  0  2  0  0  0  0  0  0
   -0.8933    9.8519   -0.5796 C   0  0  0  0  0  0  0  0  0  0  0  0
   -1.1662   11.1955   -0.5395 C   0  0  0  0  0  0  0  0  0  0  0  0
   -2.0011   11.9297   -1.5088 C   0  0  0  0  0  0  0  0  0  0  0  0
   -2.6370   11.4722   -2.4396 O   0  0  0  0  0  0  0  0  0  0  0  0
   -1.8115   13.3612   -1.1993 C   0  0  0  0  0  0  0  0  0  0  0  0
   -2.4018   14.4425   -1.8482 C   0  0  0  0  0  0  0  0  0  0  0  0
   -2.0395   15.6672   -1.3399 C   0  0  0  0  0  0  0  0  0  0  0  0
   -1.1526   15.8079   -0.2647 C   0  0  0  0  0  0  0  0  0  0  0  0
   -0.5563   14.7503    0.3793 C   0  0  0  0  0  0  0  0  0  0  0  0
   -0.9105   13.4959   -0.1244 C   0  0  0  0  0  0  0  0  0  0  0  0
   -0.4965   12.1627    0.3035 C   0  0  0  0  0  0  0  0  0  0  0  0
    0.3131   11.8794    1.3748 C   0  0  0  0  0  0  0  0  0  0  0  0
    0.6044   10.5827    1.8470 C   0  0  0  0  0  0  0  0  0  0  0  0
    0.8648    9.5634    2.3090 N   0  0  0  0  0  0  0  0  0  0  0  0
    0.9489   12.8489    2.1764 C   0  0  0  0  0  0  0  0  0  0  0  0
    1.5087   13.5772    2.8658 N   0  0  0  0  0  0  0  0  0  0  0  0
   -1.2419   17.3133   -0.2831 C   0  0  0  0  0  0  0  0  0  0  0  0
   -0.0613   18.0996   -0.9037 C   0  0  0  0  0  0  0  0  0  0  0  0
    0.5863   17.1775   -1.9066 C   0  0  0  0  0  0  0  0  0  0  0  0
   -0.2479   17.0413   -2.9286 C   0  0  0  0  0  0  0  0  0  0  0  0
   -1.4741   17.8704   -2.6361 C   0  0  0  0  0  0  0  0  0  0  0  0
   -0.8370   19.0284   -1.8513 C   0  0  0  0  0  0  0  0  0  0  0  0
   -2.2260   17.1570   -1.4850 C   0  0  0  0  0  0  0  0  0  0  0  0
    2.6241  -11.3505    2.0155 H   0  0  0  0  0  0  0  0  0  0  0  0
    5.6442   -8.4617    6.6662 H   0  0  0  0  0  0  0  0  0  0  0  0
    3.8267  -13.1780    7.0035 H   0  0  0  0  0  0  0  0  0  0  0  0
    5.6539  -12.4058    9.7969 H   0  0  0  0  0  0  0  0  0  0  0  0
    3.0639  -12.2443   10.3985 H   0  0  0  0  0  0  0  0  0  0  0  0
    4.4561  -11.7949   12.5809 H   0  0  0  0  0  0  0  0  0  0  0  0
    5.4421   -9.3319   12.4406 H   0  0  0  0  0  0  0  0  0  0  0  0
    4.6570   -8.2649   10.1720 H   0  0  0  0  0  0  0  0  0  0  0  0
    2.9425   -9.9606    8.9872 H   0  0  0  0  0  0  0  0  0  0  0  0
    2.4776   -9.6787   10.6804 H   0  0  0  0  0  0  0  0  0  0  0  0
    6.6197   -9.9907    9.6525 H   0  0  0  0  0  0  0  0  0  0  0  0
    5.1874   -8.4055    1.8084 H   0  0  0  0  0  0  0  0  0  0  0  0
    5.4974   -6.1912    2.2122 H   0  0  0  0  0  0  0  0  0  0  0  0
    5.8289   -4.6277    1.4308 H   0  0  0  0  0  0  0  0  0  0  0  0
    3.3780   -4.1266    1.4145 H   0  0  0  0  0  0  0  0  0  0  0  0
    3.9348   -4.4350    3.0668 H   0  0  0  0  0  0  0  0  0  0  0  0
    3.0525   -5.6835    2.1856 H   0  0  0  0  0  0  0  0  0  0  0  0
   -1.5504   -8.4064   -2.1553 H   0  0  0  0  0  0  0  0  0  0  0  0
   -2.1862  -10.7165   -2.7218 H   0  0  0  0  0  0  0  0  0  0  0  0
   -0.4569  -12.3737   -3.2892 H   0  0  0  0  0  0  0  0  0  0  0  0
    1.9243  -12.9930   -3.1433 H   0  0  0  0  0  0  0  0  0  0  0  0
    3.1670  -11.7448   -2.9892 H   0  0  0  0  0  0  0  0  0  0  0  0
    2.7224  -11.0161   -5.3365 H   0  0  0  0  0  0  0  0  0  0  0  0
    1.4844  -12.2623   -5.4906 H   0  0  0  0  0  0  0  0  0  0  0  0
    3.1764  -12.7226   -5.2739 H   0  0  0  0  0  0  0  0  0  0  0  0
    2.5550   -9.3942   -2.8112 H   0  0  0  0  0  0  0  0  0  0  0  0
   -6.0681    3.7828   -3.0643 H   0  0  0  0  0  0  0  0  0  0  0  0
   -8.1088    4.9227   -3.8387 H   0  0  0  0  0  0  0  0  0  0  0  0
   -7.9535    7.0740   -5.0232 H   0  0  0  0  0  0  0  0  0  0  0  0
   -4.8677    8.4629   -6.3492 H   0  0  0  0  0  0  0  0  0  0  0  0
   -6.6179    8.6830   -6.2080 H   0  0  0  0  0  0  0  0  0  0  0  0
   -5.4168   10.5547   -5.1129 H   0  0  0  0  0  0  0  0  0  0  0  0
   -4.5484    9.4241   -4.0768 H   0  0  0  0  0  0  0  0  0  0  0  0
   -6.2960    9.6151   -3.9042 H   0  0  0  0  0  0  0  0  0  0  0  0
   -3.7014    6.9176   -4.7444 H   0  0  0  0  0  0  0  0  0  0  0  0
    1.6782   -1.1674   -2.0448 H   0  0  0  0  0  0  0  0  0  0  0  0
    1.8281   -2.7678   -1.3445 H   0  0  0  0  0  0  0  0  0  0  0  0
    1.0240   -1.0843    0.3440 H   0  0  0  0  0  0  0  0  0  0  0  0
   -0.0999   -2.4261    0.1169 H   0  0  0  0  0  0  0  0  0  0  0  0
   -0.4504   -0.8604   -0.6092 H   0  0  0  0  0  0  0  0  0  0  0  0
    0.8842    0.5684   -1.8805 H   0  0  0  0  0  0  0  0  0  0  0  0
    0.4462    2.0540   -2.7010 H   0  0  0  0  0  0  0  0  0  0  0  0
    1.0273    1.1232   -4.8973 H   0  0  0  0  0  0  0  0  0  0  0  0
    1.4095   -0.4430   -4.1897 H   0  0  0  0  0  0  0  0  0  0  0  0
    2.4058    0.9683   -3.8053 H   0  0  0  0  0  0  0  0  0  0  0  0
   -4.4100    7.1504   -2.0607 H   0  0  0  0  0  0  0  0  0  0  0  0
   -4.2505   10.3342   -1.6546 H   0  0  0  0  0  0  0  0  0  0  0  0
   -3.5837   10.2218   -0.0343 H   0  0  0  0  0  0  0  0  0  0  0  0
   -5.9519    9.7514    0.1080 H   0  0  0  0  0  0  0  0  0  0  0  0
   -5.1221    8.2175    0.3766 H   0  0  0  0  0  0  0  0  0  0  0  0
   -5.8842    8.5568   -1.1814 H   0  0  0  0  0  0  0  0  0  0  0  0
    0.0324    9.5240   -0.1157 H   0  0  0  0  0  0  0  0  0  0  0  0
   -3.0838   14.2902   -2.6702 H   0  0  0  0  0  0  0  0  0  0  0  0
    0.1295   14.8740    1.2007 H   0  0  0  0  0  0  0  0  0  0  0  0
   -1.6185   17.7782    0.6260 H   0  0  0  0  0  0  0  0  0  0  0  0
    0.6026   18.5635   -0.1792 H   0  0  0  0  0  0  0  0  0  0  0  0
    1.5293   16.6879   -1.7480 H   0  0  0  0  0  0  0  0  0  0  0  0
   -0.1412   16.4147   -3.7947 H   0  0  0  0  0  0  0  0  0  0  0  0
   -2.0952   18.1267   -3.4906 H   0  0  0  0  0  0  0  0  0  0  0  0
   -1.5643   19.6589   -1.3413 H   0  0  0  0  0  0  0  0  0  0  0  0
   -0.1829   19.6448   -2.4663 H   0  0  0  0  0  0  0  0  0  0  0  0
   -3.2427   17.5263   -1.3630 H   0  0  0  0  0  0  0  0  0  0  0  0
  1  2  2  0  0  0  0
  2  3  1  0  0  0  0
  3  4  2  0  0  0  0
  3  5  1  0  0  0  0
  5  6  2  0  0  0  0
  6  7  1  0  0  0  0
  7  8  2  0  0  0  0
  8  9  1  0  0  0  0
  9 10  2  0  0  0  0
 10 11  1  0  0  0  0
 11 12  2  0  0  0  0
 12 13  1  0  0  0  0
 13 14  3  0  0  0  0
 12 15  1  0  0  0  0
 15 16  3  0  0  0  0
  8 17  1  0  0  0  0
 17 18  1  0  0  0  0
 18 19  1  0  0  0  0
 19 20  2  0  0  0  0
 20 21  1  0  0  0  0
 21 22  1  0  0  0  0
 21 23  1  0  0  0  0
  1 24  1  0  0  0  0
 24 25  2  0  0  0  0
 25 26  1  0  0  0  0
 26 27  1  0  0  0  0
 27 28  1  0  0  0  0
 28 29  1  0  0  0  0
 26 30  2  0  0  0  0
 30 31  1  0  0  0  0
 30 32  1  0  0  0  0
 32 33  2  0  0  0  0
 33 34  1  0  0  0  0
 34 35  2  0  0  0  0
 35 36  1  0  0  0  0
 36 37  2  0  0  0  0
 37 38  1  0  0  0  0
 38 39  1  0  0  0  0
 39 40  1  0  0  0  0
 38 41  2  0  0  0  0
 33 42  1  0  0  0  0
 42 43  1  0  0  0  0
 43 44  1  0  0  0  0
 44 45  1  0  0  0  0
 45 46  1  0  0  0  0
 46 47  1  0  0  0  0
 47 48  2  0  0  0  0
 48 49  1  0  0  0  0
 49 50  1  0  0  0  0
 47 51  1  0  0  0  0
 51 52  1  0  0  0  0
 52 53  1  0  0  0  0
 53 54  1  0  0  0  0
 54 55  1  0  0  0  0
 55 56  1  0  0  0  0
 56 57  2  0  0  0  0
 57 58  1  0  0  0  0
 58 59  2  0  0  0  0
 59 60  1  0  0  0  0
 60 61  1  0  0  0  0
 61 62  1  0  0  0  0
 60 63  2  0  0  0  0
 55 64  2  0  0  0  0
 64 65  1  0  0  0  0
 65 66  1  0  0  0  0
 66 67  1  0  0  0  0
 67 68  1  0  0  0  0
 68 69  1  0  0  0  0
 69 70  1  0  0  0  0
 70 71  1  0  0  0  0
 71 72  1  0  0  0  0
 72 73  1  0  0  0  0
 73 74  1  0  0  0  0
 71 75  1  0  0  0  0
 75 76  1  0  0  0  0
 68 77  1  0  0  0  0
 77 78  1  0  0  0  0
 64 79  1  0  0  0  0
 79 80  2  0  0  0  0
 80 81  1  0  0  0  0
 81 82  1  0  0  0  0
 82 83  1  0  0  0  0
 81 84  2  0  0  0  0
 84 85  1  0  0  0  0
 84 86  1  0  0  0  0
 86 87  2  0  0  0  0
 87 88  1  0  0  0  0
 88 89  2  0  0  0  0
 88 90  1  0  0  0  0
 90 91  2  0  0  0  0
 91 92  1  0  0  0  0
 92 93  2  0  0  0  0
 93 94  1  0  0  0  0
 94 95  2  0  0  0  0
 95 96  1  0  0  0  0
 96 97  2  0  0  0  0
 97 98  1  0  0  0  0
 98 99  3  0  0  0  0
 97100  1  0  0  0  0
100101  3  0  0  0  0
 93102  1  0  0  0  0
102103  1  0  0  0  0
103104  1  0  0  0  0
104105  2  0  0  0  0
105106  1  0  0  0  0
106107  1  0  0  0  0
106108  1  0  0  0  0
 11  2  1  0  0  0  0
 23 17  1  0  0  0  0
 31 24  1  0  0  0  0
 74 32  1  0  0  0  0
 85 79  1  0  0  0  0
 96 87  1  0  0  0  0
108102  1  0  0  0  0
 10  5  1  0  0  0  0
 22 18  1  0  0  0  0
 41 34  1  0  0  0  0
 73 42  2  0  0  0  0
 95 90  1  0  0  0  0
107103  1  0  0  0  0
 23  7  1  0  0  0  0
 72 44  2  0  0  0  0
108 92  1  0  0  0  0
 70 45  2  0  0  0  0
 50 46  2  0  0  0  0
 69 51  2  0  0  0  0
 67 52  2  0  0  0  0
 66 54  2  0  0  0  0
 63 56  1  0  0  0  0
  1109  1  0  0  0  0
  6110  1  0  0  0  0
  9111  1  0  0  0  0
 17112  1  0  0  0  0
 18113  1  0  0  0  0
 19114  1  0  0  0  0
 20115  1  0  0  0  0
 21116  1  0  0  0  0
 22117  1  0  0  0  0
 22118  1  0  0  0  0
 23119  1  0  0  0  0
 25120  1  0  0  0  0
 28121  1  0  0  0  0
 28122  1  0  0  0  0
 29123  1  0  0  0  0
 29124  1  0  0  0  0
 29125  1  0  0  0  0
 35126  1  0  0  0  0
 36127  1  0  0  0  0
 37128  1  0  0  0  0
 39129  1  0  0  0  0
 39130  1  0  0  0  0
 40131  1  0  0  0  0
 40132  1  0  0  0  0
 40133  1  0  0  0  0
 41134  1  0  0  0  0
 57135  1  0  0  0  0
 58136  1  0  0  0  0
 59137  1  0  0  0  0
 61138  1  0  0  0  0
 61139  1  0  0  0  0
 62140  1  0  0  0  0
 62141  1  0  0  0  0
 62142  1  0  0  0  0
 63143  1  0  0  0  0
 75144  1  0  0  0  0
 75145  1  0  0  0  0
 76146  1  0  0  0  0
 76147  1  0  0  0  0
 76148  1  0  0  0  0
 77149  1  0  0  0  0
 77150  1  0  0  0  0
 78151  1  0  0  0  0
 78152  1  0  0  0  0
 78153  1  0  0  0  0
 80154  1  0  0  0  0
 82155  1  0  0  0  0
 82156  1  0  0  0  0
 83157  1  0  0  0  0
 83158  1  0  0  0  0
 83159  1  0  0  0  0
 86160  1  0  0  0  0
 91161  1  0  0  0  0
 94162  1  0  0  0  0
102163  1  0  0  0  0
103164  1  0  0  0  0
104165  1  0  0  0  0
105166  1  0  0  0  0
106167  1  0  0  0  0
107168  1  0  0  0  0
107169  1  0  0  0  0
108170  1  0  0  0  0
M  END
