184

C         -4.35140        9.44200        3.93990
C         -4.45220       10.77270        3.63620
C         -5.44210       11.44780        2.76750
O         -6.50200       11.02560        2.34730
C         -4.87180       12.77450        2.46700
C         -5.39860       13.72970        1.59940
C         -4.63610       14.86740        1.49060
C         -3.43390       15.04230        2.18940
C         -2.90470       14.11060        3.05010
C         -3.66920       12.94710        3.17920
C         -3.43380       11.75040        3.98050
C         -2.47060       11.61880        4.94690
C         -2.31810       10.50750        5.80340
N         -2.13500        9.65610        6.55250
C         -1.52230       12.61320        5.26490
N         -0.72340       13.37650        5.57750
C         -3.19440       16.40830        1.59660
C         -3.49680       17.61780        2.50620
C         -3.63640       18.77080        1.53880
C         -4.77540       18.60720        0.87790
C         -5.42500       17.34100        1.38790
C         -4.97290       17.38410        2.85320
C         -4.53590       16.21480        0.81910
C         -5.23230        8.37200        3.69060
C         -6.55480        8.32300        3.29220
C         -7.05710        7.02850        3.14730
S         -8.65870        6.63030        2.55270
C         -9.15780        8.15870        1.67700
C         -8.31080        8.44640        0.45400
C         -6.12240        6.04280        3.46940
S         -4.61260        6.75300        3.94060
C         -6.23040        4.62450        3.40070
C         -7.29690        3.78840        3.68760
C         -8.53560        4.21340        4.33240
C         -9.75570        3.64810        3.97020
C        -10.91790        4.06890        4.58590
C        -10.87970        5.05300        5.55880
C         -9.67020        5.61490        5.94590
C         -9.61290        6.72610        6.95420
C         -9.48890        8.07360        6.23990
C         -8.50560        5.17820        5.33550
C         -6.98290        2.44680        3.38370
S         -7.89250        0.95980        3.51070
C         -6.51950        0.09050        2.91500
C         -6.17320       -1.21290        2.52200
C         -6.94250       -2.39040        2.38920
C         -6.36730       -3.52870        1.72530
N         -7.22750       -4.52660        1.59840
S         -8.63490       -4.08000        2.26300
N         -8.20420       -2.59220        2.73400
C         -5.00920       -3.48450        1.34050
C         -4.16740       -4.43460        0.73390
S         -4.24660       -6.02550        0.05240
C         -2.53320       -5.94270       -0.29160
C         -1.64490       -6.82450       -0.94140
C         -2.09250       -8.09370       -1.51850
C         -2.89270       -8.95150       -0.76950
C         -3.35710      -10.12640       -1.33030
C         -3.03770      -10.45000       -2.63700
C         -2.25200       -9.59770       -3.40350
C         -1.86240       -9.96400       -4.80650
C         -0.53100      -10.71680       -4.79520
C         -1.78370       -8.42390       -2.83410
C         -0.36860       -6.28960       -1.00790
S         -0.27540       -4.68780       -0.28290
C         -1.95260       -4.74040        0.11420
C         -2.88710       -3.87860        0.69700
N         -2.89700       -2.61950        1.24180
C         -4.20380       -2.34520        1.61340
C         -4.82340       -1.15850        2.07680
N         -4.38430        0.14920        2.15630
C         -5.41150        0.90340        2.65810
C         -5.68100        2.25280        2.91690
S         -4.82090        3.74630        2.82150
C         -3.25290        0.78820        1.52220
C         -2.26340        1.35360        2.54170
C         -1.67630       -2.10960        1.82950
C         -1.18940       -3.01150        2.96400
C          0.84650       -6.84530       -1.50070
S          2.19760       -5.77240       -1.77950
C          3.18630       -7.10750       -2.22940
C          4.54550       -7.14660       -2.59950
C          5.07930       -8.41540       -2.85920
Si         3.70880       -9.70650       -2.66530
C          3.30340      -10.50210       -4.35150
C          3.05810       -9.47250       -5.45140
C          4.02070      -10.95490       -1.26300
C          5.17770      -11.89710       -1.57760
C          2.50660       -8.32190       -2.17550
C          1.18550       -8.16160       -1.76340
C          6.41910       -8.35940       -3.19540
C          6.94210       -7.06850       -3.19820
S          5.69490       -5.89240       -2.77780
C          8.21280       -6.54610       -3.48220
C          9.41540       -7.15550       -3.73910
C          9.76450       -8.58810       -3.65330
O          9.03340       -9.54670       -3.48960
C         11.23260       -8.65550       -3.78980
C         12.02210       -9.80120       -3.71490
C         13.36740       -9.56340       -3.86050
C         13.88960       -8.28000       -4.06820
C         13.12150       -7.14330       -4.15100
C         11.74830       -7.36360       -4.00370
C         10.63220       -6.42130       -4.03530
C         10.73820       -5.09120       -4.35710
C          9.67160       -4.17840       -4.49800
N          8.87610       -3.36520       -4.66120
C         11.95250       -4.43290       -4.64160
N         12.89760       -3.82400       -4.87710
C         15.31280       -8.77820       -4.11190
C         16.16350       -8.54530       -2.84560
C         17.30020       -9.53170       -2.98680
C         16.80630      -10.74740       -2.78990
C         15.32740      -10.60300       -2.51210
C         15.32770       -9.25780       -1.77440
C         14.73080      -10.20960       -3.88030
H         -3.42700        9.12870        4.41170
H         -6.32320       13.55010        1.07320
H         -1.97320       14.25460        3.57140
H         -2.27400       16.52320        1.02730
H         -2.80260       17.75110        3.33130
H         -2.89020       19.53080        1.39960
H         -5.17050       19.20330        0.07620
H         -6.48800       17.22440        1.19410
H         -5.15900       16.46310        3.40260
H         -5.40650       18.22420        3.39310
H         -4.51000       16.20160       -0.26910
H         -7.11770        9.21740        3.10740
H        -10.19070        7.94970        1.39720
H         -9.14700        8.98490        2.38570
H         -8.71930        9.30410       -0.07590
H         -7.28660        8.67850        0.73570
H         -8.30600        7.58920       -0.21570
H         -9.79230        2.90160        3.19210
H        -11.86320        3.63300        4.29830
H        -11.79610        5.38600        6.02450
H        -10.51590        6.72210        7.56710
H         -8.75170        6.58790        7.61150
H        -10.33560        8.22530        5.57380
H         -8.57750        8.10480        5.64660
H         -9.46120        8.88750        6.96070
H         -7.55660        5.59010        5.64880
H         -3.13960       -8.70030        0.25080
H         -3.97480      -10.79140       -0.74530
H         -3.40710      -11.36790       -3.07090
H         -2.63310      -10.59210       -5.25680
H         -1.75960       -9.06070       -5.41080
H          0.23920      -10.10160       -4.33590
H         -0.62250      -11.63760       -4.22270
H         -0.22280      -10.96560       -5.80780
H         -1.18280       -7.74520       -3.42280
H         -3.63610        1.61730        0.91600
H         -2.77840        0.07750        0.84490
H         -1.97500        0.60900        3.28040
H         -2.70870        2.19080        3.07170
H         -1.37180        1.70670        2.03130
H         -1.85240       -1.11880        2.23040
H         -0.91480       -2.05630        1.04500
H         -1.95720       -3.09900        3.73020
H         -0.29570       -2.58410        3.41030
H         -0.94940       -4.00560        2.59730
H          4.13450      -11.14270       -4.64680
H          2.43140      -11.14970       -4.25810
H          3.94320       -8.86010       -5.60430
H          2.81590       -9.96420       -6.39130
H          2.23440       -8.81310       -5.18800
H          4.23400      -10.42230       -0.33560
H          3.11800      -11.54020       -1.08650
H          4.96520      -12.48090       -2.46940
H          5.34560      -12.58680       -0.75270
H          6.09410      -11.33790       -1.74620
H          0.49200       -8.97230       -1.63240
H          7.02480       -9.21420       -3.43210
H          8.23260       -5.46240       -3.46940
H         11.57640      -10.77070       -3.55600
H         13.54050       -6.16440       -4.31110
H         15.85720       -8.57960       -5.03310
H         16.43420       -7.50890       -2.66340
H         18.30180       -9.25750       -3.26200
H         17.31280      -11.69160       -2.86780
H         14.83680      -11.44150       -2.02500
H         14.33690       -8.83150       -1.62860
H         15.84490       -9.31300       -0.81790
H         14.88860      -10.96600       -4.64700
