167

C         -3.50280       -1.55400       -9.27100
C         -4.58250       -0.98270       -8.65030
C         -4.55590       -0.30270       -7.35070
O         -3.58250       -0.07650       -6.65110
C         -5.94800        0.06080       -7.04240
C         -6.41390        0.69010       -5.88990
C         -7.77340        0.88810       -5.87250
C         -8.60810        0.49100       -6.92550
C         -8.16100       -0.13160       -8.06690
C         -6.77940       -0.34500       -8.10570
C         -5.95140       -0.98120       -9.13040
C         -6.41140       -1.47550      -10.32390
C         -7.76040       -1.44520      -10.73530
N         -8.83560       -1.45430      -11.13840
C         -5.62360       -2.08120      -11.32520
N         -5.06020       -2.58160      -12.19260
C         -9.85140        0.99760       -6.23720
C        -10.42470        2.33880       -6.74150
C        -11.30790        2.80340       -5.60590
C        -10.51820        3.17820       -4.60770
C         -9.08770        2.97340       -5.05180
C         -9.22930        3.28070       -6.54810
C         -8.92060        1.43920       -5.06250
C         -2.16410       -1.63640       -8.85480
C         -1.20420       -2.35150       -9.56220
C          0.05890       -2.36430       -8.98060
S          1.34420       -3.32530       -9.71640
C          1.93020       -4.31780       -8.28740
C          3.05080       -5.22460       -8.75430
C          0.11050       -1.60100       -7.81390
S         -1.45490       -0.94640       -7.41820
C          1.16830       -1.32510       -6.90370
C          2.54010       -1.21370       -7.08520
C          3.24180       -1.20160       -8.36740
C          2.72320       -0.50360       -9.45520
C          3.42360       -0.46640      -10.64450
C          4.63820       -1.11970      -10.76150
C          5.17210       -1.81730       -9.68570
C          6.51380       -2.48420       -9.78260
C          7.60580       -1.55020       -9.25700
C          4.46830       -1.84600       -8.49200
C          3.19740       -0.98210       -5.85880
S          4.88100       -0.76770       -5.43300
C          4.41570       -0.51020       -3.78500
C          5.00110       -0.21490       -2.53870
C          6.31670        0.10630       -2.13280
C          6.55510        0.51950       -0.77190
N          7.81770        0.85790       -0.56460
S          8.63870        0.66710       -1.94590
N          7.41530        0.14770       -2.86970
C          5.49780        0.46240        0.16460
C          5.41920        0.67370        1.55550
S          6.41690        1.20600        2.86760
C          5.08110        0.95400        3.96660
C          4.91490        1.17610        5.35260
C          5.94600        1.75170        6.21470
C          7.27210        1.35130        6.08240
C          8.24150        1.89920        6.90040
C          7.90170        2.84680        7.84910
C          6.58390        3.26550        7.98870
C          6.22000        4.32960        8.98440
C          6.38440        5.71920        8.36590
C          5.61710        2.71790        7.16140
C          3.63180        0.86240        5.75180
S          2.61560        0.31790        4.42820
C          3.93290        0.48460        3.32820
C          4.12700        0.31680        1.95260
N          3.39130       -0.09580        0.86940
C          4.21110        0.02290       -0.23760
C          3.93280       -0.16020       -1.60750
N          2.73130       -0.35630       -2.26340
C          3.03370       -0.58300       -3.58350
C          2.33880       -0.85860       -4.76520
S          0.69020       -1.07300       -5.22510
C          1.45180        0.22320       -1.90300
C          1.21290        1.54120       -2.63930
C          2.31160       -1.04950        1.03500
C          2.78540       -2.30490        1.76690
C          3.02650        0.88610        7.06410
C          3.67680        0.44220        8.22350
F          4.93570       -0.02120        8.14470
C          3.05810        0.42180        9.45180
C          1.71970        0.80290        9.58910
C          1.08220        1.27030        8.43410
F         -0.18210        1.73800        8.51190
C          1.70500        1.31410        7.21000
C          1.07450        0.73120       10.87910
C         -0.21510        0.46320       11.17090
C         -0.74330        0.78010       12.53530
O         -0.08440        1.01020       13.52180
C         -2.20810        0.80420       12.38730
C         -3.14730        1.20060       13.33940
C         -4.44730        1.15370       12.89760
C         -4.79470        0.75790       11.59740
C         -3.88330        0.36050       10.64950
C         -2.55510        0.38280       11.08520
C         -1.34050        0.00180       10.37460
C         -1.28320       -0.82490        9.28760
C         -2.41820       -1.32650        8.61520
N         -3.30080       -1.76260        8.02560
C         -0.08820       -1.34400        8.74820
N          0.84670       -1.82380        8.28680
C         -6.26790        0.96510       11.84160
C         -7.10990       -0.30720       12.07520
C         -8.36170        0.20680       12.74880
C         -8.03460        0.57460       13.98110
C         -6.55610        0.31540       14.16140
C         -6.39850       -0.93210       13.28230
C         -5.88240        1.39900       13.29240
H         -3.67870       -2.04430      -10.22070
H         -5.73460        0.97440       -5.10150
H         -8.81980       -0.43700       -8.86210
H        -10.62070        0.25310       -6.04120
H        -10.87690        2.29810       -7.72850
H        -12.38110        2.76040       -5.62430
H        -10.79980        3.51040       -3.62560
H         -8.32210        3.51160       -4.49940
H         -8.35520        3.01570       -7.14020
H         -9.49150        4.32140       -6.73140
H         -9.06920        0.98790       -4.08310
H         -1.42620       -2.87920      -10.47300
H          2.27660       -3.63490       -7.51420
H          1.07730       -4.88890       -7.92050
H          3.41610       -5.82170       -7.92150
H          2.69950       -5.89190       -9.53770
H          3.87110       -4.62970       -9.15020
H          1.78020        0.01390       -9.35950
H          3.01880        0.07430      -11.48680
H          5.17730       -1.08900      -11.69730
H          6.72630       -2.74340      -10.82150
H          6.51610       -3.40370       -9.19290
H          7.62930       -0.63190       -9.83940
H          8.58000       -2.02880       -9.32300
H          7.41390       -1.29140       -8.21810
H          4.86980       -2.39460       -7.65180
H          7.53580        0.59710        5.35730
H          9.26840        1.58040        6.80060
H          8.66380        3.26600        8.49020
H          6.86380        4.24840        9.86250
H          5.18470        4.19770        9.30630
H          6.11900        6.49040        9.08530
H          7.41450        5.87450        8.05350
H          5.74390        5.82250        7.49280
H          4.59170        3.05150        7.24800
H          1.43780        0.42200       -0.83330
H          0.66170       -0.49120       -2.15540
H          0.27380        1.97560       -2.30860
H          1.15950        1.38670       -3.71310
H          2.01810        2.24130       -2.42600
H          1.94670       -1.34480        0.05300
H          1.50420       -0.57320        1.60060
H          1.96980       -3.02030        1.82270
H          3.61540       -2.76050        1.23100
H          3.10770       -2.07290        2.77770
H          3.60210        0.04880       10.30520
H          1.15830        1.68190        6.35540
H          1.70360        0.96490       11.73250
H         -2.83950        1.51290       14.32500
H         -4.15730        0.07330        9.64770
H         -6.75930        1.68850       11.19400
H         -7.24610       -0.93000       11.19550
H         -9.31270        0.29810       12.25800
H         -8.65800        1.03450       14.72520
H         -6.19050        0.25870       15.18300
H         -5.36470       -1.21420       13.09140
H         -6.94090       -1.78740       13.68140
H         -6.11950        2.41110       13.61500
