289

C        -12.31140        6.87030       -7.01150
C        -12.06630        7.38120       -8.25180
C        -10.84260        8.04620       -8.76970
O         -9.97260        8.62670       -8.15530
C        -10.90840        7.90850      -10.23560
C         -9.90470        8.23110      -11.14580
C        -10.22970        7.95960      -12.45260
C        -11.46540        7.41410      -12.82870
C        -12.47080        7.10910      -11.94240
C        -12.15790        7.37340      -10.60560
C        -12.94430        7.16340       -9.39490
C        -14.28160        6.87520       -9.35260
C        -15.05650        6.77710       -8.17640
N        -15.76090        6.70170       -7.27280
C        -15.08960        6.69660      -10.49550
N        -15.80140        6.53490      -11.38150
C        -11.09100        7.37110      -14.28890
C        -10.68610        6.00040      -14.88670
C        -10.13980        5.17720      -13.74650
C         -8.97270        5.69860      -13.39290
C         -8.70880        6.88440      -14.28770
C         -9.37550        6.39850      -15.58440
C         -9.71730        7.98360      -13.87060
C        -11.47560        6.81440       -5.87060
C        -10.26270        7.39200       -5.59920
C         -9.67230        6.93390       -4.40640
C         -8.38280        7.24000       -3.92930
C         -7.48150        8.06770       -4.71250
S         -6.70030        9.46580       -4.04000
C         -5.88680        9.82030       -5.52550
C         -5.02170       11.02420       -5.66100
C         -5.86310       12.27870       -5.90720
C         -6.21200        8.89930       -6.47610
Cl        -5.60060        8.91850       -8.07660
C         -7.11080        7.90000       -6.01880
Cl        -7.59470        6.57980       -6.99960
C         -8.00340        6.64950       -2.73780
C         -8.82770        5.74060       -2.02130
C        -10.11480        5.42080       -2.50290
C        -10.99610        4.47980       -1.84140
C        -12.35680        4.55440       -1.72810
C        -12.92730        3.44680       -1.07180
C        -12.01480        2.51330       -0.68840
C        -12.24850        1.20450       -0.01650
C        -12.11580        0.04310       -1.00420
S        -10.41150        2.99910       -1.13110
C        -10.50250        6.03180       -3.69320
S        -11.98190        5.74510       -4.56040
C         -8.16000        5.22500       -0.88690
C         -6.87510        5.67400       -0.74870
S         -6.44060        6.82570       -1.99340
C         -5.89190        5.21940        0.17360
S         -4.34460        6.04740        0.29390
C         -3.74810        4.80690        1.32830
C         -2.57640        4.37090        1.95310
S         -0.92740        4.85810        2.16690
C         -0.62530        3.35740        2.98280
C          0.55040        2.72140        3.48990
C          1.87920        3.13980        3.49820
C          2.82420        2.22530        3.90040
C          4.34270        2.34810        3.85860
C          4.91140        3.20850        4.97190
C          4.15850        3.55490        6.08430
C          4.71030        4.32810        7.08990
C          6.02280        4.77340        7.01150
C          6.59780        5.66590        8.07400
C          6.32010        7.13410        7.74560
C          6.77580        4.41050        5.90240
C          6.23430        3.62770        4.90210
C          4.73850        2.86720        2.49110
C          4.99540        2.00280        1.43670
C          5.29900        2.49710        0.18100
C          5.33910        3.86340       -0.05910
C          5.71100        4.40090       -1.41100
C          7.21830        4.65160       -1.49110
C          5.06900        4.72530        0.99610
C          4.76990        4.23650        2.25300
C          4.75190        0.91920        4.12760
C          3.63640        0.16160        4.43650
C          2.43910        0.92550        4.29840
C          1.10610        0.53400        4.36530
C          0.16290        1.44040        3.94410
C         -1.33300        1.21400        3.73530
C         -1.45950        0.02900        2.79720
C         -1.28550       -1.26670        3.27140
C         -1.32340       -2.34780        2.41070
C         -1.53550       -2.17240        1.05040
C         -1.53130       -3.33720        0.10270
C         -0.22600       -3.37850       -0.69410
C         -1.70570       -0.87820        0.57750
C         -1.66040        0.20670        1.43410
C         -2.10510        1.08370        5.03610
C         -1.86180        2.00480        6.04900
C         -2.61610        1.99740        7.20610
C         -3.63280        1.06870        7.38840
C         -4.51270        1.10680        8.60380
C         -5.76430        1.93900        8.31700
C         -3.85990        0.13940        6.38410
C         -3.11190        0.14790        5.22130
C         -1.72480        2.52430        3.09410
C         -2.86090        3.11390        2.53410
N         -4.18310        2.79260        2.30260
C         -4.72860        3.82660        1.57060
C         -5.94380        4.06610        0.92930
C         -4.90200        1.73980        2.84850
C         -4.85950        0.42590        2.49800
C         -5.72930       -0.33890        3.29840
S         -6.10810       -2.01900        3.41660
C         -7.22700       -1.70140        4.72320
C         -7.92300       -2.83870        5.38700
C         -7.00380       -3.52540        6.40060
C         -7.29350       -0.38070        5.04290
C         -6.43800        0.39770        4.23700
S         -6.03090        2.07290        4.15990
S          4.01020       -1.49650        4.66460
C          5.69540       -1.17190        4.30430
C          5.92710        0.17140        4.06940
C          6.56760       -2.28070        4.12580
C          7.95760       -2.33180        4.13410
N          8.79080       -1.31080        4.55430
C         10.03180       -1.15370        3.91490
C         10.12060       -1.27630        2.53060
C         11.34100       -1.14450        1.89840
C         12.49700       -0.87810        2.62080
C         13.82260       -0.75970        1.93350
C         12.39730       -0.74870        4.00150
C         11.18550       -0.88760        4.64710
C          8.44280       -0.51350        5.65270
C          8.85660        0.81560        5.71580
C          8.49610        1.60740        6.78710
C          7.70050        1.11320        7.81260
C          7.27170        1.99240        8.94590
C          7.29660       -0.21410        7.74610
C          7.66630       -1.02250        6.69070
C          8.41340       -3.59660        3.69330
S          9.97710       -4.28890        3.46640
C          9.25270       -5.79220        2.86670
C          7.84430       -5.77610        2.97390
N          6.99920       -6.83360        2.81230
C          7.40770       -8.17110        2.91700
C          8.30610       -8.58350        3.89920
C          8.71580       -9.89940        3.95470
C          8.24940      -10.83940        3.03950
C          8.75260      -12.24830        3.06810
C          7.32180      -10.42980        2.09040
C          6.89750       -9.11620        2.02890
C          5.62800       -6.59520        2.56150
C          4.66700       -7.22440        3.34390
C          3.32650       -6.97340        3.12170
C          2.91790       -6.10090        2.12120
C          1.46770       -5.79550        1.90410
C          3.88870       -5.50330        1.32390
C          5.23150       -5.74400        1.53450
C          7.40250       -4.50350        3.39880
S          5.84100       -3.81820        3.69070
C         10.12520       -6.76720        2.38300
C          9.79880       -7.75120        1.47110
C          8.72480       -7.61620        0.47670
O          7.96170       -6.67780        0.33040
C          8.83970       -8.79950       -0.40210
C          8.03880       -9.11300       -1.49470
C          8.36550      -10.30090       -2.10560
C          9.42400      -11.10700       -1.67260
C         10.23230      -10.80000       -0.60270
C          9.90500       -9.60590        0.04110
C         10.49870       -8.97690        1.22050
C         11.44460       -9.54080        2.04430
C         12.03020      -10.80150        1.83650
N         12.52850      -11.83220        1.72930
C         11.88480       -8.95860        3.24840
N         12.26710       -8.56000        4.25620
C          9.17070      -12.14900       -2.73410
C          8.45680      -13.45410       -2.30400
C          7.62020      -13.10780       -1.09780
C          6.61470      -12.34620       -1.50770
C          6.75490      -12.16240       -2.99820
C          7.36350      -13.52030       -3.38240
C          7.98810      -11.25070       -3.21560
H        -13.23990        6.32420       -6.88770
H         -8.96580        8.64470      -10.81220
H        -13.41490        6.68790      -12.24560
H        -11.72360        7.94610      -14.96210
H        -11.45400        5.52880      -15.49390
H        -10.66830        4.36040      -13.29060
H         -8.33160        5.40520      -12.58230
H         -7.67640        7.21850      -14.34980
H         -8.86050        5.54840      -16.02950
H         -9.50110        7.18360      -16.32870
H         -9.45350        8.96200      -14.26740
H         -9.81170        8.12300       -6.24310
H         -4.33820       10.87020       -6.49810
H         -4.43570       11.15340       -4.74920
H         -5.21790       13.14690       -6.01170
H         -6.54240       12.44550       -5.07460
H         -6.44890       12.16720       -6.81610
H        -12.93200        5.39490       -2.07170
H        -13.98250        3.34860       -0.88880
H        -13.25160        1.20650        0.41520
H        -11.52620        1.07060        0.79280
H        -12.29890       -0.90290       -0.50080
H        -11.11510        0.02340       -1.43020
H        -12.83380        0.15210       -1.81370
H         -8.60630        4.53870       -0.19300
H          2.14650        4.12500        3.14860
H          3.13300        3.22490        6.16480
H          4.10800        4.59250        7.94810
H          7.67650        5.51180        8.14390
H          6.15470        5.42460        9.04260
H          5.24870        7.31150        7.68410
H          6.76530        7.39820        6.78890
H          6.73620        7.78210        8.51350
H          7.79860        4.74960        5.81900
H          6.83720        3.35190        4.04930
H          4.95870        0.93480        1.59500
H          5.50140        1.80780       -0.62670
H          5.42290        3.68760       -2.18580
H          5.18090        5.33780       -1.59470
H          7.52310        5.36930       -0.73260
H          7.76470        3.72580       -1.32430
H          7.48830        5.04360       -2.46900
H          5.08860        5.79320        0.83050
H          4.56760        4.92540        3.06060
H          0.85220       -0.46360        4.68480
H         -1.12400       -1.43820        4.32520
H         -1.18610       -3.34470        2.80570
H         -2.37130       -3.25200       -0.59080
H         -1.64470       -4.26800        0.66180
H         -0.11940       -2.48000       -1.29720
H          0.62580       -3.43750       -0.02060
H         -0.21100       -4.24240       -1.35480
H         -1.87460       -0.71280       -0.47740
H         -1.78220        1.20040        1.02900
H         -1.07980        2.74030        5.92280
H         -2.41680        2.72830        7.97690
H         -3.97150        1.54450        9.44470
H         -4.80970        0.09220        8.87850
H         -5.48900        2.96080        8.06580
H         -6.31060        1.52000        7.47490
H         -6.41910        1.95780        9.18520
H         -4.64070       -0.59860        6.50520
H         -3.32630       -0.57880        4.45380
H         -6.79980        3.41880        0.96880
H         -4.23120        0.03180        1.72100
H         -8.81320       -2.46280        5.89530
H         -8.23570       -3.56680        4.63550
H         -7.51880       -4.35830        6.87190
H         -6.11180       -3.90230        5.90520
H         -6.70030       -2.82250        7.17320
H         -7.92470        0.01650        5.81680
H          6.88930        0.56410        3.80040
H          9.22770       -1.47270        1.95450
H         11.39420       -1.24560        0.82400
H         13.70030       -0.41290        0.91000
H         14.31270       -1.73350        1.90320
H         14.47610       -0.07180        2.46500
H         13.28560       -0.54630        4.58220
H         11.12490       -0.79710        5.72150
H          9.46250        1.22350        4.91950
H          8.83150        2.63270        6.82320
H          8.02860        2.74210        9.16380
H          7.08390        1.40690        9.84290
H          6.35140        2.51260        8.67770
H          6.68880       -0.62690        8.53850
H          7.35710       -2.05690        6.67270
H          8.68640       -7.87090        4.61560
H          9.41870      -10.20090        4.71770
H          8.02240      -12.93020        2.63880
H          8.97560      -12.56030        4.08580
H          9.67330      -12.32710        2.48780
H          6.93910      -11.14390        1.37610
H          6.18070       -8.80810        1.28260
H          4.97610       -7.89900        4.12900
H          2.58780       -7.45760        3.74400
H          0.83750       -6.45240        2.49830
H          1.20360       -5.91000        0.85420
H          1.25970       -4.76460        2.19120
H          3.58630       -4.83960        0.52680
H          5.98530       -5.30010        0.90330
H         11.14990       -6.69750        2.72800
H          7.23440       -8.46140       -1.79970
H         11.05290      -11.42360       -0.28850
H          9.98670      -12.33310       -3.43020
H          9.11210      -14.31480       -2.20110
H          7.87390      -13.39670       -0.09440
H          5.85280      -11.87000       -0.91770
H          5.86010      -11.84680       -3.52890
H          7.75700      -13.54740       -4.39760
H          6.67310      -14.34960       -3.23350
H          8.03280      -10.84890       -4.22640
