
  xtb     02122210453D
 energy: -303.121852462749 gnorm: 0.000679949515 xtb: 6.4.1 (unknown)
181203  0     0  0            999 V2000
   -8.5471   10.2636   -0.7034 C   0  0  0  0  0  0  0  0  0  0  0  0
   -8.2117   11.5868   -0.5694 C   0  0  0  0  0  0  0  0  0  0  0  0
   -6.8582   12.1079   -0.3506 C   0  0  0  0  0  0  0  0  0  0  0  0
   -5.8292   11.4692   -0.2038 O   0  0  0  0  0  0  0  0  0  0  0  0
   -6.9769   13.5747   -0.3304 C   0  0  0  0  0  0  0  0  0  0  0  0
   -5.9446   14.4949   -0.1689 C   0  0  0  0  0  0  0  0  0  0  0  0
   -6.3558   15.8059   -0.1988 C   0  0  0  0  0  0  0  0  0  0  0  0
   -7.6969   16.1726   -0.3718 C   0  0  0  0  0  0  0  0  0  0  0  0
   -8.7255   15.2731   -0.5269 C   0  0  0  0  0  0  0  0  0  0  0  0
   -8.3287   13.9334   -0.5045 C   0  0  0  0  0  0  0  0  0  0  0  0
   -9.1219   12.7116   -0.6414 C   0  0  0  0  0  0  0  0  0  0  0  0
  -10.4843   12.6668   -0.8010 C   0  0  0  0  0  0  0  0  0  0  0  0
  -11.2637   11.4977   -0.9174 C   0  0  0  0  0  0  0  0  0  0  0  0
  -11.9781   10.6024   -1.0150 N   0  0  0  0  0  0  0  0  0  0  0  0
  -11.3207   13.8006   -0.8649 C   0  0  0  0  0  0  0  0  0  0  0  0
  -12.0679   14.6705   -0.9270 N   0  0  0  0  0  0  0  0  0  0  0  0
   -7.3845   17.6468   -0.3148 C   0  0  0  0  0  0  0  0  0  0  0  0
   -7.3565   18.4294   -1.6510 C   0  0  0  0  0  0  0  0  0  0  0  0
   -7.0092   17.4304   -2.7266 C   0  0  0  0  0  0  0  0  0  0  0  0
   -5.7395   17.0839   -2.5627 C   0  0  0  0  0  0  0  0  0  0  0  0
   -5.2054   17.8425   -1.3730 C   0  0  0  0  0  0  0  0  0  0  0  0
   -6.0060   19.1481   -1.5027 C   0  0  0  0  0  0  0  0  0  0  0  0
   -5.8900   17.2384   -0.1218 C   0  0  0  0  0  0  0  0  0  0  0  0
   -7.7318    9.1228   -0.6819 C   0  0  0  0  0  0  0  0  0  0  0  0
   -8.2399    7.8436   -0.8957 C   0  0  0  0  0  0  0  0  0  0  0  0
   -7.2841    6.8399   -0.8615 C   0  0  0  0  0  0  0  0  0  0  0  0
   -7.6111    5.1330   -1.1291 S   0  0  0  0  0  0  0  0  0  0  0  0
   -9.3550    4.9666   -0.5996 C   0  0  0  0  0  0  0  0  0  0  0  0
   -9.5380    5.2637    0.8748 C   0  0  0  0  0  0  0  0  0  0  0  0
   -5.9940    7.3380   -0.6363 C   0  0  0  0  0  0  0  0  0  0  0  0
   -6.0040    9.0658   -0.4470 S   0  0  0  0  0  0  0  0  0  0  0  0
   -4.7808    6.6191   -0.5159 C   0  0  0  0  0  0  0  0  0  0  0  0
   -3.4998    7.1504   -0.4248 C   0  0  0  0  0  0  0  0  0  0  0  0
   -3.1437    8.5627   -0.6160 C   0  0  0  0  0  0  0  0  0  0  0  0
   -3.3320    9.1676   -1.8556 C   0  0  0  0  0  0  0  0  0  0  0  0
   -2.9726   10.4883   -2.0344 C   0  0  0  0  0  0  0  0  0  0  0  0
   -2.4228   11.2082   -0.9884 C   0  0  0  0  0  0  0  0  0  0  0  0
   -2.2147   10.6143    0.2482 C   0  0  0  0  0  0  0  0  0  0  0  0
   -1.5608   11.3718    1.3672 C   0  0  0  0  0  0  0  0  0  0  0  0
   -0.0484   11.1400    1.3508 C   0  0  0  0  0  0  0  0  0  0  0  0
   -2.5715    9.2849    0.4213 C   0  0  0  0  0  0  0  0  0  0  0  0
   -2.5415    6.1554   -0.1902 C   0  0  0  0  0  0  0  0  0  0  0  0
   -0.8049    6.2165    0.0024 S   0  0  0  0  0  0  0  0  0  0  0  0
   -0.7905    4.4902    0.1468 C   0  0  0  0  0  0  0  0  0  0  0  0
    0.1241    3.4443    0.3382 C   0  0  0  0  0  0  0  0  0  0  0  0
    1.5140    3.4656    0.5856 C   0  0  0  0  0  0  0  0  0  0  0  0
    2.1958    2.2258    0.8160 C   0  0  0  0  0  0  0  0  0  0  0  0
    3.4820    2.3961    1.0791 N   0  0  0  0  0  0  0  0  0  0  0  0
    3.8079    3.9808    1.0358 S   0  0  0  0  0  0  0  0  0  0  0  0
    2.3199    4.5116    0.6812 N   0  0  0  0  0  0  0  0  0  0  0  0
    1.4749    1.0185    0.6908 C   0  0  0  0  0  0  0  0  0  0  0  0
    1.9101   -0.3147    0.7230 C   0  0  0  0  0  0  0  0  0  0  0  0
    3.3705   -1.2120    0.9583 S   0  0  0  0  0  0  0  0  0  0  0  0
    2.4920   -2.6826    0.6161 C   0  0  0  0  0  0  0  0  0  0  0  0
    2.8770   -4.0322    0.5620 C   0  0  0  0  0  0  0  0  0  0  0  0
    4.1978   -4.5526    0.8939 C   0  0  0  0  0  0  0  0  0  0  0  0
    5.3511   -3.9387    0.4134 C   0  0  0  0  0  0  0  0  0  0  0  0
    6.5851   -4.4959    0.6895 C   0  0  0  0  0  0  0  0  0  0  0  0
    6.6821   -5.6527    1.4431 C   0  0  0  0  0  0  0  0  0  0  0  0
    5.5436   -6.2549    1.9653 C   0  0  0  0  0  0  0  0  0  0  0  0
    5.6211   -7.5028    2.7980 C   0  0  0  0  0  0  0  0  0  0  0  0
    5.0574   -8.7095    2.0467 C   0  0  0  0  0  0  0  0  0  0  0  0
    4.3097   -5.6914    1.6866 C   0  0  0  0  0  0  0  0  0  0  0  0
    1.8003   -4.8530    0.2425 C   0  0  0  0  0  0  0  0  0  0  0  0
    0.3006   -3.9519    0.0627 S   0  0  0  0  0  0  0  0  0  0  0  0
    1.1340   -2.4670    0.3561 C   0  0  0  0  0  0  0  0  0  0  0  0
    0.8020   -1.1100    0.4152 C   0  0  0  0  0  0  0  0  0  0  0  0
   -0.3038   -0.3247    0.2251 N   0  0  0  0  0  0  0  0  0  0  0  0
    0.0827    0.9969    0.3884 C   0  0  0  0  0  0  0  0  0  0  0  0
   -0.6201    2.2284    0.3107 C   0  0  0  0  0  0  0  0  0  0  0  0
   -1.9602    2.5464    0.1511 N   0  0  0  0  0  0  0  0  0  0  0  0
   -2.0578    3.9074    0.0518 C   0  0  0  0  0  0  0  0  0  0  0  0
   -3.0654    4.8604   -0.1329 C   0  0  0  0  0  0  0  0  0  0  0  0
   -4.7802    4.8650   -0.3488 S   0  0  0  0  0  0  0  0  0  0  0  0
   -3.1489    1.7725    0.4314 C   0  0  0  0  0  0  0  0  0  0  0  0
   -3.1417    1.2317    1.8591 C   0  0  0  0  0  0  0  0  0  0  0  0
   -1.4593   -0.8806   -0.4429 C   0  0  0  0  0  0  0  0  0  0  0  0
   -1.5622   -0.3891   -1.8846 C   0  0  0  0  0  0  0  0  0  0  0  0
    1.8997   -6.2325   -0.0804 C   0  0  0  0  0  0  0  0  0  0  0  0
    2.9640   -6.8398   -0.7436 C   0  0  0  0  0  0  0  0  0  0  0  0
    2.6763   -8.2164   -0.8805 C   0  0  0  0  0  0  0  0  0  0  0  0
    1.3999   -8.4780   -0.2549 C   0  0  0  0  0  0  0  0  0  0  0  0
    0.7591   -9.4920   -0.0883 O   0  0  0  0  0  0  0  0  0  0  0  0
    0.9609   -7.2017    0.1732 N   0  0  0  0  0  0  0  0  0  0  0  0
   -0.2503   -7.0525    0.9426 C   0  0  0  0  0  0  0  0  0  0  0  0
    0.0407   -6.7753    2.4147 C   0  0  0  0  0  0  0  0  0  0  0  0
    3.7188   -8.8231   -1.5790 C   0  0  0  0  0  0  0  0  0  0  0  0
    4.6235   -7.8380   -1.9001 N   0  0  0  0  0  0  0  0  0  0  0  0
    5.7351   -7.9227   -2.8219 C   0  0  0  0  0  0  0  0  0  0  0  0
    7.0436   -7.4819   -2.1745 C   0  0  0  0  0  0  0  0  0  0  0  0
    4.1827   -6.5698   -1.4710 C   0  0  0  0  0  0  0  0  0  0  0  0
    4.7332   -5.5298   -1.7673 O   0  0  0  0  0  0  0  0  0  0  0  0
    3.7238  -10.1899   -1.9625 C   0  0  0  0  0  0  0  0  0  0  0  0
    4.7790  -11.0476   -2.0689 C   0  0  0  0  0  0  0  0  0  0  0  0
    6.0837  -10.8783   -1.3831 C   0  0  0  0  0  0  0  0  0  0  0  0
    6.4278   -9.9534   -0.6768 O   0  0  0  0  0  0  0  0  0  0  0  0
    6.8227  -12.1317   -1.6099 C   0  0  0  0  0  0  0  0  0  0  0  0
    8.1108  -12.4318   -1.1702 C   0  0  0  0  0  0  0  0  0  0  0  0
    8.5437  -13.6873   -1.5223 C   0  0  0  0  0  0  0  0  0  0  0  0
    7.7504  -14.5858   -2.2491 C   0  0  0  0  0  0  0  0  0  0  0  0
    6.4781  -14.3046   -2.6865 C   0  0  0  0  0  0  0  0  0  0  0  0
    6.0200  -13.0279   -2.3453 C   0  0  0  0  0  0  0  0  0  0  0  0
    4.7532  -12.3730   -2.6562 C   0  0  0  0  0  0  0  0  0  0  0  0
    3.7589  -12.8752   -3.4551 C   0  0  0  0  0  0  0  0  0  0  0  0
    3.7647  -14.1669   -4.0203 C   0  0  0  0  0  0  0  0  0  0  0  0
    3.7027  -15.2081   -4.5007 N   0  0  0  0  0  0  0  0  0  0  0  0
    2.6180  -12.1537   -3.8676 C   0  0  0  0  0  0  0  0  0  0  0  0
    1.6913  -11.6224   -4.2889 N   0  0  0  0  0  0  0  0  0  0  0  0
    8.8133  -15.6559   -2.2403 C   0  0  0  0  0  0  0  0  0  0  0  0
    8.6180  -16.8173   -1.2427 C   0  0  0  0  0  0  0  0  0  0  0  0
    9.9980  -17.4220   -1.1187 C   0  0  0  0  0  0  0  0  0  0  0  0
   10.7518  -16.5706   -0.4349 C   0  0  0  0  0  0  0  0  0  0  0  0
    9.8939  -15.3763   -0.0844 C   0  0  0  0  0  0  0  0  0  0  0  0
    8.5370  -16.0694    0.0944 C   0  0  0  0  0  0  0  0  0  0  0  0
    9.6993  -14.6528   -1.4339 C   0  0  0  0  0  0  0  0  0  0  0  0
   -9.5934   10.0362   -0.8675 H   0  0  0  0  0  0  0  0  0  0  0  0
   -4.9264   14.1637   -0.0364 H   0  0  0  0  0  0  0  0  0  0  0  0
   -9.7511   15.5751   -0.6569 H   0  0  0  0  0  0  0  0  0  0  0  0
   -7.8678   18.2066    0.4833 H   0  0  0  0  0  0  0  0  0  0  0  0
   -8.2343   19.0438   -1.8323 H   0  0  0  0  0  0  0  0  0  0  0  0
   -7.7165   17.0470   -3.4386 H   0  0  0  0  0  0  0  0  0  0  0  0
   -5.1741   16.3528   -3.1103 H   0  0  0  0  0  0  0  0  0  0  0  0
   -4.1238   17.9238   -1.3012 H   0  0  0  0  0  0  0  0  0  0  0  0
   -5.7349   19.7222   -2.3874 H   0  0  0  0  0  0  0  0  0  0  0  0
   -5.9470   19.7830   -0.6197 H   0  0  0  0  0  0  0  0  0  0  0  0
   -5.3973   17.5314    0.8034 H   0  0  0  0  0  0  0  0  0  0  0  0
   -9.2860    7.6823   -1.0846 H   0  0  0  0  0  0  0  0  0  0  0  0
   -9.9735    5.6033   -1.2303 H   0  0  0  0  0  0  0  0  0  0  0  0
   -9.5853    3.9249   -0.8222 H   0  0  0  0  0  0  0  0  0  0  0  0
  -10.5770    5.1048    1.1556 H   0  0  0  0  0  0  0  0  0  0  0  0
   -8.9095    4.6077    1.4728 H   0  0  0  0  0  0  0  0  0  0  0  0
   -9.2733    6.2949    1.0996 H   0  0  0  0  0  0  0  0  0  0  0  0
   -3.7626    8.5991   -2.6674 H   0  0  0  0  0  0  0  0  0  0  0  0
   -3.1229   10.9595   -2.9947 H   0  0  0  0  0  0  0  0  0  0  0  0
   -2.1512   12.2439   -1.1348 H   0  0  0  0  0  0  0  0  0  0  0  0
   -1.9664   11.0399    2.3249 H   0  0  0  0  0  0  0  0  0  0  0  0
   -1.7646   12.4390    1.2616 H   0  0  0  0  0  0  0  0  0  0  0  0
    0.3766   11.4851    0.4108 H   0  0  0  0  0  0  0  0  0  0  0  0
    0.4291   11.6781    2.1665 H   0  0  0  0  0  0  0  0  0  0  0  0
    0.1729   10.0803    1.4552 H   0  0  0  0  0  0  0  0  0  0  0  0
   -2.4202    8.8077    1.3793 H   0  0  0  0  0  0  0  0  0  0  0  0
    5.2737   -3.0576   -0.2030 H   0  0  0  0  0  0  0  0  0  0  0  0
    7.4789   -4.0311    0.3006 H   0  0  0  0  0  0  0  0  0  0  0  0
    7.6512   -6.0899    1.6359 H   0  0  0  0  0  0  0  0  0  0  0  0
    5.0511   -7.3567    3.7202 H   0  0  0  0  0  0  0  0  0  0  0  0
    6.6591   -7.7008    3.0703 H   0  0  0  0  0  0  0  0  0  0  0  0
    5.6240   -8.8925    1.1376 H   0  0  0  0  0  0  0  0  0  0  0  0
    5.1093   -9.5995    2.6704 H   0  0  0  0  0  0  0  0  0  0  0  0
    4.0176   -8.5437    1.7720 H   0  0  0  0  0  0  0  0  0  0  0  0
    3.4173   -6.1383    2.1031 H   0  0  0  0  0  0  0  0  0  0  0  0
   -3.2742    0.9751   -0.3016 H   0  0  0  0  0  0  0  0  0  0  0  0
   -3.9952    2.4531    0.3090 H   0  0  0  0  0  0  0  0  0  0  0  0
   -4.0360    0.6401    2.0357 H   0  0  0  0  0  0  0  0  0  0  0  0
   -3.1271    2.0568    2.5674 H   0  0  0  0  0  0  0  0  0  0  0  0
   -2.2666    0.6129    2.0433 H   0  0  0  0  0  0  0  0  0  0  0  0
   -1.3266   -1.9653   -0.4417 H   0  0  0  0  0  0  0  0  0  0  0  0
   -2.3677   -0.6700    0.1212 H   0  0  0  0  0  0  0  0  0  0  0  0
   -2.4417   -0.8145   -2.3603 H   0  0  0  0  0  0  0  0  0  0  0  0
   -1.6273    0.6955   -1.9275 H   0  0  0  0  0  0  0  0  0  0  0  0
   -0.6824   -0.6977   -2.4445 H   0  0  0  0  0  0  0  0  0  0  0  0
   -0.8645   -6.2547    0.5152 H   0  0  0  0  0  0  0  0  0  0  0  0
   -0.7833   -8.0020    0.8393 H   0  0  0  0  0  0  0  0  0  0  0  0
   -0.8920   -6.7109    2.9677 H   0  0  0  0  0  0  0  0  0  0  0  0
    0.5800   -5.8377    2.5347 H   0  0  0  0  0  0  0  0  0  0  0  0
    0.6396   -7.5799    2.8354 H   0  0  0  0  0  0  0  0  0  0  0  0
    5.8077   -8.9470   -3.1918 H   0  0  0  0  0  0  0  0  0  0  0  0
    5.5141   -7.2581   -3.6660 H   0  0  0  0  0  0  0  0  0  0  0  0
    7.2709   -8.1125   -1.3202 H   0  0  0  0  0  0  0  0  0  0  0  0
    6.9560   -6.4523   -1.8400 H   0  0  0  0  0  0  0  0  0  0  0  0
    7.8503   -7.5561   -2.8991 H   0  0  0  0  0  0  0  0  0  0  0  0
    2.7269  -10.5783   -2.1402 H   0  0  0  0  0  0  0  0  0  0  0  0
    8.6886  -11.7104   -0.6139 H   0  0  0  0  0  0  0  0  0  0  0  0
    5.8800  -15.0053   -3.2446 H   0  0  0  0  0  0  0  0  0  0  0  0
    9.1585  -15.9884   -3.2174 H   0  0  0  0  0  0  0  0  0  0  0  0
    7.8061  -17.4962   -1.4880 H   0  0  0  0  0  0  0  0  0  0  0  0
   10.2893  -18.3501   -1.5742 H   0  0  0  0  0  0  0  0  0  0  0  0
   11.7986  -16.6454   -0.2053 H   0  0  0  0  0  0  0  0  0  0  0  0
   10.2444  -14.7428    0.7260 H   0  0  0  0  0  0  0  0  0  0  0  0
    7.6949  -15.3839    0.1694 H   0  0  0  0  0  0  0  0  0  0  0  0
    8.5308  -16.7482    0.9456 H   0  0  0  0  0  0  0  0  0  0  0  0
   10.6351  -14.3144   -1.8748 H   0  0  0  0  0  0  0  0  0  0  0  0
  1  2  2  0  0  0  0
  2  3  1  0  0  0  0
  3  4  2  0  0  0  0
  3  5  1  0  0  0  0
  5  6  2  0  0  0  0
  6  7  1  0  0  0  0
  7  8  2  0  0  0  0
  8  9  1  0  0  0  0
  9 10  2  0  0  0  0
 10 11  1  0  0  0  0
 11 12  2  0  0  0  0
 12 13  1  0  0  0  0
 13 14  3  0  0  0  0
 12 15  1  0  0  0  0
 15 16  3  0  0  0  0
  8 17  1  0  0  0  0
 17 18  1  0  0  0  0
 18 19  1  0  0  0  0
 19 20  2  0  0  0  0
 20 21  1  0  0  0  0
 21 22  1  0  0  0  0
 21 23  1  0  0  0  0
  1 24  1  0  0  0  0
 24 25  2  0  0  0  0
 25 26  1  0  0  0  0
 26 27  1  0  0  0  0
 27 28  1  0  0  0  0
 28 29  1  0  0  0  0
 26 30  2  0  0  0  0
 30 31  1  0  0  0  0
 30 32  1  0  0  0  0
 32 33  2  0  0  0  0
 33 34  1  0  0  0  0
 34 35  2  0  0  0  0
 35 36  1  0  0  0  0
 36 37  2  0  0  0  0
 37 38  1  0  0  0  0
 38 39  1  0  0  0  0
 39 40  1  0  0  0  0
 38 41  2  0  0  0  0
 33 42  1  0  0  0  0
 42 43  1  0  0  0  0
 43 44  1  0  0  0  0
 44 45  1  0  0  0  0
 45 46  1  0  0  0  0
 46 47  1  0  0  0  0
 47 48  2  0  0  0  0
 48 49  1  0  0  0  0
 49 50  1  0  0  0  0
 47 51  1  0  0  0  0
 51 52  1  0  0  0  0
 52 53  1  0  0  0  0
 53 54  1  0  0  0  0
 54 55  1  0  0  0  0
 55 56  1  0  0  0  0
 56 57  2  0  0  0  0
 57 58  1  0  0  0  0
 58 59  2  0  0  0  0
 59 60  1  0  0  0  0
 60 61  1  0  0  0  0
 61 62  1  0  0  0  0
 60 63  2  0  0  0  0
 55 64  2  0  0  0  0
 64 65  1  0  0  0  0
 65 66  1  0  0  0  0
 66 67  1  0  0  0  0
 67 68  1  0  0  0  0
 68 69  1  0  0  0  0
 69 70  1  0  0  0  0
 70 71  1  0  0  0  0
 71 72  1  0  0  0  0
 72 73  1  0  0  0  0
 73 74  1  0  0  0  0
 71 75  1  0  0  0  0
 75 76  1  0  0  0  0
 68 77  1  0  0  0  0
 77 78  1  0  0  0  0
 64 79  1  0  0  0  0
 79 80  2  0  0  0  0
 80 81  1  0  0  0  0
 81 82  1  0  0  0  0
 82 83  2  0  0  0  0
 82 84  1  0  0  0  0
 84 85  1  0  0  0  0
 85 86  1  0  0  0  0
 81 87  2  0  0  0  0
 87 88  1  0  0  0  0
 88 89  1  0  0  0  0
 89 90  1  0  0  0  0
 88 91  1  0  0  0  0
 91 92  2  0  0  0  0
 87 93  1  0  0  0  0
 93 94  2  0  0  0  0
 94 95  1  0  0  0  0
 95 96  2  0  0  0  0
 95 97  1  0  0  0  0
 97 98  2  0  0  0  0
 98 99  1  0  0  0  0
 99100  2  0  0  0  0
100101  1  0  0  0  0
101102  2  0  0  0  0
102103  1  0  0  0  0
103104  2  0  0  0  0
104105  1  0  0  0  0
105106  3  0  0  0  0
104107  1  0  0  0  0
107108  3  0  0  0  0
100109  1  0  0  0  0
109110  1  0  0  0  0
110111  1  0  0  0  0
111112  2  0  0  0  0
112113  1  0  0  0  0
113114  1  0  0  0  0
113115  1  0  0  0  0
 11  2  1  0  0  0  0
 23 17  1  0  0  0  0
 31 24  1  0  0  0  0
 74 32  1  0  0  0  0
 84 79  1  0  0  0  0
103 94  1  0  0  0  0
115109  1  0  0  0  0
 10  5  1  0  0  0  0
 22 18  1  0  0  0  0
 41 34  1  0  0  0  0
 73 42  2  0  0  0  0
 91 80  1  0  0  0  0
102 97  1  0  0  0  0
114110  1  0  0  0  0
 23  7  1  0  0  0  0
 72 44  2  0  0  0  0
115 99  1  0  0  0  0
 70 45  2  0  0  0  0
 50 46  2  0  0  0  0
 69 51  2  0  0  0  0
 67 52  2  0  0  0  0
 66 54  2  0  0  0  0
 63 56  1  0  0  0  0
  1116  1  0  0  0  0
  6117  1  0  0  0  0
  9118  1  0  0  0  0
 17119  1  0  0  0  0
 18120  1  0  0  0  0
 19121  1  0  0  0  0
 20122  1  0  0  0  0
 21123  1  0  0  0  0
 22124  1  0  0  0  0
 22125  1  0  0  0  0
 23126  1  0  0  0  0
 25127  1  0  0  0  0
 28128  1  0  0  0  0
 28129  1  0  0  0  0
 29130  1  0  0  0  0
 29131  1  0  0  0  0
 29132  1  0  0  0  0
 35133  1  0  0  0  0
 36134  1  0  0  0  0
 37135  1  0  0  0  0
 39136  1  0  0  0  0
 39137  1  0  0  0  0
 40138  1  0  0  0  0
 40139  1  0  0  0  0
 40140  1  0  0  0  0
 41141  1  0  0  0  0
 57142  1  0  0  0  0
 58143  1  0  0  0  0
 59144  1  0  0  0  0
 61145  1  0  0  0  0
 61146  1  0  0  0  0
 62147  1  0  0  0  0
 62148  1  0  0  0  0
 62149  1  0  0  0  0
 63150  1  0  0  0  0
 75151  1  0  0  0  0
 75152  1  0  0  0  0
 76153  1  0  0  0  0
 76154  1  0  0  0  0
 76155  1  0  0  0  0
 77156  1  0  0  0  0
 77157  1  0  0  0  0
 78158  1  0  0  0  0
 78159  1  0  0  0  0
 78160  1  0  0  0  0
 85161  1  0  0  0  0
 85162  1  0  0  0  0
 86163  1  0  0  0  0
 86164  1  0  0  0  0
 86165  1  0  0  0  0
 89166  1  0  0  0  0
 89167  1  0  0  0  0
 90168  1  0  0  0  0
 90169  1  0  0  0  0
 90170  1  0  0  0  0
 93171  1  0  0  0  0
 98172  1  0  0  0  0
101173  1  0  0  0  0
109174  1  0  0  0  0
110175  1  0  0  0  0
111176  1  0  0  0  0
112177  1  0  0  0  0
113178  1  0  0  0  0
114179  1  0  0  0  0
114180  1  0  0  0  0
115181  1  0  0  0  0
M  END
