164

C         -6.43700       -5.60210       -6.89180
C         -5.94190       -6.74540       -6.32120
C         -4.97670       -6.79670       -5.21870
O         -4.44270       -5.85480       -4.65630
C         -4.77040       -8.22080       -4.91240
C         -3.93820       -8.75430       -3.93070
C         -3.94600      -10.12740       -3.87860
C         -4.72240      -10.91210       -4.74150
C         -5.54480      -10.39780       -5.71620
C         -5.55490       -9.00120       -5.78570
C         -6.28840       -8.10650       -6.68100
C         -7.13350       -8.50840       -7.68400
C         -7.82600       -7.65600       -8.56870
N         -8.41920       -7.03590       -9.33310
C         -7.43200       -9.85300       -7.98850
N         -7.72510      -10.91950       -8.29710
C         -4.24410      -12.20390       -4.12650
C         -5.21830      -12.91210       -3.16160
C         -4.32900      -13.84210       -2.36820
C         -3.59470      -13.09860       -1.55060
C         -3.97510      -11.65320       -1.77780
C         -5.46320      -11.82140       -2.11070
C         -3.37880      -11.32840       -3.16400
C         -6.14910       -4.25690       -6.61250
C         -6.78950       -3.21040       -7.27160
C         -6.36760       -1.94560       -6.88290
S         -7.08960       -0.42880       -7.40500
C         -7.54740       -0.79230       -9.14250
C         -9.01200       -1.15320       -9.30010
C         -5.36380       -2.00430       -5.91520
S         -5.00210       -3.63670       -5.45330
C         -4.64240       -0.93900       -5.30160
C         -4.14490        0.22860       -5.85540
C         -4.17970        0.56190       -7.27790
C         -4.44720        1.86340       -7.69100
C         -4.48910        2.16200       -9.03970
C         -4.26030        1.17530       -9.98230
C         -3.97100       -0.12570       -9.58680
C         -3.67050       -1.18870      -10.60480
C         -2.17940       -1.19480      -10.94620
C         -3.92310       -0.41740       -8.23370
C         -3.48430        1.00810       -4.88500
S         -2.62760        2.52800       -4.97320
C         -2.20490        2.36290       -3.30280
C         -1.46530        3.04310       -2.31950
C         -0.81750        4.29830       -2.30490
C         -0.16630        4.73170       -1.09850
N          0.35050        5.94470       -1.21220
S          0.05070        6.49410       -2.70490
N         -0.74990        5.20480       -3.26680
C         -0.06880        3.83510       -0.00990
C          0.69130        3.87780        1.16940
S          1.75940        4.95900        1.99680
C          2.07900        3.70130        3.16570
C          2.91790        3.64920        4.28810
C          3.78110        4.76170        4.70620
C          4.77180        5.21920        3.84380
C          5.60930        6.24400        4.24240
C          5.46640        6.81170        5.49580
C          4.47380        6.37650        6.36460
C          4.30040        7.01200        7.71430
C          3.33530        8.19600        7.63200
C          3.62350        5.36100        5.95190
C          2.86430        2.40590        4.90250
S          1.74040        1.31210        4.09990
C          1.36980        2.51890        2.92110
C          0.57260        2.62200        1.77770
N         -0.26300        1.81680        1.04600
C         -0.67500        2.55010       -0.05590
C         -1.50120        2.22640       -1.15760
N         -2.30770        1.12830       -1.40040
C         -2.71140        1.20170       -2.70960
C         -3.44530        0.42660       -3.61570
S         -4.24840       -1.10180       -3.59730
C         -3.08690        0.40340       -0.41990
C         -4.56350        0.79300       -0.47460
C         -0.17750        0.37690        1.19640
C          0.51570       -0.27820        0.00620
C          3.64930        1.90560        5.96840
C          3.65680        0.62030        6.47670
C          4.61180        0.41810        7.47420
S          4.80210       -1.13900        8.25840
C          6.60400       -1.45850        8.10840
C          7.02630       -1.58810        6.66020
C          5.35790        1.55980        7.77020
S          4.85550        2.88420        6.74050
C          6.23110        1.78020        8.84600
C          7.01340        2.88520        9.05620
C          7.40210        3.27600       10.43040
O          7.35900        2.59140       11.42820
C          7.79260        4.70190       10.32610
C          8.10240        5.58640       11.31730
C          8.39880        6.92620       10.97480
C          8.72460        7.87830       11.95980
C          9.00020        9.16950       11.60580
F          9.31030       10.07400       12.54620
C          8.96110        9.56520       10.25470
F          9.23390       10.83860        9.93570
C          8.64860        8.66430        9.27570
C          8.36360        7.32480        9.60710
C          8.05260        6.38210        8.60010
C          7.77830        5.09050        8.95650
C          7.45150        3.91900        8.15000
C          7.76980        3.76340        6.82310
C          7.69240        2.52390        6.15990
N          7.68610        1.51520        5.61010
C          8.28290        4.79190        6.01280
N          8.69330        5.60210        5.30980
H         -7.16500       -5.72260       -7.68470
H         -3.35360       -8.11150       -3.29140
H         -6.13060      -11.01760       -6.37380
H         -3.73860      -12.89150       -4.80170
H         -6.08890      -13.35470       -3.63770
H         -4.28720      -14.90490       -2.51800
H         -2.81690      -13.41600       -0.88110
H         -3.71340      -10.94900       -0.99260
H         -6.03580      -12.18980       -1.26120
H         -5.93430      -10.92290       -2.50500
H         -2.29590      -11.43300       -3.19660
H         -7.55470       -3.39410       -8.00430
H         -7.31330        0.12520       -9.68250
H         -6.88460       -1.58280       -9.48920
H         -9.63970       -0.33570       -8.95420
H         -9.23290       -1.34350      -10.34860
H         -9.26480       -2.04130       -8.72610
H         -4.64870        2.62820       -6.95720
H         -4.70830        3.17040       -9.35800
H         -4.30450        1.41380      -11.03540
H         -4.24710       -1.00460      -11.51390
H         -3.95250       -2.16880      -10.21280
H         -1.58870       -1.38790      -10.05350
H         -1.96030       -1.96520      -11.68190
H         -1.88040       -0.23090      -11.35170
H         -3.68160       -1.42130       -7.91320
H          4.89260        4.75830        2.87510
H          6.38700        6.59110        3.58020
H          6.13430        7.60300        5.80340
H          5.26770        7.35870        8.08560
H          3.91110        6.27560        8.42080
H          3.71460        8.94520        6.94100
H          3.21230        8.65490        8.61020
H          2.36160        7.86620        7.27730
H          2.83370        5.02270        6.60840
H         -2.97760       -0.67190       -0.59490
H         -2.70950        0.65960        0.56740
H         -5.09870        0.28940        0.32570
H         -5.01250        0.50570       -1.42040
H         -4.67330        1.86780       -0.34670
H         -1.16110       -0.06910        1.35210
H          0.40550        0.19800        2.10310
H          1.50480        0.15150       -0.13520
H         -0.05700       -0.13590       -0.90620
H          0.62200       -1.34390        0.18800
H          3.00100       -0.15630        6.12530
H          7.15120       -0.66930        8.61800
H          6.73580       -2.39590        8.64890
H          6.93520       -0.63510        6.14350
H          8.06740       -1.90050        6.61370
H          6.41660       -2.32920        6.14790
H          6.17080        1.07670        9.67100
H          8.11980        5.27250       12.34980
H          8.75870        7.59190       12.99930
H          8.62960        8.98230        8.24500
H          8.03080        6.70200        7.57040
