
  xtb     02142201113D
 energy: -267.823126447321 gnorm: 0.000405835103 xtb: 6.4.1 (unknown)
151170  0     0  0            999 V2000
   -3.1286   -9.2286    2.7179 C   0  0  0  0  0  0  0  0  0  0  0  0
   -4.4443   -9.3756    3.0763 C   0  0  0  0  0  0  0  0  0  0  0  0
   -5.5454   -8.5026    2.6567 C   0  0  0  0  0  0  0  0  0  0  0  0
   -5.4917   -7.5552    1.8899 O   0  0  0  0  0  0  0  0  0  0  0  0
   -6.7483   -8.9893    3.3518 C   0  0  0  0  0  0  0  0  0  0  0  0
   -8.0279   -8.4440    3.2917 C   0  0  0  0  0  0  0  0  0  0  0  0
   -8.9492   -9.0941    4.0775 C   0  0  0  0  0  0  0  0  0  0  0  0
   -8.6224  -10.2106    4.8580 C   0  0  0  0  0  0  0  0  0  0  0  0
   -7.3645  -10.7628    4.9194 C   0  0  0  0  0  0  0  0  0  0  0  0
   -6.4093  -10.1116    4.1344 C   0  0  0  0  0  0  0  0  0  0  0  0
   -4.9823  -10.3859    3.9640 C   0  0  0  0  0  0  0  0  0  0  0  0
   -4.3001  -11.4215    4.5523 C   0  0  0  0  0  0  0  0  0  0  0  0
   -4.8825  -12.3811    5.4060 C   0  0  0  0  0  0  0  0  0  0  0  0
   -5.2807  -13.1983    6.1081 N   0  0  0  0  0  0  0  0  0  0  0  0
   -2.9255  -11.6956    4.4009 C   0  0  0  0  0  0  0  0  0  0  0  0
   -1.8164  -11.9915    4.3387 N   0  0  0  0  0  0  0  0  0  0  0  0
  -10.0227  -10.3393    5.4032 C   0  0  0  0  0  0  0  0  0  0  0  0
  -10.2809   -9.8413    6.8469 C   0  0  0  0  0  0  0  0  0  0  0  0
   -9.2498   -8.7754    7.1233 C   0  0  0  0  0  0  0  0  0  0  0  0
   -9.5558   -7.7156    6.3869 C   0  0  0  0  0  0  0  0  0  0  0  0
  -10.8000   -8.0456    5.5998 C   0  0  0  0  0  0  0  0  0  0  0  0
  -11.5185   -8.9633    6.6017 C   0  0  0  0  0  0  0  0  0  0  0  0
  -10.3858   -9.0929    4.5361 C   0  0  0  0  0  0  0  0  0  0  0  0
   -2.5173   -8.2540    1.9161 C   0  0  0  0  0  0  0  0  0  0  0  0
   -1.1417   -8.2355    1.6944 C   0  0  0  0  0  0  0  0  0  0  0  0
   -0.7076   -7.1681    0.9234 C   0  0  0  0  0  0  0  0  0  0  0  0
    0.9557   -6.8799    0.4261 S   0  0  0  0  0  0  0  0  0  0  0  0
    1.9138   -7.6185    1.7972 C   0  0  0  0  0  0  0  0  0  0  0  0
    1.6640   -6.9109    3.1137 C   0  0  0  0  0  0  0  0  0  0  0  0
   -1.7615   -6.3510    0.5020 C   0  0  0  0  0  0  0  0  0  0  0  0
   -3.2917   -6.9238    1.0918 S   0  0  0  0  0  0  0  0  0  0  0  0
   -1.6854   -5.1339   -0.2228 C   0  0  0  0  0  0  0  0  0  0  0  0
   -2.7104   -4.4969   -0.9091 C   0  0  0  0  0  0  0  0  0  0  0  0
   -4.0135   -5.0927   -1.2114 C   0  0  0  0  0  0  0  0  0  0  0  0
   -5.1809   -4.3885   -0.9400 C   0  0  0  0  0  0  0  0  0  0  0  0
   -6.4078   -4.9598   -1.2212 C   0  0  0  0  0  0  0  0  0  0  0  0
   -6.4780   -6.2227   -1.7791 C   0  0  0  0  0  0  0  0  0  0  0  0
   -5.3197   -6.9320   -2.0748 C   0  0  0  0  0  0  0  0  0  0  0  0
   -5.3938   -8.2799   -2.7324 C   0  0  0  0  0  0  0  0  0  0  0  0
   -5.4312   -8.1310   -4.2546 C   0  0  0  0  0  0  0  0  0  0  0  0
   -4.0932   -6.3544   -1.7933 C   0  0  0  0  0  0  0  0  0  0  0  0
   -2.3307   -3.2101   -1.3236 C   0  0  0  0  0  0  0  0  0  0  0  0
   -3.1669   -1.9602   -2.2168 S   0  0  0  0  0  0  0  0  0  0  0  0
   -1.7616   -0.9582   -2.0747 C   0  0  0  0  0  0  0  0  0  0  0  0
   -1.3395    0.3382   -2.3987 C   0  0  0  0  0  0  0  0  0  0  0  0
   -2.0383    1.3814   -3.0420 C   0  0  0  0  0  0  0  0  0  0  0  0
   -1.4024    2.6563   -3.1740 C   0  0  0  0  0  0  0  0  0  0  0  0
   -2.1758    3.5516   -3.7687 N   0  0  0  0  0  0  0  0  0  0  0  0
   -3.5857    2.8433   -4.1346 S   0  0  0  0  0  0  0  0  0  0  0  0
   -3.2632    1.3701   -3.5449 N   0  0  0  0  0  0  0  0  0  0  0  0
   -0.0855    2.8105   -2.6925 C   0  0  0  0  0  0  0  0  0  0  0  0
    0.7513    3.9345   -2.7106 C   0  0  0  0  0  0  0  0  0  0  0  0
    0.7163    5.5911   -3.2105 S   0  0  0  0  0  0  0  0  0  0  0  0
    2.3522    5.7742   -2.6224 C   0  0  0  0  0  0  0  0  0  0  0  0
    3.2318    6.8704   -2.5810 C   0  0  0  0  0  0  0  0  0  0  0  0
    2.9485    8.1676   -3.1938 C   0  0  0  0  0  0  0  0  0  0  0  0
    3.8943    8.7814   -4.0116 C   0  0  0  0  0  0  0  0  0  0  0  0
    3.6196   10.0097   -4.5800 C   0  0  0  0  0  0  0  0  0  0  0  0
    2.4090   10.6357   -4.3366 C   0  0  0  0  0  0  0  0  0  0  0  0
    1.4485   10.0281   -3.5385 C   0  0  0  0  0  0  0  0  0  0  0  0
    0.1592   10.7264   -3.2172 C   0  0  0  0  0  0  0  0  0  0  0  0
    0.3071   11.5209   -1.9176 C   0  0  0  0  0  0  0  0  0  0  0  0
    1.7238    8.7886   -2.9822 C   0  0  0  0  0  0  0  0  0  0  0  0
    4.4290    6.5278   -1.9744 C   0  0  0  0  0  0  0  0  0  0  0  0
    4.4962    4.8359   -1.5194 S   0  0  0  0  0  0  0  0  0  0  0  0
    2.8841    4.5977   -2.0851 C   0  0  0  0  0  0  0  0  0  0  0  0
    1.9629    3.5442   -2.1390 C   0  0  0  0  0  0  0  0  0  0  0  0
    1.9098    2.2242   -1.7854 N   0  0  0  0  0  0  0  0  0  0  0  0
    0.6462    1.7437   -2.0871 C   0  0  0  0  0  0  0  0  0  0  0  0
   -0.0099    0.4926   -1.8987 C   0  0  0  0  0  0  0  0  0  0  0  0
    0.3385   -0.6920   -1.2721 N   0  0  0  0  0  0  0  0  0  0  0  0
   -0.7074   -1.5638   -1.3889 C   0  0  0  0  0  0  0  0  0  0  0  0
   -1.0271   -2.8579   -0.9631 C   0  0  0  0  0  0  0  0  0  0  0  0
   -0.2316   -4.1439   -0.1287 S   0  0  0  0  0  0  0  0  0  0  0  0
    1.5015   -1.1261   -0.5362 C   0  0  0  0  0  0  0  0  0  0  0  0
    2.4504   -1.9433   -1.4133 C   0  0  0  0  0  0  0  0  0  0  0  0
    3.1143    1.6059   -1.2834 C   0  0  0  0  0  0  0  0  0  0  0  0
    3.3054    1.8692    0.2109 C   0  0  0  0  0  0  0  0  0  0  0  0
    5.5100    7.4049   -1.6178 C   0  0  0  0  0  0  0  0  0  0  0  0
    6.8410    7.0166   -1.6008 C   0  0  0  0  0  0  0  0  0  0  0  0
    7.1677    5.7668   -1.9783 F   0  0  0  0  0  0  0  0  0  0  0  0
    7.8940    7.8757   -1.2477 C   0  0  0  0  0  0  0  0  0  0  0  0
    9.1367    7.3931   -1.3649 F   0  0  0  0  0  0  0  0  0  0  0  0
    7.6971    9.1993   -0.8917 C   0  0  0  0  0  0  0  0  0  0  0  0
    6.3519    9.6423   -0.9098 C   0  0  0  0  0  0  0  0  0  0  0  0
    5.2704    8.7499   -1.2242 C   0  0  0  0  0  0  0  0  0  0  0  0
    4.0867    9.3380   -1.0778 N   0  0  0  0  0  0  0  0  0  0  0  0
    4.3101   10.8646   -0.6407 S   0  0  0  0  0  0  0  0  0  0  0  0
    5.9171   10.8572   -0.5811 N   0  0  0  0  0  0  0  0  0  0  0  0
    8.7589   10.1031   -0.5194 C   0  0  0  0  0  0  0  0  0  0  0  0
    9.7936    9.8044    0.2901 C   0  0  0  0  0  0  0  0  0  0  0  0
    9.9763    8.5968    1.1352 C   0  0  0  0  0  0  0  0  0  0  0  0
    9.1927    7.6918    1.3096 O   0  0  0  0  0  0  0  0  0  0  0  0
   11.2774    8.7901    1.8181 C   0  0  0  0  0  0  0  0  0  0  0  0
   11.9383    7.9413    2.6875 C   0  0  0  0  0  0  0  0  0  0  0  0
   13.1555    8.3563    3.2103 C   0  0  0  0  0  0  0  0  0  0  0  0
   13.6935    9.5925    2.8762 C   0  0  0  0  0  0  0  0  0  0  0  0
   13.0309   10.4494    2.0080 C   0  0  0  0  0  0  0  0  0  0  0  0
   11.8192   10.0381    1.4823 C   0  0  0  0  0  0  0  0  0  0  0  0
   10.9120   10.7467    0.5511 C   0  0  0  0  0  0  0  0  0  0  0  0
   11.0496   11.8537    0.0844 O   0  0  0  0  0  0  0  0  0  0  0  0
   -2.4262   -9.9463    3.1240 H   0  0  0  0  0  0  0  0  0  0  0  0
   -8.2334   -7.5828    2.6751 H   0  0  0  0  0  0  0  0  0  0  0  0
   -7.1324  -11.6211    5.5273 H   0  0  0  0  0  0  0  0  0  0  0  0
  -10.5339  -11.2758    5.1894 H   0  0  0  0  0  0  0  0  0  0  0  0
  -10.3655  -10.6312    7.5883 H   0  0  0  0  0  0  0  0  0  0  0  0
   -8.3980   -8.9179    7.7622 H   0  0  0  0  0  0  0  0  0  0  0  0
   -9.0101   -6.7956    6.2870 H   0  0  0  0  0  0  0  0  0  0  0  0
  -11.3575   -7.1993    5.2069 H   0  0  0  0  0  0  0  0  0  0  0  0
  -12.3572   -9.5066    6.1685 H   0  0  0  0  0  0  0  0  0  0  0  0
  -11.8446   -8.4360    7.4970 H   0  0  0  0  0  0  0  0  0  0  0  0
  -11.1377   -9.2135    3.7585 H   0  0  0  0  0  0  0  0  0  0  0  0
   -0.4989   -8.9969    2.0986 H   0  0  0  0  0  0  0  0  0  0  0  0
    1.6842   -8.6816    1.8494 H   0  0  0  0  0  0  0  0  0  0  0  0
    2.9483   -7.4989    1.4764 H   0  0  0  0  0  0  0  0  0  0  0  0
    2.2916   -7.3442    3.8896 H   0  0  0  0  0  0  0  0  0  0  0  0
    1.8982   -5.8526    3.0233 H   0  0  0  0  0  0  0  0  0  0  0  0
    0.6231   -7.0096    3.4156 H   0  0  0  0  0  0  0  0  0  0  0  0
   -5.1239   -3.4083   -0.4913 H   0  0  0  0  0  0  0  0  0  0  0  0
   -7.3143   -4.4165   -0.9992 H   0  0  0  0  0  0  0  0  0  0  0  0
   -7.4406   -6.6671   -1.9881 H   0  0  0  0  0  0  0  0  0  0  0  0
   -6.2919   -8.8034   -2.3984 H   0  0  0  0  0  0  0  0  0  0  0  0
   -4.5254   -8.8780   -2.4491 H   0  0  0  0  0  0  0  0  0  0  0  0
   -6.2972   -7.5462   -4.5564 H   0  0  0  0  0  0  0  0  0  0  0  0
   -5.4865   -9.1066   -4.7323 H   0  0  0  0  0  0  0  0  0  0  0  0
   -4.5366   -7.6218   -4.6063 H   0  0  0  0  0  0  0  0  0  0  0  0
   -3.1817   -6.8890   -2.0244 H   0  0  0  0  0  0  0  0  0  0  0  0
    4.8383    8.2910   -4.2021 H   0  0  0  0  0  0  0  0  0  0  0  0
    4.3547   10.4841   -5.2140 H   0  0  0  0  0  0  0  0  0  0  0  0
    2.2065   11.6025   -4.7747 H   0  0  0  0  0  0  0  0  0  0  0  0
   -0.6401    9.9922   -3.1023 H   0  0  0  0  0  0  0  0  0  0  0  0
   -0.1116   11.4050   -4.0280 H   0  0  0  0  0  0  0  0  0  0  0  0
   -0.6278   12.0153   -1.6646 H   0  0  0  0  0  0  0  0  0  0  0  0
    0.5844   10.8581   -1.1010 H   0  0  0  0  0  0  0  0  0  0  0  0
    1.0830   12.2765   -2.0221 H   0  0  0  0  0  0  0  0  0  0  0  0
    0.9898    8.3112   -2.3505 H   0  0  0  0  0  0  0  0  0  0  0  0
    1.9966   -0.2731   -0.0835 H   0  0  0  0  0  0  0  0  0  0  0  0
    1.1425   -1.7671    0.2757 H   0  0  0  0  0  0  0  0  0  0  0  0
    2.7168   -1.4034   -2.3199 H   0  0  0  0  0  0  0  0  0  0  0  0
    1.9739   -2.8758   -1.7041 H   0  0  0  0  0  0  0  0  0  0  0  0
    3.3562   -2.1784   -0.8617 H   0  0  0  0  0  0  0  0  0  0  0  0
    3.9540    2.0560   -1.8236 H   0  0  0  0  0  0  0  0  0  0  0  0
    3.1109    0.5448   -1.5160 H   0  0  0  0  0  0  0  0  0  0  0  0
    2.4248    1.5828    0.7827 H   0  0  0  0  0  0  0  0  0  0  0  0
    4.1638    1.3136    0.5779 H   0  0  0  0  0  0  0  0  0  0  0  0
    3.4844    2.9275    0.3808 H   0  0  0  0  0  0  0  0  0  0  0  0
    8.6841   11.1152   -0.9021 H   0  0  0  0  0  0  0  0  0  0  0  0
   11.5123    6.9828    2.9411 H   0  0  0  0  0  0  0  0  0  0  0  0
   13.6934    7.7095    3.8877 H   0  0  0  0  0  0  0  0  0  0  0  0
   14.6409    9.8908    3.3004 H   0  0  0  0  0  0  0  0  0  0  0  0
   13.4393   11.4131    1.7450 H   0  0  0  0  0  0  0  0  0  0  0  0
  1  2  2  0  0  0  0
  2  3  1  0  0  0  0
  3  4  2  0  0  0  0
  3  5  1  0  0  0  0
  5  6  2  0  0  0  0
  6  7  1  0  0  0  0
  7  8  2  0  0  0  0
  8  9  1  0  0  0  0
  9 10  2  0  0  0  0
 10 11  1  0  0  0  0
 11 12  2  0  0  0  0
 12 13  1  0  0  0  0
 13 14  3  0  0  0  0
 12 15  1  0  0  0  0
 15 16  3  0  0  0  0
  8 17  1  0  0  0  0
 17 18  1  0  0  0  0
 18 19  1  0  0  0  0
 19 20  2  0  0  0  0
 20 21  1  0  0  0  0
 21 22  1  0  0  0  0
 21 23  1  0  0  0  0
  1 24  1  0  0  0  0
 24 25  2  0  0  0  0
 25 26  1  0  0  0  0
 26 27  1  0  0  0  0
 27 28  1  0  0  0  0
 28 29  1  0  0  0  0
 26 30  2  0  0  0  0
 30 31  1  0  0  0  0
 30 32  1  0  0  0  0
 32 33  2  0  0  0  0
 33 34  1  0  0  0  0
 34 35  2  0  0  0  0
 35 36  1  0  0  0  0
 36 37  2  0  0  0  0
 37 38  1  0  0  0  0
 38 39  1  0  0  0  0
 39 40  1  0  0  0  0
 38 41  2  0  0  0  0
 33 42  1  0  0  0  0
 42 43  1  0  0  0  0
 43 44  1  0  0  0  0
 44 45  1  0  0  0  0
 45 46  1  0  0  0  0
 46 47  1  0  0  0  0
 47 48  2  0  0  0  0
 48 49  1  0  0  0  0
 49 50  1  0  0  0  0
 47 51  1  0  0  0  0
 51 52  1  0  0  0  0
 52 53  1  0  0  0  0
 53 54  1  0  0  0  0
 54 55  1  0  0  0  0
 55 56  1  0  0  0  0
 56 57  2  0  0  0  0
 57 58  1  0  0  0  0
 58 59  2  0  0  0  0
 59 60  1  0  0  0  0
 60 61  1  0  0  0  0
 61 62  1  0  0  0  0
 60 63  2  0  0  0  0
 55 64  2  0  0  0  0
 64 65  1  0  0  0  0
 65 66  1  0  0  0  0
 66 67  1  0  0  0  0
 67 68  1  0  0  0  0
 68 69  1  0  0  0  0
 69 70  1  0  0  0  0
 70 71  1  0  0  0  0
 71 72  1  0  0  0  0
 72 73  1  0  0  0  0
 73 74  1  0  0  0  0
 71 75  1  0  0  0  0
 75 76  1  0  0  0  0
 68 77  1  0  0  0  0
 77 78  1  0  0  0  0
 64 79  1  0  0  0  0
 79 80  2  0  0  0  0
 80 81  1  0  0  0  0
 80 82  1  0  0  0  0
 82 83  1  0  0  0  0
 82 84  2  0  0  0  0
 84 85  1  0  0  0  0
 85 86  1  0  0  0  0
 86 87  2  0  0  0  0
 87 88  1  0  0  0  0
 88 89  1  0  0  0  0
 84 90  1  0  0  0  0
 90 91  2  0  0  0  0
 91 92  1  0  0  0  0
 92 93  2  0  0  0  0
 92 94  1  0  0  0  0
 94 95  2  0  0  0  0
 95 96  1  0  0  0  0
 96 97  2  0  0  0  0
 97 98  1  0  0  0  0
 98 99  2  0  0  0  0
 99100  1  0  0  0  0
100101  2  0  0  0  0
 11  2  1  0  0  0  0
 23 17  1  0  0  0  0
 31 24  1  0  0  0  0
 74 32  1  0  0  0  0
 86 79  1  0  0  0  0
100 91  1  0  0  0  0
 10  5  1  0  0  0  0
 22 18  1  0  0  0  0
 41 34  1  0  0  0  0
 73 42  2  0  0  0  0
 89 85  2  0  0  0  0
 99 94  1  0  0  0  0
 23  7  1  0  0  0  0
 72 44  2  0  0  0  0
 70 45  2  0  0  0  0
 50 46  2  0  0  0  0
 69 51  2  0  0  0  0
 67 52  2  0  0  0  0
 66 54  2  0  0  0  0
 63 56  1  0  0  0  0
  1102  1  0  0  0  0
  6103  1  0  0  0  0
  9104  1  0  0  0  0
 17105  1  0  0  0  0
 18106  1  0  0  0  0
 19107  1  0  0  0  0
 20108  1  0  0  0  0
 21109  1  0  0  0  0
 22110  1  0  0  0  0
 22111  1  0  0  0  0
 23112  1  0  0  0  0
 25113  1  0  0  0  0
 28114  1  0  0  0  0
 28115  1  0  0  0  0
 29116  1  0  0  0  0
 29117  1  0  0  0  0
 29118  1  0  0  0  0
 35119  1  0  0  0  0
 36120  1  0  0  0  0
 37121  1  0  0  0  0
 39122  1  0  0  0  0
 39123  1  0  0  0  0
 40124  1  0  0  0  0
 40125  1  0  0  0  0
 40126  1  0  0  0  0
 41127  1  0  0  0  0
 57128  1  0  0  0  0
 58129  1  0  0  0  0
 59130  1  0  0  0  0
 61131  1  0  0  0  0
 61132  1  0  0  0  0
 62133  1  0  0  0  0
 62134  1  0  0  0  0
 62135  1  0  0  0  0
 63136  1  0  0  0  0
 75137  1  0  0  0  0
 75138  1  0  0  0  0
 76139  1  0  0  0  0
 76140  1  0  0  0  0
 76141  1  0  0  0  0
 77142  1  0  0  0  0
 77143  1  0  0  0  0
 78144  1  0  0  0  0
 78145  1  0  0  0  0
 78146  1  0  0  0  0
 90147  1  0  0  0  0
 95148  1  0  0  0  0
 96149  1  0  0  0  0
 97150  1  0  0  0  0
 98151  1  0  0  0  0
M  END
