165

C         -4.66980       -3.35690       -9.44090
C         -5.52350       -4.04940       -8.62330
C         -5.20950       -4.52540       -7.27230
O         -4.15130       -4.41640       -6.67550
C         -6.43260       -5.16790       -6.76460
C         -6.61420       -5.75500       -5.51440
C         -7.87450       -6.26530       -5.31510
C         -8.87910       -6.20050       -6.28950
C         -8.71050       -5.63030       -7.52920
C         -7.43620       -5.09980       -7.75230
C         -6.89240       -4.41710       -8.92590
C         -7.57560       -4.17970      -10.09180
C         -8.91390       -4.55810      -10.32700
N         -9.99670       -4.83210      -10.59380
C         -7.05990       -3.53000      -11.23210
N         -6.72210       -3.01670      -12.20340
C         -9.89040       -6.88980       -5.40790
C        -10.95140       -5.98660       -4.74380
C        -11.47560       -6.82510       -3.60040
C        -10.52440       -6.88860       -2.67750
C         -9.34140       -6.09380       -3.18140
C        -10.07490       -4.99740       -3.96470
C         -8.76980       -6.96320       -4.32160
C         -3.34940       -2.93610       -9.21860
C         -2.65750       -2.16850      -10.15060
C         -1.36800       -1.82230       -9.76490
S         -0.33390       -0.69370      -10.63160
C         -0.88410       -0.88420      -12.36560
C         -0.62440       -2.27730      -12.90280
C         -1.03530       -2.34460       -8.51430
S         -2.35910       -3.22540       -7.81300
C          0.16150       -2.21620       -7.74820
C          1.49710       -2.28910       -8.09160
C          2.06720       -2.61560       -9.43390
C          1.56130       -3.95690       -9.96110
C          2.32230       -2.13430       -6.96250
Se         4.20520       -2.09550       -6.76220
C          3.83950       -1.82350       -4.95840
C          4.53410       -1.65230       -3.75270
C          5.91920       -1.68840       -3.49090
C          6.36710       -1.56260       -2.13780
N          7.68280       -1.65360       -2.02480
S          8.30470       -1.87850       -3.50590
N          6.91620       -1.86700       -4.34330
C          5.41420       -1.30410       -1.13130
C          5.59830       -0.98760        0.22080
Se         6.99210       -0.77070        1.43260
C          5.63630       -0.22320        2.63590
C          5.69020        0.22560        3.96760
C          7.00210        0.42740        4.64670
C          7.21220        1.85460        5.14670
C          4.42320        0.51110        4.44980
S          3.18090        0.27150        3.21680
C          4.35880       -0.25620        2.07250
C          4.33610       -0.67610        0.73590
N          3.38970       -0.80010       -0.24710
C          4.02140       -1.20470       -1.40750
C          3.56640       -1.48780       -2.72440
N          2.30650       -1.59080       -3.29960
C          2.47880       -1.79340       -4.64670
C          1.63840       -1.96570       -5.75720
S         -0.06760       -2.01260       -6.01240
C          1.06680       -2.04070       -2.70370
C          1.13900       -3.52710       -2.35870
C          2.06440       -0.26940       -0.03180
C          1.16520       -1.25510        0.71380
C          3.94940        1.06050        5.67270
S          2.55800        2.10750        5.56660
C          2.62930        2.49320        7.26300
C          3.66500        1.80700        7.87300
C          4.00530        1.98550        9.29320
O          3.40170        2.75620       10.02080
C          5.13890        1.17340        9.72700
C          5.67360        1.20270       10.99180
C          5.29610        2.06020       12.14440
C          5.96590        3.43370       12.03430
S          7.00110        0.10440       11.12610
C          6.82410       -0.42680        9.48600
C          7.78860       -1.40760        8.92270
C          9.04940       -0.69400        8.42490
C          5.79610        0.23490        8.86440
C          5.37750        0.00440        7.47980
O          5.76790       -0.93930        6.80700
C          4.39650        0.97240        6.98720
C          1.66440        3.33360        7.88080
C          0.94890        4.32950        7.30450
C         -0.32290        4.80310        7.92460
O         -0.70270        4.59440        9.05200
C         -1.03680        5.50650        6.84100
C         -2.33740        6.00520        6.87690
C         -2.74840        6.58420        5.70060
C         -1.93350        6.65250        4.56150
C         -0.64800        6.16940        4.51110
C         -0.20560        5.58990        5.70310
C          1.09330        5.01300        6.03350
C          2.27570        5.28830        5.39990
C          3.53860        4.91370        5.90700
N          4.58960        4.66160        6.29450
C          2.37660        6.04020        4.21220
N          2.51060        6.63160        3.23750
C         -2.99260        7.35340        3.74860
C         -2.83340        8.87690        3.52150
C         -2.02880        9.40120        4.68520
C         -2.79570        9.34360        5.76580
C         -4.13250        8.77890        5.35250
C         -4.23840        9.34840        3.92880
C         -3.89710        7.28450        5.01950
H         -5.04890       -3.06350      -10.41220
H         -5.81110       -5.78500       -4.79480
H         -9.49350       -5.59390       -8.26770
H        -10.30420       -7.81900       -5.79470
H        -11.68870       -5.57350       -5.42660
H        -12.43140       -7.31520       -3.60500
H        -10.52670       -7.44260       -1.75710
H         -8.61230       -5.77790       -2.44000
H         -9.42550       -4.38960       -4.59220
H        -10.66240       -4.35060       -3.31510
H         -8.43470       -7.94220       -3.98420
H         -3.12120       -1.85880      -11.07010
H         -0.29370       -0.14100      -12.90110
H         -1.93500       -0.60590      -12.42930
H          0.43340       -2.51960      -12.83200
H         -1.18770       -3.02190      -12.34380
H         -0.92580       -2.32980      -13.94690
H          3.15690       -2.65220       -9.32880
H          1.82150       -1.82660      -10.14670
H          2.03100       -4.18500      -10.91460
H          0.48360       -3.93330      -10.10180
H          1.79800       -4.75400       -9.26000
H          7.07650       -0.27800        5.47910
H          7.78740        0.17670        3.92400
H          7.11380        2.56150        4.32580
H          8.20950        1.95520        5.56810
H          6.48860        2.12190        5.91210
H          0.82150       -1.46300       -1.81920
H          0.27990       -1.87260       -3.44330
H          1.94340       -3.71610       -1.65000
H          0.19860       -3.85340       -1.92330
H          1.32740       -4.11300       -3.25520
H          2.16840        0.63520        0.57780
H          1.64450        0.03430       -0.99180
H          0.15450       -0.86090        0.77490
H          1.13980       -2.22290        0.22050
H          1.53720       -1.40020        1.72460
H          4.21360        2.19780       12.14440
H          5.60000        1.57670       13.07490
H          7.04850        3.33060       11.99620
H          5.70180        4.04240       12.89450
H          5.62690        3.94010       11.13460
H          7.31400       -1.93160        8.09260
H          8.06350       -2.13160        9.69240
H          8.79370        0.02370        7.64900
H          9.74730       -1.41750        8.01260
H          9.53620       -0.16510        9.24200
H          1.43840        3.11420        8.91990
H         -2.93670        5.92550        7.77030
H         -0.03100        6.21680        3.62860
H         -3.32970        6.83260        2.85450
H         -2.47960        9.15090        2.53130
H         -0.99840        9.69650        4.61520
H         -2.53420        9.58190        6.78010
H         -4.96230        8.96470        6.02920
H         -5.03570        8.89760        3.33910
H         -4.33900       10.43250        3.91550
H         -4.82720        6.72300        4.95470
