
  xtb     02112220183D
 energy: -284.971199103175 gnorm: 0.000930148995 xtb: 6.4.1 (unknown)
171192  0     0  0            999 V2000
   -8.3504   -6.0220    1.0325 C   0  0  0  0  0  0  0  0  0  0  0  0
   -8.7245   -5.1716    0.0260 C   0  0  0  0  0  0  0  0  0  0  0  0
   -7.8394   -4.2269   -0.6635 C   0  0  0  0  0  0  0  0  0  0  0  0
   -6.6367   -4.0903   -0.5113 O   0  0  0  0  0  0  0  0  0  0  0  0
   -8.6893   -3.4581   -1.5861 C   0  0  0  0  0  0  0  0  0  0  0  0
   -8.2885   -2.4237   -2.4292 C   0  0  0  0  0  0  0  0  0  0  0  0
   -9.3104   -1.8787   -3.1684 C   0  0  0  0  0  0  0  0  0  0  0  0
  -10.6328   -2.3335   -3.0801 C   0  0  0  0  0  0  0  0  0  0  0  0
  -11.0397   -3.3571   -2.2572 C   0  0  0  0  0  0  0  0  0  0  0  0
  -10.0163   -3.9233   -1.4907 C   0  0  0  0  0  0  0  0  0  0  0  0
  -10.0624   -5.0081   -0.5105 C   0  0  0  0  0  0  0  0  0  0  0  0
  -11.1789   -5.7349   -0.1864 C   0  0  0  0  0  0  0  0  0  0  0  0
  -11.2309   -6.7988    0.7385 C   0  0  0  0  0  0  0  0  0  0  0  0
  -11.3648   -7.6755    1.4689 N   0  0  0  0  0  0  0  0  0  0  0  0
  -12.4570   -5.5307   -0.7477 C   0  0  0  0  0  0  0  0  0  0  0  0
  -13.5248   -5.4236   -1.1559 N   0  0  0  0  0  0  0  0  0  0  0  0
  -11.1301   -1.3295   -4.0903 C   0  0  0  0  0  0  0  0  0  0  0  0
  -11.8791   -0.1018   -3.5302 C   0  0  0  0  0  0  0  0  0  0  0  0
  -11.8125    0.9065   -4.6545 C   0  0  0  0  0  0  0  0  0  0  0  0
  -10.5605    1.3383   -4.7358 C   0  0  0  0  0  0  0  0  0  0  0  0
   -9.7595    0.6285   -3.6682 C   0  0  0  0  0  0  0  0  0  0  0  0
  -10.8323    0.4938   -2.5798 C   0  0  0  0  0  0  0  0  0  0  0  0
   -9.6557   -0.8216   -4.1874 C   0  0  0  0  0  0  0  0  0  0  0  0
   -7.0923   -6.2184    1.6249 C   0  0  0  0  0  0  0  0  0  0  0  0
   -6.9063   -7.0552    2.7195 C   0  0  0  0  0  0  0  0  0  0  0  0
   -5.6001   -7.1090    3.1937 C   0  0  0  0  0  0  0  0  0  0  0  0
   -5.2397   -8.0252    4.6586 S   0  0  0  0  0  0  0  0  0  0  0  0
   -4.2631   -6.8289    5.6379 C   0  0  0  0  0  0  0  0  0  0  0  0
   -4.9866   -5.5118    5.8318 C   0  0  0  0  0  0  0  0  0  0  0  0
   -4.7292   -6.3384    2.4237 C   0  0  0  0  0  0  0  0  0  0  0  0
   -5.5788   -5.4749    1.1732 S   0  0  0  0  0  0  0  0  0  0  0  0
   -3.3240   -6.1368    2.5292 C   0  0  0  0  0  0  0  0  0  0  0  0
   -2.3154   -7.0084    2.9121 C   0  0  0  0  0  0  0  0  0  0  0  0
   -2.4978   -8.4380    3.1571 C   0  0  0  0  0  0  0  0  0  0  0  0
   -1.8228   -9.0730    4.1963 C   0  0  0  0  0  0  0  0  0  0  0  0
   -2.0152  -10.4232    4.4154 C   0  0  0  0  0  0  0  0  0  0  0  0
   -2.8737  -11.1482    3.6077 C   0  0  0  0  0  0  0  0  0  0  0  0
   -3.5393  -10.5350    2.5540 C   0  0  0  0  0  0  0  0  0  0  0  0
   -4.5144  -11.2932    1.7015 C   0  0  0  0  0  0  0  0  0  0  0  0
   -5.9436  -11.0251    2.1774 C   0  0  0  0  0  0  0  0  0  0  0  0
   -3.3365   -9.1824    2.3336 C   0  0  0  0  0  0  0  0  0  0  0  0
   -1.0636   -6.3603    2.9276 C   0  0  0  0  0  0  0  0  0  0  0  0
    0.5433   -6.9022    3.3533 S   0  0  0  0  0  0  0  0  0  0  0  0
    1.1526   -5.3315    2.9578 C   0  0  0  0  0  0  0  0  0  0  0  0
    2.3588   -4.6149    3.0071 C   0  0  0  0  0  0  0  0  0  0  0  0
    3.6194   -4.9441    3.5518 C   0  0  0  0  0  0  0  0  0  0  0  0
    4.6256   -3.9232    3.6369 C   0  0  0  0  0  0  0  0  0  0  0  0
    5.7262   -4.3477    4.2373 N   0  0  0  0  0  0  0  0  0  0  0  0
    5.5188   -5.8983    4.6537 S   0  0  0  0  0  0  0  0  0  0  0  0
    4.0140   -6.0886    4.0869 N   0  0  0  0  0  0  0  0  0  0  0  0
    4.3760   -2.6660    3.0436 C   0  0  0  0  0  0  0  0  0  0  0  0
    5.2059   -1.5497    2.8492 C   0  0  0  0  0  0  0  0  0  0  0  0
    6.7935   -1.0054    3.2704 S   0  0  0  0  0  0  0  0  0  0  0  0
    6.5182    0.4428    2.3294 C   0  0  0  0  0  0  0  0  0  0  0  0
    7.3121    1.5778    2.0847 C   0  0  0  0  0  0  0  0  0  0  0  0
    8.6248    1.7526    2.7112 C   0  0  0  0  0  0  0  0  0  0  0  0
    9.5637    0.7281    2.6527 C   0  0  0  0  0  0  0  0  0  0  0  0
   10.7900    0.8820    3.2732 C   0  0  0  0  0  0  0  0  0  0  0  0
   11.0883    2.0502    3.9500 C   0  0  0  0  0  0  0  0  0  0  0  0
   10.1572    3.0803    4.0284 C   0  0  0  0  0  0  0  0  0  0  0  0
   10.5063    4.3730    4.7076 C   0  0  0  0  0  0  0  0  0  0  0  0
   11.3650    5.2391    3.7827 C   0  0  0  0  0  0  0  0  0  0  0  0
    8.9254    2.9153    3.4159 C   0  0  0  0  0  0  0  0  0  0  0  0
    6.6615    2.4736    1.2458 C   0  0  0  0  0  0  0  0  0  0  0  0
    5.0483    1.9232    0.8047 S   0  0  0  0  0  0  0  0  0  0  0  0
    5.2565    0.4806    1.7286 C   0  0  0  0  0  0  0  0  0  0  0  0
    4.4998   -0.6537    2.0423 C   0  0  0  0  0  0  0  0  0  0  0  0
    3.2478   -1.1432    1.7702 N   0  0  0  0  0  0  0  0  0  0  0  0
    3.1452   -2.3803    2.3901 C   0  0  0  0  0  0  0  0  0  0  0  0
    2.0818   -3.3121    2.5045 C   0  0  0  0  0  0  0  0  0  0  0  0
    0.7319   -3.2309    2.2212 N   0  0  0  0  0  0  0  0  0  0  0  0
    0.1717   -4.4488    2.4974 C   0  0  0  0  0  0  0  0  0  0  0  0
   -1.1021   -5.0305    2.5011 C   0  0  0  0  0  0  0  0  0  0  0  0
   -2.7116   -4.5412    2.1099 S   0  0  0  0  0  0  0  0  0  0  0  0
   -0.1116   -2.0735    2.0327 C   0  0  0  0  0  0  0  0  0  0  0  0
   -0.6911   -2.0043    0.6207 C   0  0  0  0  0  0  0  0  0  0  0  0
    2.5623   -0.6645    0.5879 C   0  0  0  0  0  0  0  0  0  0  0  0
    2.8671   -1.5528   -0.6165 C   0  0  0  0  0  0  0  0  0  0  0  0
    7.1103    3.6880    0.6641 C   0  0  0  0  0  0  0  0  0  0  0  0
    8.3671    4.2679    0.7133 C   0  0  0  0  0  0  0  0  0  0  0  0
    8.4283    5.4810    0.0442 C   0  0  0  0  0  0  0  0  0  0  0  0
    9.9237    6.4169    0.0591 S   0  0  0  0  0  0  0  0  0  0  0  0
    9.4248    7.9644    0.9193 C   0  0  0  0  0  0  0  0  0  0  0  0
    8.5345    7.7104    2.1170 C   0  0  0  0  0  0  0  0  0  0  0  0
    7.2394    5.8355   -0.6175 C   0  0  0  0  0  0  0  0  0  0  0  0
    6.0052    4.6419   -0.2803 S   0  0  0  0  0  0  0  0  0  0  0  0
    7.1267    6.9277   -1.4835 C   0  0  0  0  0  0  0  0  0  0  0  0
    6.0916    7.2961   -2.3083 C   0  0  0  0  0  0  0  0  0  0  0  0
    4.8312    6.5680   -2.4874 C   0  0  0  0  0  0  0  0  0  0  0  0
    4.3995    5.6489   -1.8120 O   0  0  0  0  0  0  0  0  0  0  0  0
    4.1740    7.1614   -3.6650 C   0  0  0  0  0  0  0  0  0  0  0  0
    2.9907    6.7427   -4.2674 C   0  0  0  0  0  0  0  0  0  0  0  0
    2.6417    7.4718   -5.3790 C   0  0  0  0  0  0  0  0  0  0  0  0
    3.4165    8.5352   -5.8600 C   0  0  0  0  0  0  0  0  0  0  0  0
    4.5837    8.9616   -5.2713 C   0  0  0  0  0  0  0  0  0  0  0  0
    4.9517    8.2387   -4.1340 C   0  0  0  0  0  0  0  0  0  0  0  0
    6.1062    8.3951   -3.2504 C   0  0  0  0  0  0  0  0  0  0  0  0
    6.9817    9.4514   -3.2758 C   0  0  0  0  0  0  0  0  0  0  0  0
    8.0092    9.6691   -2.3385 C   0  0  0  0  0  0  0  0  0  0  0  0
    8.8400    9.9327   -1.5892 N   0  0  0  0  0  0  0  0  0  0  0  0
    6.9290   10.5119   -4.2032 C   0  0  0  0  0  0  0  0  0  0  0  0
    6.9497   11.4060   -4.9236 N   0  0  0  0  0  0  0  0  0  0  0  0
    2.4775    8.8051   -7.0088 C   0  0  0  0  0  0  0  0  0  0  0  0
    1.5209   10.0168   -6.8888 C   0  0  0  0  0  0  0  0  0  0  0  0
    1.3031   10.2451   -5.4137 C   0  0  0  0  0  0  0  0  0  0  0  0
    0.5671    9.2423   -4.9534 C   0  0  0  0  0  0  0  0  0  0  0  0
    0.2739    8.3178   -6.1091 C   0  0  0  0  0  0  0  0  0  0  0  0
    0.1926    9.3368   -7.2570 C   0  0  0  0  0  0  0  0  0  0  0  0
    1.6109    7.6237   -6.4695 C   0  0  0  0  0  0  0  0  0  0  0  0
   -9.1233   -6.6401    1.4728 H   0  0  0  0  0  0  0  0  0  0  0  0
   -7.2573   -2.1092   -2.4677 H   0  0  0  0  0  0  0  0  0  0  0  0
  -12.0610   -3.6946   -2.2052 H   0  0  0  0  0  0  0  0  0  0  0  0
  -11.5983   -1.7445   -4.9807 H   0  0  0  0  0  0  0  0  0  0  0  0
  -12.8629   -0.3162   -3.1222 H   0  0  0  0  0  0  0  0  0  0  0  0
  -12.6431    1.1525   -5.2896 H   0  0  0  0  0  0  0  0  0  0  0  0
  -10.1361    2.0167   -5.4526 H   0  0  0  0  0  0  0  0  0  0  0  0
   -8.8124    1.0802   -3.3853 H   0  0  0  0  0  0  0  0  0  0  0  0
  -11.1394    1.4601   -2.1831 H   0  0  0  0  0  0  0  0  0  0  0  0
  -10.5523   -0.1641   -1.7591 H   0  0  0  0  0  0  0  0  0  0  0  0
   -9.1408   -0.8955   -5.1435 H   0  0  0  0  0  0  0  0  0  0  0  0
   -7.7130   -7.5964    3.1819 H   0  0  0  0  0  0  0  0  0  0  0  0
   -3.2952   -6.6920    5.1586 H   0  0  0  0  0  0  0  0  0  0  0  0
   -4.1186   -7.3436    6.5873 H   0  0  0  0  0  0  0  0  0  0  0  0
   -5.9682   -5.6772    6.2701 H   0  0  0  0  0  0  0  0  0  0  0  0
   -5.1146   -4.9960    4.8819 H   0  0  0  0  0  0  0  0  0  0  0  0
   -4.4101   -4.8710    6.4961 H   0  0  0  0  0  0  0  0  0  0  0  0
   -1.1681   -8.5056    4.8408 H   0  0  0  0  0  0  0  0  0  0  0  0
   -1.4972  -10.9117    5.2274 H   0  0  0  0  0  0  0  0  0  0  0  0
   -3.0270  -12.2012    3.7943 H   0  0  0  0  0  0  0  0  0  0  0  0
   -4.3072  -12.3632    1.7589 H   0  0  0  0  0  0  0  0  0  0  0  0
   -4.4176  -10.9807    0.6593 H   0  0  0  0  0  0  0  0  0  0  0  0
   -6.1742   -9.9645    2.1063 H   0  0  0  0  0  0  0  0  0  0  0  0
   -6.0572  -11.3245    3.2165 H   0  0  0  0  0  0  0  0  0  0  0  0
   -6.6580  -11.5788    1.5728 H   0  0  0  0  0  0  0  0  0  0  0  0
   -3.8344   -8.6976    1.5058 H   0  0  0  0  0  0  0  0  0  0  0  0
    9.3368   -0.1773    2.1109 H   0  0  0  0  0  0  0  0  0  0  0  0
   11.5174    0.0855    3.2246 H   0  0  0  0  0  0  0  0  0  0  0  0
   12.0501    2.1658    4.4279 H   0  0  0  0  0  0  0  0  0  0  0  0
    9.5936    4.9123    4.9694 H   0  0  0  0  0  0  0  0  0  0  0  0
   11.0595    4.1725    5.6277 H   0  0  0  0  0  0  0  0  0  0  0  0
   12.3018    4.7369    3.5538 H   0  0  0  0  0  0  0  0  0  0  0  0
   10.8482    5.4276    2.8442 H   0  0  0  0  0  0  0  0  0  0  0  0
   11.5904    6.1927    4.2549 H   0  0  0  0  0  0  0  0  0  0  0  0
    8.1804    3.6955    3.4880 H   0  0  0  0  0  0  0  0  0  0  0  0
    0.4574   -1.1794    2.2906 H   0  0  0  0  0  0  0  0  0  0  0  0
   -0.9415   -2.1507    2.7447 H   0  0  0  0  0  0  0  0  0  0  0  0
   -1.2455   -1.0783    0.4957 H   0  0  0  0  0  0  0  0  0  0  0  0
    0.0888   -2.0557   -0.1337 H   0  0  0  0  0  0  0  0  0  0  0  0
   -1.3742   -2.8336    0.4583 H   0  0  0  0  0  0  0  0  0  0  0  0
    1.4898   -0.6019    0.7507 H   0  0  0  0  0  0  0  0  0  0  0  0
    2.9307    0.3478    0.4015 H   0  0  0  0  0  0  0  0  0  0  0  0
    2.3628   -1.1683   -1.4989 H   0  0  0  0  0  0  0  0  0  0  0  0
    3.9373   -1.5702   -0.8094 H   0  0  0  0  0  0  0  0  0  0  0  0
    2.5351   -2.5734   -0.4344 H   0  0  0  0  0  0  0  0  0  0  0  0
    9.2149    3.8407    1.2145 H   0  0  0  0  0  0  0  0  0  0  0  0
    8.9611    8.6404    0.2030 H   0  0  0  0  0  0  0  0  0  0  0  0
   10.3823    8.3857    1.2236 H   0  0  0  0  0  0  0  0  0  0  0  0
    7.5683    7.3146    1.8092 H   0  0  0  0  0  0  0  0  0  0  0  0
    8.9978    7.0038    2.8021 H   0  0  0  0  0  0  0  0  0  0  0  0
    8.3677    8.6478    2.6438 H   0  0  0  0  0  0  0  0  0  0  0  0
    8.0357    7.5134   -1.5554 H   0  0  0  0  0  0  0  0  0  0  0  0
    2.4293    5.9121   -3.8688 H   0  0  0  0  0  0  0  0  0  0  0  0
    5.1716    9.7771   -5.6581 H   0  0  0  0  0  0  0  0  0  0  0  0
    2.9045    8.7101   -8.0052 H   0  0  0  0  0  0  0  0  0  0  0  0
    1.8178   10.8854   -7.4703 H   0  0  0  0  0  0  0  0  0  0  0  0
    1.7418   11.0561   -4.8626 H   0  0  0  0  0  0  0  0  0  0  0  0
    0.2681    9.0476   -3.9400 H   0  0  0  0  0  0  0  0  0  0  0  0
   -0.5663    7.6402   -5.9808 H   0  0  0  0  0  0  0  0  0  0  0  0
   -0.6621   10.0055   -7.1670 H   0  0  0  0  0  0  0  0  0  0  0  0
    0.1990    8.8787   -8.2452 H   0  0  0  0  0  0  0  0  0  0  0  0
    1.4682    6.7595   -7.1157 H   0  0  0  0  0  0  0  0  0  0  0  0
  1  2  2  0  0  0  0
  2  3  1  0  0  0  0
  3  4  2  0  0  0  0
  3  5  1  0  0  0  0
  5  6  2  0  0  0  0
  6  7  1  0  0  0  0
  7  8  2  0  0  0  0
  8  9  1  0  0  0  0
  9 10  2  0  0  0  0
 10 11  1  0  0  0  0
 11 12  2  0  0  0  0
 12 13  1  0  0  0  0
 13 14  3  0  0  0  0
 12 15  1  0  0  0  0
 15 16  3  0  0  0  0
  8 17  1  0  0  0  0
 17 18  1  0  0  0  0
 18 19  1  0  0  0  0
 19 20  2  0  0  0  0
 20 21  1  0  0  0  0
 21 22  1  0  0  0  0
 21 23  1  0  0  0  0
  1 24  1  0  0  0  0
 24 25  2  0  0  0  0
 25 26  1  0  0  0  0
 26 27  1  0  0  0  0
 27 28  1  0  0  0  0
 28 29  1  0  0  0  0
 26 30  2  0  0  0  0
 30 31  1  0  0  0  0
 30 32  1  0  0  0  0
 32 33  2  0  0  0  0
 33 34  1  0  0  0  0
 34 35  2  0  0  0  0
 35 36  1  0  0  0  0
 36 37  2  0  0  0  0
 37 38  1  0  0  0  0
 38 39  1  0  0  0  0
 39 40  1  0  0  0  0
 38 41  2  0  0  0  0
 33 42  1  0  0  0  0
 42 43  1  0  0  0  0
 43 44  1  0  0  0  0
 44 45  1  0  0  0  0
 45 46  1  0  0  0  0
 46 47  1  0  0  0  0
 47 48  2  0  0  0  0
 48 49  1  0  0  0  0
 49 50  1  0  0  0  0
 47 51  1  0  0  0  0
 51 52  1  0  0  0  0
 52 53  1  0  0  0  0
 53 54  1  0  0  0  0
 54 55  1  0  0  0  0
 55 56  1  0  0  0  0
 56 57  2  0  0  0  0
 57 58  1  0  0  0  0
 58 59  2  0  0  0  0
 59 60  1  0  0  0  0
 60 61  1  0  0  0  0
 61 62  1  0  0  0  0
 60 63  2  0  0  0  0
 55 64  2  0  0  0  0
 64 65  1  0  0  0  0
 65 66  1  0  0  0  0
 66 67  1  0  0  0  0
 67 68  1  0  0  0  0
 68 69  1  0  0  0  0
 69 70  1  0  0  0  0
 70 71  1  0  0  0  0
 71 72  1  0  0  0  0
 72 73  1  0  0  0  0
 73 74  1  0  0  0  0
 71 75  1  0  0  0  0
 75 76  1  0  0  0  0
 68 77  1  0  0  0  0
 77 78  1  0  0  0  0
 64 79  1  0  0  0  0
 79 80  2  0  0  0  0
 80 81  1  0  0  0  0
 81 82  1  0  0  0  0
 82 83  1  0  0  0  0
 83 84  1  0  0  0  0
 81 85  2  0  0  0  0
 85 86  1  0  0  0  0
 85 87  1  0  0  0  0
 87 88  2  0  0  0  0
 88 89  1  0  0  0  0
 89 90  2  0  0  0  0
 89 91  1  0  0  0  0
 91 92  2  0  0  0  0
 92 93  1  0  0  0  0
 93 94  2  0  0  0  0
 94 95  1  0  0  0  0
 95 96  2  0  0  0  0
 96 97  1  0  0  0  0
 97 98  2  0  0  0  0
 98 99  1  0  0  0  0
 99100  3  0  0  0  0
 98101  1  0  0  0  0
101102  3  0  0  0  0
 94103  1  0  0  0  0
103104  1  0  0  0  0
104105  1  0  0  0  0
105106  2  0  0  0  0
106107  1  0  0  0  0
107108  1  0  0  0  0
107109  1  0  0  0  0
 11  2  1  0  0  0  0
 23 17  1  0  0  0  0
 31 24  1  0  0  0  0
 74 32  1  0  0  0  0
 86 79  1  0  0  0  0
 97 88  1  0  0  0  0
109103  1  0  0  0  0
 10  5  1  0  0  0  0
 22 18  1  0  0  0  0
 41 34  1  0  0  0  0
 73 42  2  0  0  0  0
 96 91  1  0  0  0  0
108104  1  0  0  0  0
 23  7  1  0  0  0  0
 72 44  2  0  0  0  0
109 93  1  0  0  0  0
 70 45  2  0  0  0  0
 50 46  2  0  0  0  0
 69 51  2  0  0  0  0
 67 52  2  0  0  0  0
 66 54  2  0  0  0  0
 63 56  1  0  0  0  0
  1110  1  0  0  0  0
  6111  1  0  0  0  0
  9112  1  0  0  0  0
 17113  1  0  0  0  0
 18114  1  0  0  0  0
 19115  1  0  0  0  0
 20116  1  0  0  0  0
 21117  1  0  0  0  0
 22118  1  0  0  0  0
 22119  1  0  0  0  0
 23120  1  0  0  0  0
 25121  1  0  0  0  0
 28122  1  0  0  0  0
 28123  1  0  0  0  0
 29124  1  0  0  0  0
 29125  1  0  0  0  0
 29126  1  0  0  0  0
 35127  1  0  0  0  0
 36128  1  0  0  0  0
 37129  1  0  0  0  0
 39130  1  0  0  0  0
 39131  1  0  0  0  0
 40132  1  0  0  0  0
 40133  1  0  0  0  0
 40134  1  0  0  0  0
 41135  1  0  0  0  0
 57136  1  0  0  0  0
 58137  1  0  0  0  0
 59138  1  0  0  0  0
 61139  1  0  0  0  0
 61140  1  0  0  0  0
 62141  1  0  0  0  0
 62142  1  0  0  0  0
 62143  1  0  0  0  0
 63144  1  0  0  0  0
 75145  1  0  0  0  0
 75146  1  0  0  0  0
 76147  1  0  0  0  0
 76148  1  0  0  0  0
 76149  1  0  0  0  0
 77150  1  0  0  0  0
 77151  1  0  0  0  0
 78152  1  0  0  0  0
 78153  1  0  0  0  0
 78154  1  0  0  0  0
 80155  1  0  0  0  0
 83156  1  0  0  0  0
 83157  1  0  0  0  0
 84158  1  0  0  0  0
 84159  1  0  0  0  0
 84160  1  0  0  0  0
 87161  1  0  0  0  0
 92162  1  0  0  0  0
 95163  1  0  0  0  0
103164  1  0  0  0  0
104165  1  0  0  0  0
105166  1  0  0  0  0
106167  1  0  0  0  0
107168  1  0  0  0  0
108169  1  0  0  0  0
108170  1  0  0  0  0
109171  1  0  0  0  0
M  END
