
  xtb     02132208053D
 energy: -332.811045356626 gnorm: 0.000216270112 xtb: 6.4.1 (unknown)
192213  0     0  0            999 V2000
    4.4175   -4.6421  -10.3565 C   0  0  0  0  0  0  0  0  0  0  0  0
    3.7061   -3.7407  -11.1054 C   0  0  0  0  0  0  0  0  0  0  0  0
    2.5673   -2.9502  -10.6290 C   0  0  0  0  0  0  0  0  0  0  0  0
    2.0655   -2.9705   -9.5170 O   0  0  0  0  0  0  0  0  0  0  0  0
    2.1398   -2.1132  -11.7618 C   0  0  0  0  0  0  0  0  0  0  0  0
    1.0961   -1.1915  -11.7773 C   0  0  0  0  0  0  0  0  0  0  0  0
    0.9391   -0.5454  -12.9801 C   0  0  0  0  0  0  0  0  0  0  0  0
    1.7568   -0.8025  -14.0881 C   0  0  0  0  0  0  0  0  0  0  0  0
    2.7865   -1.7137  -14.0871 C   0  0  0  0  0  0  0  0  0  0  0  0
    2.9686   -2.3778  -12.8712 C   0  0  0  0  0  0  0  0  0  0  0  0
    3.9531   -3.3900  -12.4891 C   0  0  0  0  0  0  0  0  0  0  0  0
    4.9305   -3.8937  -13.3102 C   0  0  0  0  0  0  0  0  0  0  0  0
    5.8878   -4.8654  -12.9533 C   0  0  0  0  0  0  0  0  0  0  0  0
    6.7038   -5.6489  -12.7491 N   0  0  0  0  0  0  0  0  0  0  0  0
    5.1279   -3.5062  -14.6519 C   0  0  0  0  0  0  0  0  0  0  0  0
    5.3553   -3.2431  -15.7465 N   0  0  0  0  0  0  0  0  0  0  0  0
    1.0453    0.2106  -14.9491 C   0  0  0  0  0  0  0  0  0  0  0  0
    1.7441    1.5728  -15.1842 C   0  0  0  0  0  0  0  0  0  0  0  0
    2.6413    1.8061  -13.9941 C   0  0  0  0  0  0  0  0  0  0  0  0
    1.8673    2.0503  -12.9451 C   0  0  0  0  0  0  0  0  0  0  0  0
    0.4324    1.9862  -13.4070 C   0  0  0  0  0  0  0  0  0  0  0  0
    0.5851    2.5218  -14.8396 C   0  0  0  0  0  0  0  0  0  0  0  0
    0.1341    0.4976  -13.7142 C   0  0  0  0  0  0  0  0  0  0  0  0
    4.2644   -5.0210   -9.0148 C   0  0  0  0  0  0  0  0  0  0  0  0
    5.1236   -5.9323   -8.4048 C   0  0  0  0  0  0  0  0  0  0  0  0
    4.8540   -6.1693   -7.0636 C   0  0  0  0  0  0  0  0  0  0  0  0
    5.8362   -7.1596   -5.9940 S   0  0  0  0  0  0  0  0  0  0  0  0
    7.4892   -7.0531   -6.7766 C   0  0  0  0  0  0  0  0  0  0  0  0
    8.0427   -5.6422   -6.7854 C   0  0  0  0  0  0  0  0  0  0  0  0
    3.7328   -5.4585   -6.6238 C   0  0  0  0  0  0  0  0  0  0  0  0
    3.0615   -4.4652   -7.8804 S   0  0  0  0  0  0  0  0  0  0  0  0
    3.1535   -5.4110   -5.3265 C   0  0  0  0  0  0  0  0  0  0  0  0
    3.0306   -6.3958   -4.3578 C   0  0  0  0  0  0  0  0  0  0  0  0
    3.3130   -7.8127   -4.5671 C   0  0  0  0  0  0  0  0  0  0  0  0
    3.8723   -8.5842   -3.5513 C   0  0  0  0  0  0  0  0  0  0  0  0
    4.1320   -9.9229   -3.7679 C   0  0  0  0  0  0  0  0  0  0  0  0
    3.8426  -10.5045   -4.9904 C   0  0  0  0  0  0  0  0  0  0  0  0
    3.2673   -9.7558   -6.0086 C   0  0  0  0  0  0  0  0  0  0  0  0
    3.0028  -10.3526   -7.3609 C   0  0  0  0  0  0  0  0  0  0  0  0
    4.1281   -9.9750   -8.3265 C   0  0  0  0  0  0  0  0  0  0  0  0
    2.9961   -8.4161   -5.7813 C   0  0  0  0  0  0  0  0  0  0  0  0
    2.4709   -5.8736   -3.1739 C   0  0  0  0  0  0  0  0  0  0  0  0
    2.0833   -6.5940   -1.6288 S   0  0  0  0  0  0  0  0  0  0  0  0
    1.4719   -5.0663   -1.0939 C   0  0  0  0  0  0  0  0  0  0  0  0
    0.8745   -4.4949    0.0415 C   0  0  0  0  0  0  0  0  0  0  0  0
    0.4564   -5.0728    1.2597 C   0  0  0  0  0  0  0  0  0  0  0  0
   -0.2306   -4.2541    2.2174 C   0  0  0  0  0  0  0  0  0  0  0  0
   -0.6084   -4.9359    3.2875 N   0  0  0  0  0  0  0  0  0  0  0  0
   -0.1370   -6.4748    3.1069 S   0  0  0  0  0  0  0  0  0  0  0  0
    0.5680   -6.3307    1.6568 N   0  0  0  0  0  0  0  0  0  0  0  0
   -0.3628   -2.8723    1.9611 C   0  0  0  0  0  0  0  0  0  0  0  0
   -0.8327   -1.8249    2.7686 C   0  0  0  0  0  0  0  0  0  0  0  0
   -1.5265   -1.5838    4.3360 S   0  0  0  0  0  0  0  0  0  0  0  0
   -1.4590    0.1448    4.0782 C   0  0  0  0  0  0  0  0  0  0  0  0
   -1.8452    1.2463    4.8678 C   0  0  0  0  0  0  0  0  0  0  0  0
   -2.5010    1.1240    6.1689 C   0  0  0  0  0  0  0  0  0  0  0  0
   -2.0891    0.1470    7.0705 C   0  0  0  0  0  0  0  0  0  0  0  0
   -2.6939    0.0503    8.3087 C   0  0  0  0  0  0  0  0  0  0  0  0
   -3.7033    0.9250    8.6648 C   0  0  0  0  0  0  0  0  0  0  0  0
   -4.1454    1.8914    7.7684 C   0  0  0  0  0  0  0  0  0  0  0  0
   -5.2741    2.8143    8.1302 C   0  0  0  0  0  0  0  0  0  0  0  0
   -6.6216    2.1714    7.7970 C   0  0  0  0  0  0  0  0  0  0  0  0
   -3.5541    1.9661    6.5187 C   0  0  0  0  0  0  0  0  0  0  0  0
   -1.5928    2.4395    4.2086 C   0  0  0  0  0  0  0  0  0  0  0  0
   -0.9202    2.2012    2.6081 S   0  0  0  0  0  0  0  0  0  0  0  0
   -0.9357    0.4920    2.8294 C   0  0  0  0  0  0  0  0  0  0  0  0
   -0.5827   -0.6358    2.0788 C   0  0  0  0  0  0  0  0  0  0  0  0
    0.0010   -0.9096    0.8717 N   0  0  0  0  0  0  0  0  0  0  0  0
    0.1302   -2.2809    0.7617 C   0  0  0  0  0  0  0  0  0  0  0  0
    0.6455   -3.1226   -0.2583 C   0  0  0  0  0  0  0  0  0  0  0  0
    1.0632   -2.8799   -1.5610 N   0  0  0  0  0  0  0  0  0  0  0  0
    1.5586   -4.0599   -2.0571 C   0  0  0  0  0  0  0  0  0  0  0  0
    2.1268   -4.5218   -3.2503 C   0  0  0  0  0  0  0  0  0  0  0  0
    2.5073   -3.8618   -4.7996 S   0  0  0  0  0  0  0  0  0  0  0  0
    0.5621   -1.9113   -2.5141 C   0  0  0  0  0  0  0  0  0  0  0  0
   -0.8955   -2.1993   -2.8684 C   0  0  0  0  0  0  0  0  0  0  0  0
    0.6101    0.1595    0.1157 C   0  0  0  0  0  0  0  0  0  0  0  0
   -0.4173    0.9386   -0.7049 C   0  0  0  0  0  0  0  0  0  0  0  0
   -1.7709    3.7815    4.6993 C   0  0  0  0  0  0  0  0  0  0  0  0
   -2.2314    4.8172    3.8974 C   0  0  0  0  0  0  0  0  0  0  0  0
   -2.4688    4.5963    2.5911 F   0  0  0  0  0  0  0  0  0  0  0  0
   -2.5157    6.0904    4.3990 C   0  0  0  0  0  0  0  0  0  0  0  0
   -2.9196    7.0266    3.5304 F   0  0  0  0  0  0  0  0  0  0  0  0
   -2.3234    6.4093    5.7339 C   0  0  0  0  0  0  0  0  0  0  0  0
   -1.7232    5.4092    6.5517 C   0  0  0  0  0  0  0  0  0  0  0  0
   -1.3811    5.7295    7.8062 N   0  0  0  0  0  0  0  0  0  0  0  0
   -0.8484    4.8179    8.5879 C   0  0  0  0  0  0  0  0  0  0  0  0
   -0.3764    5.3035    9.8860 C   0  0  0  0  0  0  0  0  0  0  0  0
    0.7979    4.8286   10.4710 C   0  0  0  0  0  0  0  0  0  0  0  0
    1.2372    5.3910   11.6519 C   0  0  0  0  0  0  0  0  0  0  0  0
    0.5383    6.4187   12.2650 C   0  0  0  0  0  0  0  0  0  0  0  0
   -0.6307    6.9052   11.6844 C   0  0  0  0  0  0  0  0  0  0  0  0
   -1.4178    7.8891   12.1891 O   0  0  0  0  0  0  0  0  0  0  0  0
   -0.9115    8.7496   13.1914 C   0  0  0  0  0  0  0  0  0  0  0  0
    0.1614    9.6925   12.6566 C   0  0  0  0  0  0  0  0  0  0  0  0
   -1.0751    6.3379   10.4926 C   0  0  0  0  0  0  0  0  0  0  0  0
   -0.6967    3.4747    8.1179 C   0  0  0  0  0  0  0  0  0  0  0  0
   -0.9487    3.1769    6.8651 N   0  0  0  0  0  0  0  0  0  0  0  0
   -1.4640    4.1107    6.0530 C   0  0  0  0  0  0  0  0  0  0  0  0
   -0.3162    2.3524    8.9789 C   0  0  0  0  0  0  0  0  0  0  0  0
    0.5319    1.3596    8.4925 C   0  0  0  0  0  0  0  0  0  0  0  0
    0.8356    0.2766    9.2903 C   0  0  0  0  0  0  0  0  0  0  0  0
    0.2867    0.1462   10.5561 C   0  0  0  0  0  0  0  0  0  0  0  0
   -0.5825    1.1206   11.0391 C   0  0  0  0  0  0  0  0  0  0  0  0
   -1.1892    1.1111   12.2554 O   0  0  0  0  0  0  0  0  0  0  0  0
   -1.1039   -0.0355   13.0785 C   0  0  0  0  0  0  0  0  0  0  0  0
   -1.9830   -1.1803   12.5835 C   0  0  0  0  0  0  0  0  0  0  0  0
   -0.8702    2.2283   10.2436 C   0  0  0  0  0  0  0  0  0  0  0  0
   -2.6090    7.6840    6.3338 C   0  0  0  0  0  0  0  0  0  0  0  0
   -3.6965    8.4537    6.0884 C   0  0  0  0  0  0  0  0  0  0  0  0
   -4.9024    8.0077    5.3362 C   0  0  0  0  0  0  0  0  0  0  0  0
   -5.1550    6.8940    4.9401 O   0  0  0  0  0  0  0  0  0  0  0  0
   -5.7927    9.1876    5.2932 C   0  0  0  0  0  0  0  0  0  0  0  0
   -7.0104    9.3135    4.6557 C   0  0  0  0  0  0  0  0  0  0  0  0
   -7.6498   10.5387    4.7654 C   0  0  0  0  0  0  0  0  0  0  0  0
   -8.8333   10.7137    4.1555 F   0  0  0  0  0  0  0  0  0  0  0  0
   -7.1107   11.5967    5.4838 C   0  0  0  0  0  0  0  0  0  0  0  0
   -5.8923   11.4530    6.1281 C   0  0  0  0  0  0  0  0  0  0  0  0
   -5.2246   10.2386    6.0352 C   0  0  0  0  0  0  0  0  0  0  0  0
   -3.9507    9.7942    6.5952 C   0  0  0  0  0  0  0  0  0  0  0  0
   -3.1580   10.5151    7.4455 C   0  0  0  0  0  0  0  0  0  0  0  0
   -3.4656   11.8157    7.9016 C   0  0  0  0  0  0  0  0  0  0  0  0
   -3.6539   12.8711    8.3114 N   0  0  0  0  0  0  0  0  0  0  0  0
   -1.9411   10.0814    8.0178 C   0  0  0  0  0  0  0  0  0  0  0  0
   -0.9492    9.8282    8.5374 N   0  0  0  0  0  0  0  0  0  0  0  0
    5.2382   -5.1502  -10.8479 H   0  0  0  0  0  0  0  0  0  0  0  0
    0.4894   -1.0269  -10.9006 H   0  0  0  0  0  0  0  0  0  0  0  0
    3.4034   -1.8993  -14.9502 H   0  0  0  0  0  0  0  0  0  0  0  0
    0.5755   -0.1755  -15.8514 H   0  0  0  0  0  0  0  0  0  0  0  0
    2.2063    1.6799  -16.1618 H   0  0  0  0  0  0  0  0  0  0  0  0
    3.7114    1.7157  -14.0244 H   0  0  0  0  0  0  0  0  0  0  0  0
    2.1615    2.2043  -11.9234 H   0  0  0  0  0  0  0  0  0  0  0  0
   -0.3002    2.4708  -12.7668 H   0  0  0  0  0  0  0  0  0  0  0  0
    0.8769    3.5706  -14.8682 H   0  0  0  0  0  0  0  0  0  0  0  0
   -0.2991    2.3689  -15.4567 H   0  0  0  0  0  0  0  0  0  0  0  0
   -0.9316    0.2990  -13.8100 H   0  0  0  0  0  0  0  0  0  0  0  0
    5.9283   -6.3899   -8.9523 H   0  0  0  0  0  0  0  0  0  0  0  0
    8.0989   -7.7075   -6.1537 H   0  0  0  0  0  0  0  0  0  0  0  0
    7.4307   -7.4810   -7.7761 H   0  0  0  0  0  0  0  0  0  0  0  0
    7.4165   -4.9816   -7.3816 H   0  0  0  0  0  0  0  0  0  0  0  0
    8.0907   -5.2501   -5.7721 H   0  0  0  0  0  0  0  0  0  0  0  0
    9.0452   -5.6423   -7.2084 H   0  0  0  0  0  0  0  0  0  0  0  0
    4.1253   -8.1273   -2.6072 H   0  0  0  0  0  0  0  0  0  0  0  0
    4.5723  -10.5164   -2.9805 H   0  0  0  0  0  0  0  0  0  0  0  0
    4.0622  -11.5496   -5.1552 H   0  0  0  0  0  0  0  0  0  0  0  0
    2.9397  -11.4395   -7.2844 H   0  0  0  0  0  0  0  0  0  0  0  0
    2.0536   -9.9805   -7.7525 H   0  0  0  0  0  0  0  0  0  0  0  0
    4.1859   -8.8939   -8.4338 H   0  0  0  0  0  0  0  0  0  0  0  0
    3.9549  -10.4129   -9.3068 H   0  0  0  0  0  0  0  0  0  0  0  0
    5.0833  -10.3322   -7.9480 H   0  0  0  0  0  0  0  0  0  0  0  0
    2.5253   -7.8303   -6.5582 H   0  0  0  0  0  0  0  0  0  0  0  0
   -1.2777   -0.5155    6.8139 H   0  0  0  0  0  0  0  0  0  0  0  0
   -2.3628   -0.7045    9.0062 H   0  0  0  0  0  0  0  0  0  0  0  0
   -4.1542    0.8608    9.6445 H   0  0  0  0  0  0  0  0  0  0  0  0
   -5.2359    3.0401    9.1982 H   0  0  0  0  0  0  0  0  0  0  0  0
   -5.1765    3.7522    7.5788 H   0  0  0  0  0  0  0  0  0  0  0  0
   -6.7412    1.2382    8.3431 H   0  0  0  0  0  0  0  0  0  0  0  0
   -6.6827    1.9555    6.7329 H   0  0  0  0  0  0  0  0  0  0  0  0
   -7.4378    2.8387    8.0635 H   0  0  0  0  0  0  0  0  0  0  0  0
   -3.9107    2.6988    5.8079 H   0  0  0  0  0  0  0  0  0  0  0  0
    1.1835   -2.0026   -3.4087 H   0  0  0  0  0  0  0  0  0  0  0  0
    0.6625   -0.8977   -2.1407 H   0  0  0  0  0  0  0  0  0  0  0  0
   -0.9908   -3.1969   -3.2908 H   0  0  0  0  0  0  0  0  0  0  0  0
   -1.2488   -1.4781   -3.6003 H   0  0  0  0  0  0  0  0  0  0  0  0
   -1.5231   -2.1410   -1.9811 H   0  0  0  0  0  0  0  0  0  0  0  0
    1.4091   -0.2544   -0.5007 H   0  0  0  0  0  0  0  0  0  0  0  0
    1.0735    0.8460    0.8333 H   0  0  0  0  0  0  0  0  0  0  0  0
   -1.0967    1.4669   -0.0414 H   0  0  0  0  0  0  0  0  0  0  0  0
    0.0867    1.6712   -1.3293 H   0  0  0  0  0  0  0  0  0  0  0  0
   -1.0060    0.2788   -1.3364 H   0  0  0  0  0  0  0  0  0  0  0  0
    1.3714    4.0511    9.9913 H   0  0  0  0  0  0  0  0  0  0  0  0
    2.1484    5.0316   12.1071 H   0  0  0  0  0  0  0  0  0  0  0  0
    0.9162    6.8294   13.1880 H   0  0  0  0  0  0  0  0  0  0  0  0
   -0.5397    8.1755   14.0497 H   0  0  0  0  0  0  0  0  0  0  0  0
   -1.7846    9.3223   13.5158 H   0  0  0  0  0  0  0  0  0  0  0  0
    0.4462   10.4021   13.4285 H   0  0  0  0  0  0  0  0  0  0  0  0
   -0.2248   10.2352   11.7974 H   0  0  0  0  0  0  0  0  0  0  0  0
    1.0423    9.1387   12.3411 H   0  0  0  0  0  0  0  0  0  0  0  0
   -1.9746    6.7198   10.0383 H   0  0  0  0  0  0  0  0  0  0  0  0
    0.9422    1.4568    7.5002 H   0  0  0  0  0  0  0  0  0  0  0  0
    1.5024   -0.4910    8.9260 H   0  0  0  0  0  0  0  0  0  0  0  0
    0.5440   -0.7175   11.1489 H   0  0  0  0  0  0  0  0  0  0  0  0
   -1.4580    0.3086   14.0542 H   0  0  0  0  0  0  0  0  0  0  0  0
   -0.0619   -0.3607   13.1874 H   0  0  0  0  0  0  0  0  0  0  0  0
   -1.9371   -2.0083   13.2854 H   0  0  0  0  0  0  0  0  0  0  0  0
   -3.0133   -0.8433   12.5014 H   0  0  0  0  0  0  0  0  0  0  0  0
   -1.6566   -1.5279   11.6064 H   0  0  0  0  0  0  0  0  0  0  0  0
   -1.5511    2.9711   10.6279 H   0  0  0  0  0  0  0  0  0  0  0  0
   -1.8874    7.9837    7.0831 H   0  0  0  0  0  0  0  0  0  0  0  0
   -7.4393    8.4996    4.0933 H   0  0  0  0  0  0  0  0  0  0  0  0
   -7.6530   12.5277    5.5333 H   0  0  0  0  0  0  0  0  0  0  0  0
   -5.4851   12.2810    6.6845 H   0  0  0  0  0  0  0  0  0  0  0  0
  1  2  2  0  0  0  0
  2  3  1  0  0  0  0
  3  4  2  0  0  0  0
  3  5  1  0  0  0  0
  5  6  2  0  0  0  0
  6  7  1  0  0  0  0
  7  8  2  0  0  0  0
  8  9  1  0  0  0  0
  9 10  2  0  0  0  0
 10 11  1  0  0  0  0
 11 12  2  0  0  0  0
 12 13  1  0  0  0  0
 13 14  3  0  0  0  0
 12 15  1  0  0  0  0
 15 16  3  0  0  0  0
  8 17  1  0  0  0  0
 17 18  1  0  0  0  0
 18 19  1  0  0  0  0
 19 20  2  0  0  0  0
 20 21  1  0  0  0  0
 21 22  1  0  0  0  0
 21 23  1  0  0  0  0
  1 24  1  0  0  0  0
 24 25  2  0  0  0  0
 25 26  1  0  0  0  0
 26 27  1  0  0  0  0
 27 28  1  0  0  0  0
 28 29  1  0  0  0  0
 26 30  2  0  0  0  0
 30 31  1  0  0  0  0
 30 32  1  0  0  0  0
 32 33  2  0  0  0  0
 33 34  1  0  0  0  0
 34 35  2  0  0  0  0
 35 36  1  0  0  0  0
 36 37  2  0  0  0  0
 37 38  1  0  0  0  0
 38 39  1  0  0  0  0
 39 40  1  0  0  0  0
 38 41  2  0  0  0  0
 33 42  1  0  0  0  0
 42 43  1  0  0  0  0
 43 44  1  0  0  0  0
 44 45  1  0  0  0  0
 45 46  1  0  0  0  0
 46 47  1  0  0  0  0
 47 48  2  0  0  0  0
 48 49  1  0  0  0  0
 49 50  1  0  0  0  0
 47 51  1  0  0  0  0
 51 52  1  0  0  0  0
 52 53  1  0  0  0  0
 53 54  1  0  0  0  0
 54 55  1  0  0  0  0
 55 56  1  0  0  0  0
 56 57  2  0  0  0  0
 57 58  1  0  0  0  0
 58 59  2  0  0  0  0
 59 60  1  0  0  0  0
 60 61  1  0  0  0  0
 61 62  1  0  0  0  0
 60 63  2  0  0  0  0
 55 64  2  0  0  0  0
 64 65  1  0  0  0  0
 65 66  1  0  0  0  0
 66 67  1  0  0  0  0
 67 68  1  0  0  0  0
 68 69  1  0  0  0  0
 69 70  1  0  0  0  0
 70 71  1  0  0  0  0
 71 72  1  0  0  0  0
 72 73  1  0  0  0  0
 73 74  1  0  0  0  0
 71 75  1  0  0  0  0
 75 76  1  0  0  0  0
 68 77  1  0  0  0  0
 77 78  1  0  0  0  0
 64 79  1  0  0  0  0
 79 80  2  0  0  0  0
 80 81  1  0  0  0  0
 80 82  1  0  0  0  0
 82 83  1  0  0  0  0
 82 84  2  0  0  0  0
 84 85  1  0  0  0  0
 85 86  2  0  0  0  0
 86 87  1  0  0  0  0
 87 88  1  0  0  0  0
 88 89  2  0  0  0  0
 89 90  1  0  0  0  0
 90 91  2  0  0  0  0
 91 92  1  0  0  0  0
 92 93  1  0  0  0  0
 93 94  1  0  0  0  0
 94 95  1  0  0  0  0
 92 96  2  0  0  0  0
 87 97  2  0  0  0  0
 97 98  1  0  0  0  0
 98 99  2  0  0  0  0
 97100  1  0  0  0  0
100101  2  0  0  0  0
101102  1  0  0  0  0
102103  2  0  0  0  0
103104  1  0  0  0  0
104105  1  0  0  0  0
105106  1  0  0  0  0
106107  1  0  0  0  0
104108  2  0  0  0  0
 84109  1  0  0  0  0
109110  2  0  0  0  0
110111  1  0  0  0  0
111112  2  0  0  0  0
111113  1  0  0  0  0
113114  2  0  0  0  0
114115  1  0  0  0  0
115116  1  0  0  0  0
115117  2  0  0  0  0
117118  1  0  0  0  0
118119  2  0  0  0  0
119120  1  0  0  0  0
120121  2  0  0  0  0
121122  1  0  0  0  0
122123  3  0  0  0  0
121124  1  0  0  0  0
124125  3  0  0  0  0
 11  2  1  0  0  0  0
 23 17  1  0  0  0  0
 31 24  1  0  0  0  0
 74 32  1  0  0  0  0
 99 79  1  0  0  0  0
108100  1  0  0  0  0
120110  1  0  0  0  0
 10  5  1  0  0  0  0
 22 18  1  0  0  0  0
 41 34  1  0  0  0  0
 73 42  2  0  0  0  0
 99 85  1  0  0  0  0
119113  1  0  0  0  0
 23  7  1  0  0  0  0
 72 44  2  0  0  0  0
 96 88  1  0  0  0  0
 70 45  2  0  0  0  0
 50 46  2  0  0  0  0
 69 51  2  0  0  0  0
 67 52  2  0  0  0  0
 66 54  2  0  0  0  0
 63 56  1  0  0  0  0
  1126  1  0  0  0  0
  6127  1  0  0  0  0
  9128  1  0  0  0  0
 17129  1  0  0  0  0
 18130  1  0  0  0  0
 19131  1  0  0  0  0
 20132  1  0  0  0  0
 21133  1  0  0  0  0
 22134  1  0  0  0  0
 22135  1  0  0  0  0
 23136  1  0  0  0  0
 25137  1  0  0  0  0
 28138  1  0  0  0  0
 28139  1  0  0  0  0
 29140  1  0  0  0  0
 29141  1  0  0  0  0
 29142  1  0  0  0  0
 35143  1  0  0  0  0
 36144  1  0  0  0  0
 37145  1  0  0  0  0
 39146  1  0  0  0  0
 39147  1  0  0  0  0
 40148  1  0  0  0  0
 40149  1  0  0  0  0
 40150  1  0  0  0  0
 41151  1  0  0  0  0
 57152  1  0  0  0  0
 58153  1  0  0  0  0
 59154  1  0  0  0  0
 61155  1  0  0  0  0
 61156  1  0  0  0  0
 62157  1  0  0  0  0
 62158  1  0  0  0  0
 62159  1  0  0  0  0
 63160  1  0  0  0  0
 75161  1  0  0  0  0
 75162  1  0  0  0  0
 76163  1  0  0  0  0
 76164  1  0  0  0  0
 76165  1  0  0  0  0
 77166  1  0  0  0  0
 77167  1  0  0  0  0
 78168  1  0  0  0  0
 78169  1  0  0  0  0
 78170  1  0  0  0  0
 89171  1  0  0  0  0
 90172  1  0  0  0  0
 91173  1  0  0  0  0
 94174  1  0  0  0  0
 94175  1  0  0  0  0
 95176  1  0  0  0  0
 95177  1  0  0  0  0
 95178  1  0  0  0  0
 96179  1  0  0  0  0
101180  1  0  0  0  0
102181  1  0  0  0  0
103182  1  0  0  0  0
106183  1  0  0  0  0
106184  1  0  0  0  0
107185  1  0  0  0  0
107186  1  0  0  0  0
107187  1  0  0  0  0
108188  1  0  0  0  0
109189  1  0  0  0  0
114190  1  0  0  0  0
117191  1  0  0  0  0
118192  1  0  0  0  0
M  END
