
  xtb     02112222583D
 energy: -345.438184961320 gnorm: 0.000827913697 xtb: 6.4.1 (unknown)
201226  0     0  0            999 V2000
   -8.6872    9.8413    1.6783 C   0  0  0  0  0  0  0  0  0  0  0  0
   -8.6613    9.7137    0.3256 C   0  0  0  0  0  0  0  0  0  0  0  0
   -9.6637   10.4176   -0.5177 C   0  0  0  0  0  0  0  0  0  0  0  0
  -10.3893   11.3248   -0.1782 O   0  0  0  0  0  0  0  0  0  0  0  0
   -9.6184    9.7305   -1.8237 C   0  0  0  0  0  0  0  0  0  0  0  0
  -10.4565    9.9426   -2.9168 C   0  0  0  0  0  0  0  0  0  0  0  0
  -10.1863    9.1344   -3.9947 C   0  0  0  0  0  0  0  0  0  0  0  0
   -9.1607    8.1786   -3.9915 C   0  0  0  0  0  0  0  0  0  0  0  0
   -8.3181    7.9655   -2.9265 C   0  0  0  0  0  0  0  0  0  0  0  0
   -8.5742    8.7806   -1.8207 C   0  0  0  0  0  0  0  0  0  0  0  0
   -7.8674    8.8757   -0.5475 C   0  0  0  0  0  0  0  0  0  0  0  0
   -6.5724    8.4872   -0.3189 C   0  0  0  0  0  0  0  0  0  0  0  0
   -5.8373    8.9057    0.8095 C   0  0  0  0  0  0  0  0  0  0  0  0
   -5.1935    9.2830    1.6824 N   0  0  0  0  0  0  0  0  0  0  0  0
   -5.8021    7.7146   -1.2089 C   0  0  0  0  0  0  0  0  0  0  0  0
   -5.1390    7.0599   -1.8800 N   0  0  0  0  0  0  0  0  0  0  0  0
   -9.4737    7.7214   -5.3945 C   0  0  0  0  0  0  0  0  0  0  0  0
  -10.2509    6.3952   -5.5333 C   0  0  0  0  0  0  0  0  0  0  0  0
  -10.8173    6.4537   -6.9337 C   0  0  0  0  0  0  0  0  0  0  0  0
  -11.7842    7.3624   -6.9403 C   0  0  0  0  0  0  0  0  0  0  0  0
  -11.8877    7.9332   -5.5444 C   0  0  0  0  0  0  0  0  0  0  0  0
  -11.5199    6.6907   -4.7233 C   0  0  0  0  0  0  0  0  0  0  0  0
  -10.6127    8.7909   -5.4004 C   0  0  0  0  0  0  0  0  0  0  0  0
   -8.1143    8.9867    2.6518 C   0  0  0  0  0  0  0  0  0  0  0  0
   -7.8042    9.3148    3.9537 C   0  0  0  0  0  0  0  0  0  0  0  0
   -7.2280    8.2683    4.6824 C   0  0  0  0  0  0  0  0  0  0  0  0
   -6.5712    8.4331    6.3049 S   0  0  0  0  0  0  0  0  0  0  0  0
   -5.6816   10.0292    6.1418 C   0  0  0  0  0  0  0  0  0  0  0  0
   -4.5747    9.9658    5.1092 C   0  0  0  0  0  0  0  0  0  0  0  0
   -7.1605    7.0839    3.9632 C   0  0  0  0  0  0  0  0  0  0  0  0
   -7.7774    7.2996    2.3537 S   0  0  0  0  0  0  0  0  0  0  0  0
   -6.6156    5.8261    4.3412 C   0  0  0  0  0  0  0  0  0  0  0  0
   -6.6397    5.1868    5.5686 C   0  0  0  0  0  0  0  0  0  0  0  0
   -7.4490    5.5979    6.7132 C   0  0  0  0  0  0  0  0  0  0  0  0
   -8.7501    6.0628    6.5325 C   0  0  0  0  0  0  0  0  0  0  0  0
   -9.5094    6.4271    7.6268 C   0  0  0  0  0  0  0  0  0  0  0  0
   -8.9832    6.3368    8.9033 C   0  0  0  0  0  0  0  0  0  0  0  0
   -7.6920    5.8650    9.1028 C   0  0  0  0  0  0  0  0  0  0  0  0
   -7.0926    5.8171   10.4782 C   0  0  0  0  0  0  0  0  0  0  0  0
   -6.3514    7.1229   10.7716 C   0  0  0  0  0  0  0  0  0  0  0  0
   -6.9377    5.4916    8.0023 C   0  0  0  0  0  0  0  0  0  0  0  0
   -5.8624    4.0112    5.5373 C   0  0  0  0  0  0  0  0  0  0  0  0
   -5.5308    2.7848    6.7366 S   0  0  0  0  0  0  0  0  0  0  0  0
   -4.5917    1.9247    5.5650 C   0  0  0  0  0  0  0  0  0  0  0  0
   -3.8730    0.7243    5.4516 C   0  0  0  0  0  0  0  0  0  0  0  0
   -3.7366   -0.3673    6.3364 C   0  0  0  0  0  0  0  0  0  0  0  0
   -3.0593   -1.5484    5.8811 C   0  0  0  0  0  0  0  0  0  0  0  0
   -3.0642   -2.5148    6.7856 N   0  0  0  0  0  0  0  0  0  0  0  0
   -3.8483   -1.9837    8.0991 S   0  0  0  0  0  0  0  0  0  0  0  0
   -4.2131   -0.4994    7.5643 N   0  0  0  0  0  0  0  0  0  0  0  0
   -2.4323   -1.5300    4.6160 C   0  0  0  0  0  0  0  0  0  0  0  0
   -1.5749   -2.4541    3.9964 C   0  0  0  0  0  0  0  0  0  0  0  0
   -0.9104   -4.0266    4.2868 S   0  0  0  0  0  0  0  0  0  0  0  0
    0.0481   -3.8593    2.8355 C   0  0  0  0  0  0  0  0  0  0  0  0
    0.9904   -4.7020    2.2174 C   0  0  0  0  0  0  0  0  0  0  0  0
    1.3347   -6.0364    2.7204 C   0  0  0  0  0  0  0  0  0  0  0  0
    1.7893   -6.1967    4.0242 C   0  0  0  0  0  0  0  0  0  0  0  0
    2.1088   -7.4592    4.4886 C   0  0  0  0  0  0  0  0  0  0  0  0
    1.9700   -8.5626    3.6653 C   0  0  0  0  0  0  0  0  0  0  0  0
    1.4988   -8.4220    2.3654 C   0  0  0  0  0  0  0  0  0  0  0  0
    1.3873   -9.6130    1.4583 C   0  0  0  0  0  0  0  0  0  0  0  0
    2.7397   -9.9145    0.8097 C   0  0  0  0  0  0  0  0  0  0  0  0
    1.1812   -7.1538    1.9051 C   0  0  0  0  0  0  0  0  0  0  0  0
    1.5264   -4.1136    1.0862 C   0  0  0  0  0  0  0  0  0  0  0  0
    0.8305   -2.5288    0.7612 S   0  0  0  0  0  0  0  0  0  0  0  0
   -0.1603   -2.6486    2.1707 C   0  0  0  0  0  0  0  0  0  0  0  0
   -1.0995   -1.8482    2.8311 C   0  0  0  0  0  0  0  0  0  0  0  0
   -1.6621   -0.6073    2.6763 N   0  0  0  0  0  0  0  0  0  0  0  0
   -2.4931   -0.3908    3.7662 C   0  0  0  0  0  0  0  0  0  0  0  0
   -3.3365    0.6902    4.1332 C   0  0  0  0  0  0  0  0  0  0  0  0
   -3.7749    1.8117    3.4544 N   0  0  0  0  0  0  0  0  0  0  0  0
   -4.5284    2.5579    4.3209 C   0  0  0  0  0  0  0  0  0  0  0  0
   -5.2727    3.7441    4.2990 C   0  0  0  0  0  0  0  0  0  0  0  0
   -5.6804    4.9530    3.1351 S   0  0  0  0  0  0  0  0  0  0  0  0
   -3.8403    2.0760    2.0345 C   0  0  0  0  0  0  0  0  0  0  0  0
   -2.9578    3.2523    1.6204 C   0  0  0  0  0  0  0  0  0  0  0  0
   -0.9685    0.3647    1.8579 C   0  0  0  0  0  0  0  0  0  0  0  0
    0.0050    1.1893    2.6972 C   0  0  0  0  0  0  0  0  0  0  0  0
    2.6121   -4.5406    0.2740 C   0  0  0  0  0  0  0  0  0  0  0  0
    3.0944   -3.9124   -0.8415 C   0  0  0  0  0  0  0  0  0  0  0  0
    4.2666   -4.4977   -1.3710 C   0  0  0  0  0  0  0  0  0  0  0  0
    5.0097   -4.1001   -2.5015 C   0  0  0  0  0  0  0  0  0  0  0  0
    4.6796   -2.9045   -3.2428 C   0  0  0  0  0  0  0  0  0  0  0  0
    4.2291   -1.7001   -2.7731 C   0  0  0  0  0  0  0  0  0  0  0  0
    4.0529   -0.7422   -3.7873 C   0  0  0  0  0  0  0  0  0  0  0  0
    3.5145    0.8627   -3.4942 Cl  0  0  0  0  0  0  0  0  0  0  0  0
    4.3687   -1.1995   -5.0419 C   0  0  0  0  0  0  0  0  0  0  0  0
    4.3065   -0.2538   -6.5035 S   0  0  0  0  0  0  0  0  0  0  0  0
    5.1043   -1.3722   -7.7098 C   0  0  0  0  0  0  0  0  0  0  0  0
    4.1395   -2.3940   -8.2784 C   0  0  0  0  0  0  0  0  0  0  0  0
    4.8770   -2.8544   -4.9744 S   0  0  0  0  0  0  0  0  0  0  0  0
    6.1017   -4.8958   -2.8443 C   0  0  0  0  0  0  0  0  0  0  0  0
    6.4855   -6.0463   -2.1062 C   0  0  0  0  0  0  0  0  0  0  0  0
    5.7274   -6.4588   -0.9803 C   0  0  0  0  0  0  0  0  0  0  0  0
    6.0272   -7.6715   -0.2604 C   0  0  0  0  0  0  0  0  0  0  0  0
    5.7697   -7.7721    1.4641 S   0  0  0  0  0  0  0  0  0  0  0  0
    6.2381   -9.4395    1.4934 C   0  0  0  0  0  0  0  0  0  0  0  0
    6.2043  -10.4420    2.9163 S   0  0  0  0  0  0  0  0  0  0  0  0
    5.6039   -9.2744    4.1880 C   0  0  0  0  0  0  0  0  0  0  0  0
    6.7033   -8.3703    4.7089 C   0  0  0  0  0  0  0  0  0  0  0  0
    6.5774   -9.8682    0.2336 C   0  0  0  0  0  0  0  0  0  0  0  0
    6.4625   -8.8737   -0.7528 C   0  0  0  0  0  0  0  0  0  0  0  0
    7.0644  -11.4819   -0.0903 Cl  0  0  0  0  0  0  0  0  0  0  0  0
    4.6603   -5.6420   -0.6311 C   0  0  0  0  0  0  0  0  0  0  0  0
    3.5880   -5.9245    0.7151 S   0  0  0  0  0  0  0  0  0  0  0  0
    7.6806   -6.5913   -2.5974 C   0  0  0  0  0  0  0  0  0  0  0  0
    8.2065   -5.9192   -3.6861 C   0  0  0  0  0  0  0  0  0  0  0  0
    7.2013   -4.5651   -4.1511 S   0  0  0  0  0  0  0  0  0  0  0  0
    9.4213   -6.3076   -4.2884 C   0  0  0  0  0  0  0  0  0  0  0  0
   10.1106   -5.7547   -5.3303 C   0  0  0  0  0  0  0  0  0  0  0  0
    9.7160   -4.5684   -6.1109 C   0  0  0  0  0  0  0  0  0  0  0  0
    8.6843   -3.9282   -6.0263 O   0  0  0  0  0  0  0  0  0  0  0  0
   10.8250   -4.2990   -7.0397 C   0  0  0  0  0  0  0  0  0  0  0  0
   10.9152   -3.2466   -7.9479 C   0  0  0  0  0  0  0  0  0  0  0  0
   12.0825   -3.2315   -8.6719 C   0  0  0  0  0  0  0  0  0  0  0  0
   13.0852   -4.1969   -8.5078 C   0  0  0  0  0  0  0  0  0  0  0  0
   13.0045   -5.2447   -7.6219 C   0  0  0  0  0  0  0  0  0  0  0  0
   11.8257   -5.2770   -6.8706 C   0  0  0  0  0  0  0  0  0  0  0  0
   11.3926   -6.2154   -5.8375 C   0  0  0  0  0  0  0  0  0  0  0  0
   12.0829   -7.3334   -5.4466 C   0  0  0  0  0  0  0  0  0  0  0  0
   11.6718   -8.2636   -4.4685 C   0  0  0  0  0  0  0  0  0  0  0  0
   11.4168   -9.0762   -3.6972 N   0  0  0  0  0  0  0  0  0  0  0  0
   13.3245   -7.7351   -5.9837 C   0  0  0  0  0  0  0  0  0  0  0  0
   14.3326   -8.1282   -6.3679 N   0  0  0  0  0  0  0  0  0  0  0  0
   13.9807   -3.5567   -9.5383 C   0  0  0  0  0  0  0  0  0  0  0  0
   15.1805   -2.7201   -9.0286 C   0  0  0  0  0  0  0  0  0  0  0  0
   14.7999   -2.2120   -7.6600 C   0  0  0  0  0  0  0  0  0  0  0  0
   13.8510   -1.2987   -7.8165 C   0  0  0  0  0  0  0  0  0  0  0  0
   13.5724   -1.1730   -9.2941 C   0  0  0  0  0  0  0  0  0  0  0  0
   14.9766   -1.4421   -9.8580 C   0  0  0  0  0  0  0  0  0  0  0  0
   12.8632   -2.4819   -9.7220 C   0  0  0  0  0  0  0  0  0  0  0  0
   -9.2784   10.6670    2.0625 H   0  0  0  0  0  0  0  0  0  0  0  0
  -11.2336   10.6899   -2.8827 H   0  0  0  0  0  0  0  0  0  0  0  0
   -7.5302    7.2300   -2.9298 H   0  0  0  0  0  0  0  0  0  0  0  0
   -8.6641    7.8173   -6.1153 H   0  0  0  0  0  0  0  0  0  0  0  0
   -9.6842    5.5059   -5.2713 H   0  0  0  0  0  0  0  0  0  0  0  0
  -10.4316    5.8874   -7.7609 H   0  0  0  0  0  0  0  0  0  0  0  0
  -12.3674    7.7068   -7.7740 H   0  0  0  0  0  0  0  0  0  0  0  0
  -12.8124    8.4451   -5.2925 H   0  0  0  0  0  0  0  0  0  0  0  0
  -11.3371    6.8932   -3.6696 H   0  0  0  0  0  0  0  0  0  0  0  0
  -12.2623    5.9001   -4.8187 H   0  0  0  0  0  0  0  0  0  0  0  0
  -10.5607    9.6021   -6.1240 H   0  0  0  0  0  0  0  0  0  0  0  0
   -7.9483   10.3067    4.3421 H   0  0  0  0  0  0  0  0  0  0  0  0
   -6.4057   10.8112    5.9194 H   0  0  0  0  0  0  0  0  0  0  0  0
   -5.2813   10.1962    7.1418 H   0  0  0  0  0  0  0  0  0  0  0  0
   -4.0290   10.9071    5.0995 H   0  0  0  0  0  0  0  0  0  0  0  0
   -3.8804    9.1640    5.3501 H   0  0  0  0  0  0  0  0  0  0  0  0
   -4.9722    9.7894    4.1120 H   0  0  0  0  0  0  0  0  0  0  0  0
   -9.1667    6.1201    5.5375 H   0  0  0  0  0  0  0  0  0  0  0  0
  -10.5187    6.7842    7.4831 H   0  0  0  0  0  0  0  0  0  0  0  0
   -9.5811    6.6315    9.7537 H   0  0  0  0  0  0  0  0  0  0  0  0
   -7.8776    5.6714   11.2225 H   0  0  0  0  0  0  0  0  0  0  0  0
   -6.3936    4.9815   10.5478 H   0  0  0  0  0  0  0  0  0  0  0  0
   -7.0374    7.9656   10.7226 H   0  0  0  0  0  0  0  0  0  0  0  0
   -5.5654    7.2820   10.0370 H   0  0  0  0  0  0  0  0  0  0  0  0
   -5.9041    7.0940   11.7625 H   0  0  0  0  0  0  0  0  0  0  0  0
   -5.9276    5.1372    8.1448 H   0  0  0  0  0  0  0  0  0  0  0  0
    1.9005   -5.3338    4.6633 H   0  0  0  0  0  0  0  0  0  0  0  0
    2.4664   -7.5827    5.5005 H   0  0  0  0  0  0  0  0  0  0  0  0
    2.2169   -9.5473    4.0364 H   0  0  0  0  0  0  0  0  0  0  0  0
    0.6498   -9.4154    0.6784 H   0  0  0  0  0  0  0  0  0  0  0  0
    1.0595  -10.4853    2.0273 H   0  0  0  0  0  0  0  0  0  0  0  0
    3.4736  -10.1773    1.5676 H   0  0  0  0  0  0  0  0  0  0  0  0
    2.6534  -10.7460    0.1146 H   0  0  0  0  0  0  0  0  0  0  0  0
    3.1014   -9.0436    0.2665 H   0  0  0  0  0  0  0  0  0  0  0  0
    0.8009   -7.0278    0.9010 H   0  0  0  0  0  0  0  0  0  0  0  0
   -4.8808    2.3229    1.7933 H   0  0  0  0  0  0  0  0  0  0  0  0
   -3.5900    1.1612    1.4955 H   0  0  0  0  0  0  0  0  0  0  0  0
   -2.9853    3.3699    0.5407 H   0  0  0  0  0  0  0  0  0  0  0  0
   -3.3270    4.1700    2.0698 H   0  0  0  0  0  0  0  0  0  0  0  0
   -1.9281    3.1121    1.9359 H   0  0  0  0  0  0  0  0  0  0  0  0
   -1.6671    1.0150    1.3397 H   0  0  0  0  0  0  0  0  0  0  0  0
   -0.4163   -0.1994    1.1019 H   0  0  0  0  0  0  0  0  0  0  0  0
   -0.5265    1.7357    3.4738 H   0  0  0  0  0  0  0  0  0  0  0  0
    0.7343    0.5386    3.1746 H   0  0  0  0  0  0  0  0  0  0  0  0
    0.5339    1.8967    2.0643 H   0  0  0  0  0  0  0  0  0  0  0  0
    2.6002   -3.0644   -1.2790 H   0  0  0  0  0  0  0  0  0  0  0  0
    4.0852   -1.4740   -1.7332 H   0  0  0  0  0  0  0  0  0  0  0  0
    5.4723   -0.7063   -8.4902 H   0  0  0  0  0  0  0  0  0  0  0  0
    5.9484   -1.8459   -7.2086 H   0  0  0  0  0  0  0  0  0  0  0  0
    3.7500   -3.0369   -7.4930 H   0  0  0  0  0  0  0  0  0  0  0  0
    3.3058   -1.8980   -8.7701 H   0  0  0  0  0  0  0  0  0  0  0  0
    4.6560   -3.0160   -9.0063 H   0  0  0  0  0  0  0  0  0  0  0  0
    4.7816   -8.7056    3.7523 H   0  0  0  0  0  0  0  0  0  0  0  0
    5.2200   -9.9175    4.9798 H   0  0  0  0  0  0  0  0  0  0  0  0
    7.5111   -8.9598    5.1360 H   0  0  0  0  0  0  0  0  0  0  0  0
    7.1062   -7.7519    3.9106 H   0  0  0  0  0  0  0  0  0  0  0  0
    6.3012   -7.7165    5.4796 H   0  0  0  0  0  0  0  0  0  0  0  0
    6.6401   -9.0672   -1.7940 H   0  0  0  0  0  0  0  0  0  0  0  0
    8.1825   -7.4320   -2.1530 H   0  0  0  0  0  0  0  0  0  0  0  0
    9.8643   -7.1739   -3.8120 H   0  0  0  0  0  0  0  0  0  0  0  0
   10.1185   -2.5250   -8.0399 H   0  0  0  0  0  0  0  0  0  0  0  0
   13.7862   -5.9770   -7.5106 H   0  0  0  0  0  0  0  0  0  0  0  0
   14.2406   -4.1749  -10.3951 H   0  0  0  0  0  0  0  0  0  0  0  0
   16.1428   -3.2191   -9.1046 H   0  0  0  0  0  0  0  0  0  0  0  0
   15.2070   -2.5976   -6.7437 H   0  0  0  0  0  0  0  0  0  0  0  0
   13.3064   -0.7689   -7.0570 H   0  0  0  0  0  0  0  0  0  0  0  0
   13.0709   -0.2628   -9.6125 H   0  0  0  0  0  0  0  0  0  0  0  0
   15.6890   -0.6582   -9.6053 H   0  0  0  0  0  0  0  0  0  0  0  0
   14.9868   -1.6161  -10.9331 H   0  0  0  0  0  0  0  0  0  0  0  0
   12.3918   -2.3985  -10.6993 H   0  0  0  0  0  0  0  0  0  0  0  0
  1  2  2  0  0  0  0
  2  3  1  0  0  0  0
  3  4  2  0  0  0  0
  3  5  1  0  0  0  0
  5  6  2  0  0  0  0
  6  7  1  0  0  0  0
  7  8  2  0  0  0  0
  8  9  1  0  0  0  0
  9 10  2  0  0  0  0
 10 11  1  0  0  0  0
 11 12  2  0  0  0  0
 12 13  1  0  0  0  0
 13 14  3  0  0  0  0
 12 15  1  0  0  0  0
 15 16  3  0  0  0  0
  8 17  1  0  0  0  0
 17 18  1  0  0  0  0
 18 19  1  0  0  0  0
 19 20  2  0  0  0  0
 20 21  1  0  0  0  0
 21 22  1  0  0  0  0
 21 23  1  0  0  0  0
  1 24  1  0  0  0  0
 24 25  2  0  0  0  0
 25 26  1  0  0  0  0
 26 27  1  0  0  0  0
 27 28  1  0  0  0  0
 28 29  1  0  0  0  0
 26 30  2  0  0  0  0
 30 31  1  0  0  0  0
 30 32  1  0  0  0  0
 32 33  2  0  0  0  0
 33 34  1  0  0  0  0
 34 35  2  0  0  0  0
 35 36  1  0  0  0  0
 36 37  2  0  0  0  0
 37 38  1  0  0  0  0
 38 39  1  0  0  0  0
 39 40  1  0  0  0  0
 38 41  2  0  0  0  0
 33 42  1  0  0  0  0
 42 43  1  0  0  0  0
 43 44  1  0  0  0  0
 44 45  1  0  0  0  0
 45 46  1  0  0  0  0
 46 47  1  0  0  0  0
 47 48  2  0  0  0  0
 48 49  1  0  0  0  0
 49 50  1  0  0  0  0
 47 51  1  0  0  0  0
 51 52  1  0  0  0  0
 52 53  1  0  0  0  0
 53 54  1  0  0  0  0
 54 55  1  0  0  0  0
 55 56  1  0  0  0  0
 56 57  2  0  0  0  0
 57 58  1  0  0  0  0
 58 59  2  0  0  0  0
 59 60  1  0  0  0  0
 60 61  1  0  0  0  0
 61 62  1  0  0  0  0
 60 63  2  0  0  0  0
 55 64  2  0  0  0  0
 64 65  1  0  0  0  0
 65 66  1  0  0  0  0
 66 67  1  0  0  0  0
 67 68  1  0  0  0  0
 68 69  1  0  0  0  0
 69 70  1  0  0  0  0
 70 71  1  0  0  0  0
 71 72  1  0  0  0  0
 72 73  1  0  0  0  0
 73 74  1  0  0  0  0
 71 75  1  0  0  0  0
 75 76  1  0  0  0  0
 68 77  1  0  0  0  0
 77 78  1  0  0  0  0
 64 79  1  0  0  0  0
 79 80  2  0  0  0  0
 80 81  1  0  0  0  0
 81 82  2  0  0  0  0
 82 83  1  0  0  0  0
 83 84  2  0  0  0  0
 84 85  1  0  0  0  0
 85 86  1  0  0  0  0
 85 87  2  0  0  0  0
 87 88  1  0  0  0  0
 88 89  1  0  0  0  0
 89 90  1  0  0  0  0
 87 91  1  0  0  0  0
 82 92  1  0  0  0  0
 92 93  2  0  0  0  0
 93 94  1  0  0  0  0
 94 95  1  0  0  0  0
 95 96  1  0  0  0  0
 96 97  1  0  0  0  0
 97 98  1  0  0  0  0
 98 99  1  0  0  0  0
 99100  1  0  0  0  0
 97101  2  0  0  0  0
101102  1  0  0  0  0
101103  1  0  0  0  0
 94104  2  0  0  0  0
104105  1  0  0  0  0
 93106  1  0  0  0  0
106107  2  0  0  0  0
107108  1  0  0  0  0
107109  1  0  0  0  0
109110  2  0  0  0  0
110111  1  0  0  0  0
111112  2  0  0  0  0
111113  1  0  0  0  0
113114  2  0  0  0  0
114115  1  0  0  0  0
115116  2  0  0  0  0
116117  1  0  0  0  0
117118  2  0  0  0  0
118119  1  0  0  0  0
119120  2  0  0  0  0
120121  1  0  0  0  0
121122  3  0  0  0  0
120123  1  0  0  0  0
123124  3  0  0  0  0
116125  1  0  0  0  0
125126  1  0  0  0  0
126127  1  0  0  0  0
127128  2  0  0  0  0
128129  1  0  0  0  0
129130  1  0  0  0  0
129131  1  0  0  0  0
 11  2  1  0  0  0  0
 23 17  1  0  0  0  0
 31 24  1  0  0  0  0
 74 32  1  0  0  0  0
105 79  1  0  0  0  0
119110  1  0  0  0  0
131125  1  0  0  0  0
 10  5  1  0  0  0  0
 22 18  1  0  0  0  0
 41 34  1  0  0  0  0
 73 42  2  0  0  0  0
104 81  1  0  0  0  0
118113  1  0  0  0  0
130126  1  0  0  0  0
 23  7  1  0  0  0  0
 72 44  2  0  0  0  0
 91 83  1  0  0  0  0
108 92  1  0  0  0  0
131115  1  0  0  0  0
 70 45  2  0  0  0  0
102 95  2  0  0  0  0
 50 46  2  0  0  0  0
 69 51  2  0  0  0  0
 67 52  2  0  0  0  0
 66 54  2  0  0  0  0
 63 56  1  0  0  0  0
  1132  1  0  0  0  0
  6133  1  0  0  0  0
  9134  1  0  0  0  0
 17135  1  0  0  0  0
 18136  1  0  0  0  0
 19137  1  0  0  0  0
 20138  1  0  0  0  0
 21139  1  0  0  0  0
 22140  1  0  0  0  0
 22141  1  0  0  0  0
 23142  1  0  0  0  0
 25143  1  0  0  0  0
 28144  1  0  0  0  0
 28145  1  0  0  0  0
 29146  1  0  0  0  0
 29147  1  0  0  0  0
 29148  1  0  0  0  0
 35149  1  0  0  0  0
 36150  1  0  0  0  0
 37151  1  0  0  0  0
 39152  1  0  0  0  0
 39153  1  0  0  0  0
 40154  1  0  0  0  0
 40155  1  0  0  0  0
 40156  1  0  0  0  0
 41157  1  0  0  0  0
 57158  1  0  0  0  0
 58159  1  0  0  0  0
 59160  1  0  0  0  0
 61161  1  0  0  0  0
 61162  1  0  0  0  0
 62163  1  0  0  0  0
 62164  1  0  0  0  0
 62165  1  0  0  0  0
 63166  1  0  0  0  0
 75167  1  0  0  0  0
 75168  1  0  0  0  0
 76169  1  0  0  0  0
 76170  1  0  0  0  0
 76171  1  0  0  0  0
 77172  1  0  0  0  0
 77173  1  0  0  0  0
 78174  1  0  0  0  0
 78175  1  0  0  0  0
 78176  1  0  0  0  0
 80177  1  0  0  0  0
 84178  1  0  0  0  0
 89179  1  0  0  0  0
 89180  1  0  0  0  0
 90181  1  0  0  0  0
 90182  1  0  0  0  0
 90183  1  0  0  0  0
 99184  1  0  0  0  0
 99185  1  0  0  0  0
100186  1  0  0  0  0
100187  1  0  0  0  0
100188  1  0  0  0  0
102189  1  0  0  0  0
106190  1  0  0  0  0
109191  1  0  0  0  0
114192  1  0  0  0  0
117193  1  0  0  0  0
125194  1  0  0  0  0
126195  1  0  0  0  0
127196  1  0  0  0  0
128197  1  0  0  0  0
129198  1  0  0  0  0
130199  1  0  0  0  0
130200  1  0  0  0  0
131201  1  0  0  0  0
M  END
