
  xtb     02232207503D
 energy: -273.125477984927 gnorm: 0.000265919837 xtb: 6.4.1 (unknown)
157176  0     0  0            999 V2000
    1.2973    4.5217   -9.0712 C   0  0  0  0  0  0  0  0  0  0  0  0
    1.5013    3.2743   -9.5581 C   0  0  0  0  0  0  0  0  0  0  0  0
    2.0368    3.0654  -10.9341 C   0  0  0  0  0  0  0  0  0  0  0  0
    2.1105    3.8931  -11.8125 O   0  0  0  0  0  0  0  0  0  0  0  0
    2.4972    1.6641  -10.9611 C   0  0  0  0  0  0  0  0  0  0  0  0
    3.1786    1.0193  -11.9919 C   0  0  0  0  0  0  0  0  0  0  0  0
    3.4852   -0.2939  -11.7274 C   0  0  0  0  0  0  0  0  0  0  0  0
    3.1453   -0.9263  -10.5227 C   0  0  0  0  0  0  0  0  0  0  0  0
    2.4701   -0.3070   -9.4989 C   0  0  0  0  0  0  0  0  0  0  0  0
    2.1435    1.0280   -9.7511 C   0  0  0  0  0  0  0  0  0  0  0  0
    1.3851    1.9685   -8.9347 C   0  0  0  0  0  0  0  0  0  0  0  0
    0.5048    1.6243   -7.9435 C   0  0  0  0  0  0  0  0  0  0  0  0
    0.3573    0.3219   -7.4244 C   0  0  0  0  0  0  0  0  0  0  0  0
    0.1978   -0.7087   -6.9445 N   0  0  0  0  0  0  0  0  0  0  0  0
   -0.4368    2.5127   -7.3844 C   0  0  0  0  0  0  0  0  0  0  0  0
   -1.2661    3.1708   -6.9397 N   0  0  0  0  0  0  0  0  0  0  0  0
    3.7693   -2.2336  -10.9393 C   0  0  0  0  0  0  0  0  0  0  0  0
    5.1499   -2.5992  -10.3403 C   0  0  0  0  0  0  0  0  0  0  0  0
    5.8284   -1.2953  -10.0003 C   0  0  0  0  0  0  0  0  0  0  0  0
    6.1506   -0.6977  -11.1397 C   0  0  0  0  0  0  0  0  0  0  0  0
    5.6960   -1.5865  -12.2709 C   0  0  0  0  0  0  0  0  0  0  0  0
    5.9016   -2.9681  -11.6291 C   0  0  0  0  0  0  0  0  0  0  0  0
    4.1480   -1.5307  -12.2810 C   0  0  0  0  0  0  0  0  0  0  0  0
    1.1444    4.8846   -7.7015 C   0  0  0  0  0  0  0  0  0  0  0  0
    0.3608    5.8819   -7.1761 C   0  0  0  0  0  0  0  0  0  0  0  0
    0.3714    5.9133   -5.7726 C   0  0  0  0  0  0  0  0  0  0  0  0
   -0.5566    7.0721   -4.8089 S   0  0  0  0  0  0  0  0  0  0  0  0
   -2.1683    6.2011   -4.7296 C   0  0  0  0  0  0  0  0  0  0  0  0
   -2.8529    6.0891   -6.0750 C   0  0  0  0  0  0  0  0  0  0  0  0
    1.2388    5.0037   -5.2115 C   0  0  0  0  0  0  0  0  0  0  0  0
    2.0009    4.0351   -6.4363 S   0  0  0  0  0  0  0  0  0  0  0  0
    1.5236    4.7339   -3.8320 C   0  0  0  0  0  0  0  0  0  0  0  0
    2.7666    4.5698   -3.2564 C   0  0  0  0  0  0  0  0  0  0  0  0
    4.0123    4.8739   -3.9578 C   0  0  0  0  0  0  0  0  0  0  0  0
    5.1302    4.0573   -3.8108 C   0  0  0  0  0  0  0  0  0  0  0  0
    6.2817    4.3370   -4.5212 C   0  0  0  0  0  0  0  0  0  0  0  0
    6.3292    5.4191   -5.3837 C   0  0  0  0  0  0  0  0  0  0  0  0
    5.2297    6.2556   -5.5277 C   0  0  0  0  0  0  0  0  0  0  0  0
    5.2432    7.4104   -6.4878 C   0  0  0  0  0  0  0  0  0  0  0  0
    4.4381    7.0706   -7.7439 C   0  0  0  0  0  0  0  0  0  0  0  0
    4.0825    5.9792   -4.8008 C   0  0  0  0  0  0  0  0  0  0  0  0
    2.6550    4.1001   -1.9303 C   0  0  0  0  0  0  0  0  0  0  0  0
    3.8322    3.6712   -0.7124 S   0  0  0  0  0  0  0  0  0  0  0  0
    2.5419    3.1659    0.3259 C   0  0  0  0  0  0  0  0  0  0  0  0
    2.3553    2.5495    1.5740 C   0  0  0  0  0  0  0  0  0  0  0  0
    3.2723    2.2095    2.5923 C   0  0  0  0  0  0  0  0  0  0  0  0
    2.7832    1.5822    3.7863 C   0  0  0  0  0  0  0  0  0  0  0  0
    3.7437    1.3529    4.6677 N   0  0  0  0  0  0  0  0  0  0  0  0
    5.1440    1.8802    4.0483 S   0  0  0  0  0  0  0  0  0  0  0  0
    4.5790    2.4176    2.6297 N   0  0  0  0  0  0  0  0  0  0  0  0
    1.4200    1.2194    3.8548 C   0  0  0  0  0  0  0  0  0  0  0  0
    0.7320    0.4062    4.7680 C   0  0  0  0  0  0  0  0  0  0  0  0
    1.0376   -0.4868    6.2198 S   0  0  0  0  0  0  0  0  0  0  0  0
   -0.5676   -1.1710    6.1062 C   0  0  0  0  0  0  0  0  0  0  0  0
   -1.2460   -2.1270    6.8789 C   0  0  0  0  0  0  0  0  0  0  0  0
   -0.6792   -2.6974    8.1026 C   0  0  0  0  0  0  0  0  0  0  0  0
   -1.3716   -2.6201    9.3084 C   0  0  0  0  0  0  0  0  0  0  0  0
   -0.7927   -3.1111   10.4625 C   0  0  0  0  0  0  0  0  0  0  0  0
    0.4719   -3.6730   10.4255 C   0  0  0  0  0  0  0  0  0  0  0  0
    1.1791   -3.7485    9.2325 C   0  0  0  0  0  0  0  0  0  0  0  0
    2.5764   -4.2946    9.1914 C   0  0  0  0  0  0  0  0  0  0  0  0
    3.5912   -3.1519    9.2693 C   0  0  0  0  0  0  0  0  0  0  0  0
    0.5943   -3.2527    8.0768 C   0  0  0  0  0  0  0  0  0  0  0  0
   -2.4931   -2.4190    6.3410 C   0  0  0  0  0  0  0  0  0  0  0  0
   -2.8500   -1.4414    4.9191 S   0  0  0  0  0  0  0  0  0  0  0  0
   -1.2943   -0.6949    5.0104 C   0  0  0  0  0  0  0  0  0  0  0  0
   -0.5533    0.2151    4.2511 C   0  0  0  0  0  0  0  0  0  0  0  0
   -0.7021    0.9188    3.0876 N   0  0  0  0  0  0  0  0  0  0  0  0
    0.5044    1.5385    2.8111 C   0  0  0  0  0  0  0  0  0  0  0  0
    0.9577    2.3182    1.7148 C   0  0  0  0  0  0  0  0  0  0  0  0
    0.3131    2.8529    0.6089 N   0  0  0  0  0  0  0  0  0  0  0  0
    1.2745    3.3485   -0.2293 C   0  0  0  0  0  0  0  0  0  0  0  0
    1.3379    3.9021   -1.5148 C   0  0  0  0  0  0  0  0  0  0  0  0
    0.2079    4.3396   -2.7443 S   0  0  0  0  0  0  0  0  0  0  0  0
   -1.0594    3.2843    0.4526 C   0  0  0  0  0  0  0  0  0  0  0  0
   -1.5092    4.1595    1.6191 C   0  0  0  0  0  0  0  0  0  0  0  0
   -1.8348    0.6506    2.2315 C   0  0  0  0  0  0  0  0  0  0  0  0
   -1.4373   -0.1840    1.0168 C   0  0  0  0  0  0  0  0  0  0  0  0
   -3.4005   -3.4512    6.6714 C   0  0  0  0  0  0  0  0  0  0  0  0
   -3.0592   -4.6694    7.8671 S   0  0  0  0  0  0  0  0  0  0  0  0
   -4.5720   -5.5177    7.5637 C   0  0  0  0  0  0  0  0  0  0  0  0
   -5.2684   -4.8965    6.5210 C   0  0  0  0  0  0  0  0  0  0  0  0
   -6.4262   -5.2412    5.7781 C   0  0  0  0  0  0  0  0  0  0  0  0
   -6.7621   -4.3674    4.7950 C   0  0  0  0  0  0  0  0  0  0  0  0
   -7.9597   -4.4627    3.9099 C   0  0  0  0  0  0  0  0  0  0  0  0
   -7.8263   -3.6210    2.6481 C   0  0  0  0  0  0  0  0  0  0  0  0
   -5.5394   -2.9288    4.6484 Se  0  0  0  0  0  2  0  0  0  0  0  0
   -4.6064   -3.7367    6.0489 C   0  0  0  0  0  0  0  0  0  0  0  0
   -4.8476   -6.6625    8.3136 C   0  0  0  0  0  0  0  0  0  0  0  0
   -6.0883   -7.2037    8.5799 C   0  0  0  0  0  0  0  0  0  0  0  0
   -7.3613   -6.4488    8.5370 C   0  0  0  0  0  0  0  0  0  0  0  0
   -7.5312   -5.2868    8.2291 O   0  0  0  0  0  0  0  0  0  0  0  0
   -8.3691   -7.3867    9.0613 C   0  0  0  0  0  0  0  0  0  0  0  0
   -7.7358   -8.6167    9.4304 C   0  0  0  0  0  0  0  0  0  0  0  0
   -8.5994   -9.5368    9.9329 C   0  0  0  0  0  0  0  0  0  0  0  0
  -10.2151   -8.9231    9.9688 S   0  0  0  0  0  0  0  0  0  0  0  0
   -9.7085   -7.3892    9.2926 C   0  0  0  0  0  0  0  0  0  0  0  0
  -10.8276   -6.1496    8.9934 Cl  0  0  0  0  0  0  0  0  0  0  0  0
   -6.3173   -8.5144    9.1386 C   0  0  0  0  0  0  0  0  0  0  0  0
   -5.4128   -9.5349    9.3104 C   0  0  0  0  0  0  0  0  0  0  0  0
   -5.8038  -10.7749    9.8506 C   0  0  0  0  0  0  0  0  0  0  0  0
   -6.1072  -11.7914   10.2905 N   0  0  0  0  0  0  0  0  0  0  0  0
   -4.0504   -9.4855    8.9640 C   0  0  0  0  0  0  0  0  0  0  0  0
   -2.9352   -9.5165    8.6884 N   0  0  0  0  0  0  0  0  0  0  0  0
    1.2964    5.3303   -9.7950 H   0  0  0  0  0  0  0  0  0  0  0  0
    3.4202    1.5385  -12.9061 H   0  0  0  0  0  0  0  0  0  0  0  0
    2.2184   -0.7981   -8.5733 H   0  0  0  0  0  0  0  0  0  0  0  0
    3.0965   -3.0876  -10.9827 H   0  0  0  0  0  0  0  0  0  0  0  0
    5.1155   -3.3435   -9.5494 H   0  0  0  0  0  0  0  0  0  0  0  0
    5.9493   -0.9262   -8.9987 H   0  0  0  0  0  0  0  0  0  0  0  0
    6.5947    0.2705  -11.2797 H   0  0  0  0  0  0  0  0  0  0  0  0
    6.1604   -1.4094  -13.2373 H   0  0  0  0  0  0  0  0  0  0  0  0
    6.9511   -3.1984  -11.4530 H   0  0  0  0  0  0  0  0  0  0  0  0
    5.4352   -3.7794  -12.1863 H   0  0  0  0  0  0  0  0  0  0  0  0
    3.7244   -1.9275  -13.2014 H   0  0  0  0  0  0  0  0  0  0  0  0
   -0.2367    6.5439   -7.7761 H   0  0  0  0  0  0  0  0  0  0  0  0
   -1.9859    5.2200   -4.2921 H   0  0  0  0  0  0  0  0  0  0  0  0
   -2.7482    6.8070   -4.0336 H   0  0  0  0  0  0  0  0  0  0  0  0
   -2.9207    7.0640   -6.5536 H   0  0  0  0  0  0  0  0  0  0  0  0
   -3.8591    5.6990   -5.9359 H   0  0  0  0  0  0  0  0  0  0  0  0
   -2.3112    5.4048   -6.7235 H   0  0  0  0  0  0  0  0  0  0  0  0
    5.0878    3.1998   -3.1570 H   0  0  0  0  0  0  0  0  0  0  0  0
    7.1471    3.7007   -4.4083 H   0  0  0  0  0  0  0  0  0  0  0  0
    7.2303    5.6205   -5.9448 H   0  0  0  0  0  0  0  0  0  0  0  0
    4.8060    8.2907   -6.0113 H   0  0  0  0  0  0  0  0  0  0  0  0
    6.2706    7.6482   -6.7688 H   0  0  0  0  0  0  0  0  0  0  0  0
    4.4711    7.8955   -8.4515 H   0  0  0  0  0  0  0  0  0  0  0  0
    3.3983    6.8768   -7.4887 H   0  0  0  0  0  0  0  0  0  0  0  0
    4.8426    6.1828   -8.2259 H   0  0  0  0  0  0  0  0  0  0  0  0
    3.2310    6.6407   -4.8809 H   0  0  0  0  0  0  0  0  0  0  0  0
   -2.3489   -2.1613    9.3381 H   0  0  0  0  0  0  0  0  0  0  0  0
   -1.3286   -3.0498   11.3980 H   0  0  0  0  0  0  0  0  0  0  0  0
    0.9167   -4.0538   11.3334 H   0  0  0  0  0  0  0  0  0  0  0  0
    2.7337   -4.9778   10.0277 H   0  0  0  0  0  0  0  0  0  0  0  0
    2.7294   -4.8485    8.2631 H   0  0  0  0  0  0  0  0  0  0  0  0
    3.4522   -2.4635    8.4388 H   0  0  0  0  0  0  0  0  0  0  0  0
    4.6056   -3.5418    9.2331 H   0  0  0  0  0  0  0  0  0  0  0  0
    3.4651   -2.5974   10.1966 H   0  0  0  0  0  0  0  0  0  0  0  0
    1.1295   -3.3093    7.1399 H   0  0  0  0  0  0  0  0  0  0  0  0
   -1.7231    2.4298    0.3118 H   0  0  0  0  0  0  0  0  0  0  0  0
   -1.0951    3.8697   -0.4697 H   0  0  0  0  0  0  0  0  0  0  0  0
   -0.8880    5.0504    1.6763 H   0  0  0  0  0  0  0  0  0  0  0  0
   -1.4286    3.6299    2.5654 H   0  0  0  0  0  0  0  0  0  0  0  0
   -2.5417    4.4661    1.4743 H   0  0  0  0  0  0  0  0  0  0  0  0
   -2.3204    1.5817    1.9396 H   0  0  0  0  0  0  0  0  0  0  0  0
   -2.5534    0.0887    2.8335 H   0  0  0  0  0  0  0  0  0  0  0  0
   -0.6703    0.3143    0.4290 H   0  0  0  0  0  0  0  0  0  0  0  0
   -1.0456   -1.1452    1.3410 H   0  0  0  0  0  0  0  0  0  0  0  0
   -2.3055   -0.3596    0.3875 H   0  0  0  0  0  0  0  0  0  0  0  0
   -6.9881   -6.1398    5.9585 H   0  0  0  0  0  0  0  0  0  0  0  0
   -8.8357   -4.1324    4.4777 H   0  0  0  0  0  0  0  0  0  0  0  0
   -8.1221   -5.5121    3.6492 H   0  0  0  0  0  0  0  0  0  0  0  0
   -6.9624   -3.9416    2.0673 H   0  0  0  0  0  0  0  0  0  0  0  0
   -8.7156   -3.7117    2.0297 H   0  0  0  0  0  0  0  0  0  0  0  0
   -7.6943   -2.5692    2.9112 H   0  0  0  0  0  0  0  0  0  0  0  0
   -3.9843   -7.1434    8.7587 H   0  0  0  0  0  0  0  0  0  0  0  0
   -8.4080  -10.5293   10.2892 H   0  0  0  0  0  0  0  0  0  0  0  0
  1  2  2  0  0  0  0
  2  3  1  0  0  0  0
  3  4  2  0  0  0  0
  3  5  1  0  0  0  0
  5  6  2  0  0  0  0
  6  7  1  0  0  0  0
  7  8  2  0  0  0  0
  8  9  1  0  0  0  0
  9 10  2  0  0  0  0
 10 11  1  0  0  0  0
 11 12  2  0  0  0  0
 12 13  1  0  0  0  0
 13 14  3  0  0  0  0
 12 15  1  0  0  0  0
 15 16  3  0  0  0  0
  8 17  1  0  0  0  0
 17 18  1  0  0  0  0
 18 19  1  0  0  0  0
 19 20  2  0  0  0  0
 20 21  1  0  0  0  0
 21 22  1  0  0  0  0
 21 23  1  0  0  0  0
  1 24  1  0  0  0  0
 24 25  2  0  0  0  0
 25 26  1  0  0  0  0
 26 27  1  0  0  0  0
 27 28  1  0  0  0  0
 28 29  1  0  0  0  0
 26 30  2  0  0  0  0
 30 31  1  0  0  0  0
 30 32  1  0  0  0  0
 32 33  2  0  0  0  0
 33 34  1  0  0  0  0
 34 35  2  0  0  0  0
 35 36  1  0  0  0  0
 36 37  2  0  0  0  0
 37 38  1  0  0  0  0
 38 39  1  0  0  0  0
 39 40  1  0  0  0  0
 38 41  2  0  0  0  0
 33 42  1  0  0  0  0
 42 43  1  0  0  0  0
 43 44  1  0  0  0  0
 44 45  1  0  0  0  0
 45 46  1  0  0  0  0
 46 47  1  0  0  0  0
 47 48  2  0  0  0  0
 48 49  1  0  0  0  0
 49 50  1  0  0  0  0
 47 51  1  0  0  0  0
 51 52  1  0  0  0  0
 52 53  1  0  0  0  0
 53 54  1  0  0  0  0
 54 55  1  0  0  0  0
 55 56  1  0  0  0  0
 56 57  2  0  0  0  0
 57 58  1  0  0  0  0
 58 59  2  0  0  0  0
 59 60  1  0  0  0  0
 60 61  1  0  0  0  0
 61 62  1  0  0  0  0
 60 63  2  0  0  0  0
 55 64  2  0  0  0  0
 64 65  1  0  0  0  0
 65 66  1  0  0  0  0
 66 67  1  0  0  0  0
 67 68  1  0  0  0  0
 68 69  1  0  0  0  0
 69 70  1  0  0  0  0
 70 71  1  0  0  0  0
 71 72  1  0  0  0  0
 72 73  1  0  0  0  0
 73 74  1  0  0  0  0
 71 75  1  0  0  0  0
 75 76  1  0  0  0  0
 68 77  1  0  0  0  0
 77 78  1  0  0  0  0
 64 79  1  0  0  0  0
 79 80  1  0  0  0  0
 80 81  1  0  0  0  0
 81 82  2  0  0  0  0
 82 83  1  0  0  0  0
 83 84  2  0  0  0  0
 84 85  1  0  0  0  0
 85 86  1  0  0  0  0
 84 87  1  0  0  0  0
 87 88  1  0  0  0  0
 81 89  1  0  0  0  0
 89 90  2  0  0  0  0
 90 91  1  0  0  0  0
 91 92  2  0  0  0  0
 91 93  1  0  0  0  0
 93 94  1  0  0  0  0
 94 95  2  0  0  0  0
 95 96  1  0  0  0  0
 96 97  1  0  0  0  0
 97 98  1  0  0  0  0
 94 99  1  0  0  0  0
 99100  2  0  0  0  0
100101  1  0  0  0  0
101102  3  0  0  0  0
100103  1  0  0  0  0
103104  3  0  0  0  0
 11  2  1  0  0  0  0
 23 17  1  0  0  0  0
 31 24  1  0  0  0  0
 74 32  1  0  0  0  0
 88 79  2  0  0  0  0
 99 90  1  0  0  0  0
 10  5  1  0  0  0  0
 22 18  1  0  0  0  0
 41 34  1  0  0  0  0
 73 42  2  0  0  0  0
 88 82  1  0  0  0  0
 97 93  2  0  0  0  0
 23  7  1  0  0  0  0
 72 44  2  0  0  0  0
 70 45  2  0  0  0  0
 50 46  2  0  0  0  0
 69 51  2  0  0  0  0
 67 52  2  0  0  0  0
 66 54  2  0  0  0  0
 63 56  1  0  0  0  0
  1105  1  0  0  0  0
  6106  1  0  0  0  0
  9107  1  0  0  0  0
 17108  1  0  0  0  0
 18109  1  0  0  0  0
 19110  1  0  0  0  0
 20111  1  0  0  0  0
 21112  1  0  0  0  0
 22113  1  0  0  0  0
 22114  1  0  0  0  0
 23115  1  0  0  0  0
 25116  1  0  0  0  0
 28117  1  0  0  0  0
 28118  1  0  0  0  0
 29119  1  0  0  0  0
 29120  1  0  0  0  0
 29121  1  0  0  0  0
 35122  1  0  0  0  0
 36123  1  0  0  0  0
 37124  1  0  0  0  0
 39125  1  0  0  0  0
 39126  1  0  0  0  0
 40127  1  0  0  0  0
 40128  1  0  0  0  0
 40129  1  0  0  0  0
 41130  1  0  0  0  0
 57131  1  0  0  0  0
 58132  1  0  0  0  0
 59133  1  0  0  0  0
 61134  1  0  0  0  0
 61135  1  0  0  0  0
 62136  1  0  0  0  0
 62137  1  0  0  0  0
 62138  1  0  0  0  0
 63139  1  0  0  0  0
 75140  1  0  0  0  0
 75141  1  0  0  0  0
 76142  1  0  0  0  0
 76143  1  0  0  0  0
 76144  1  0  0  0  0
 77145  1  0  0  0  0
 77146  1  0  0  0  0
 78147  1  0  0  0  0
 78148  1  0  0  0  0
 78149  1  0  0  0  0
 83150  1  0  0  0  0
 85151  1  0  0  0  0
 85152  1  0  0  0  0
 86153  1  0  0  0  0
 86154  1  0  0  0  0
 86155  1  0  0  0  0
 89156  1  0  0  0  0
 95157  1  0  0  0  0
M  END
