
  xtb     02122210593D
 energy: -282.984568553168 gnorm: 0.000569691447 xtb: 6.4.1 (unknown)
162181  0     0  0            999 V2000
    0.7760   -9.6591   -2.8451 C   0  0  0  0  0  0  0  0  0  0  0  0
    2.0374   -9.6803   -2.3102 C   0  0  0  0  0  0  0  0  0  0  0  0
    2.8212   -8.5003   -1.9322 C   0  0  0  0  0  0  0  0  0  0  0  0
    2.5049   -7.3288   -2.0597 O   0  0  0  0  0  0  0  0  0  0  0  0
    4.0801   -9.0027   -1.3601 C   0  0  0  0  0  0  0  0  0  0  0  0
    5.1318   -8.2430   -0.8526 C   0  0  0  0  0  0  0  0  0  0  0  0
    6.1810   -8.9911   -0.3755 C   0  0  0  0  0  0  0  0  0  0  0  0
    6.1853  -10.3919   -0.4041 C   0  0  0  0  0  0  0  0  0  0  0  0
    5.1562  -11.1527   -0.9072 C   0  0  0  0  0  0  0  0  0  0  0  0
    4.0754  -10.4120   -1.3956 C   0  0  0  0  0  0  0  0  0  0  0  0
    2.8187  -10.8605   -1.9950 C   0  0  0  0  0  0  0  0  0  0  0  0
    2.4683  -12.1683   -2.2153 C   0  0  0  0  0  0  0  0  0  0  0  0
    1.2688  -12.6113   -2.8101 C   0  0  0  0  0  0  0  0  0  0  0  0
    0.3242  -13.0593   -3.2874 N   0  0  0  0  0  0  0  0  0  0  0  0
    3.2712  -13.2791   -1.8815 C   0  0  0  0  0  0  0  0  0  0  0  0
    3.8650  -14.2314   -1.6383 N   0  0  0  0  0  0  0  0  0  0  0  0
    7.5438  -10.4807    0.2460 C   0  0  0  0  0  0  0  0  0  0  0  0
    7.5682  -10.8532    1.7436 C   0  0  0  0  0  0  0  0  0  0  0  0
    8.9329  -10.3976    2.2077 C   0  0  0  0  0  0  0  0  0  0  0  0
    8.9278   -9.0710    2.2352 C   0  0  0  0  0  0  0  0  0  0  0  0
    7.5595   -8.6076    1.7897 C   0  0  0  0  0  0  0  0  0  0  0  0
    6.6991   -9.7458    2.3536 C   0  0  0  0  0  0  0  0  0  0  0  0
    7.5384   -8.9185    0.2779 C   0  0  0  0  0  0  0  0  0  0  0  0
   -0.0535   -8.5702   -3.1568 C   0  0  0  0  0  0  0  0  0  0  0  0
   -1.3490   -8.7422   -3.6395 C   0  0  0  0  0  0  0  0  0  0  0  0
   -2.0301   -7.5558   -3.8840 C   0  0  0  0  0  0  0  0  0  0  0  0
   -3.7220   -7.4210   -4.3296 S   0  0  0  0  0  0  0  0  0  0  0  0
   -4.0453   -9.0417   -5.1266 C   0  0  0  0  0  0  0  0  0  0  0  0
   -5.1919   -8.8853   -6.1062 C   0  0  0  0  0  0  0  0  0  0  0  0
   -1.2457   -6.4363   -3.5989 C   0  0  0  0  0  0  0  0  0  0  0  0
    0.3174   -6.8740   -2.9902 S   0  0  0  0  0  0  0  0  0  0  0  0
   -1.5905   -5.0573   -3.7061 C   0  0  0  0  0  0  0  0  0  0  0  0
   -2.3118   -4.3955   -4.6842 C   0  0  0  0  0  0  0  0  0  0  0  0
   -2.7520   -4.9979   -5.9411 C   0  0  0  0  0  0  0  0  0  0  0  0
   -4.0127   -4.7168   -6.4596 C   0  0  0  0  0  0  0  0  0  0  0  0
   -4.4118   -5.3002   -7.6464 C   0  0  0  0  0  0  0  0  0  0  0  0
   -3.5594   -6.1503   -8.3310 C   0  0  0  0  0  0  0  0  0  0  0  0
   -2.2861   -6.4171   -7.8431 C   0  0  0  0  0  0  0  0  0  0  0  0
   -1.3500   -7.3404   -8.5708 C   0  0  0  0  0  0  0  0  0  0  0  0
   -1.3393   -8.7277   -7.9268 C   0  0  0  0  0  0  0  0  0  0  0  0
   -1.8951   -5.8369   -6.6466 C   0  0  0  0  0  0  0  0  0  0  0  0
   -2.4624   -3.0302   -4.3683 C   0  0  0  0  0  0  0  0  0  0  0  0
   -3.2452   -1.7033   -5.1938 S   0  0  0  0  0  0  0  0  0  0  0  0
   -2.7202   -0.6393   -3.9324 C   0  0  0  0  0  0  0  0  0  0  0  0
   -2.8294    0.7082   -3.5586 C   0  0  0  0  0  0  0  0  0  0  0  0
   -3.5524    1.7712   -4.1428 C   0  0  0  0  0  0  0  0  0  0  0  0
   -3.5743    3.0411   -3.4786 C   0  0  0  0  0  0  0  0  0  0  0  0
   -4.3276    3.9296   -4.1074 N   0  0  0  0  0  0  0  0  0  0  0  0
   -4.9536    3.2271   -5.4261 S   0  0  0  0  0  0  0  0  0  0  0  0
   -4.2873    1.7633   -5.2437 N   0  0  0  0  0  0  0  0  0  0  0  0
   -2.7936    3.2146   -2.3149 C   0  0  0  0  0  0  0  0  0  0  0  0
   -2.5531    4.3537   -1.5353 C   0  0  0  0  0  0  0  0  0  0  0  0
   -3.0531    6.0075   -1.4340 S   0  0  0  0  0  0  0  0  0  0  0  0
   -1.9658    6.2269   -0.0787 C   0  0  0  0  0  0  0  0  0  0  0  0
   -1.7028    7.3181    0.7611 C   0  0  0  0  0  0  0  0  0  0  0  0
   -2.5010    8.5410    0.7345 C   0  0  0  0  0  0  0  0  0  0  0  0
   -3.0089    9.0676    1.9218 C   0  0  0  0  0  0  0  0  0  0  0  0
   -3.8231   10.1837    1.8856 C   0  0  0  0  0  0  0  0  0  0  0  0
   -4.1324   10.7838    0.6769 C   0  0  0  0  0  0  0  0  0  0  0  0
   -3.6416   10.2667   -0.5163 C   0  0  0  0  0  0  0  0  0  0  0  0
   -3.9381   10.9375   -1.8256 C   0  0  0  0  0  0  0  0  0  0  0  0
   -2.8493   11.9604   -2.1572 C   0  0  0  0  0  0  0  0  0  0  0  0
   -2.8315    9.1425   -0.4758 C   0  0  0  0  0  0  0  0  0  0  0  0
   -0.7397    6.9911    1.7183 C   0  0  0  0  0  0  0  0  0  0  0  0
   -0.2503    5.3015    1.6336 S   0  0  0  0  0  0  0  0  0  0  0  0
   -1.2590    5.0633    0.2592 C   0  0  0  0  0  0  0  0  0  0  0  0
   -1.6070    3.9932   -0.5708 C   0  0  0  0  0  0  0  0  0  0  0  0
   -1.2789    2.6716   -0.7047 N   0  0  0  0  0  0  0  0  0  0  0  0
   -2.0027    2.1600   -1.7678 C   0  0  0  0  0  0  0  0  0  0  0  0
   -2.1032    0.8646   -2.3419 C   0  0  0  0  0  0  0  0  0  0  0  0
   -1.5977   -0.3751   -1.9800 N   0  0  0  0  0  0  0  0  0  0  0  0
   -1.9768   -1.2761   -2.9360 C   0  0  0  0  0  0  0  0  0  0  0  0
   -1.8313   -2.6473   -3.1829 C   0  0  0  0  0  0  0  0  0  0  0  0
   -1.0458   -3.9859   -2.4258 S   0  0  0  0  0  0  0  0  0  0  0  0
   -1.1266   -0.8606   -0.7019 C   0  0  0  0  0  0  0  0  0  0  0  0
   -2.1799   -0.6793    0.3882 C   0  0  0  0  0  0  0  0  0  0  0  0
   -0.1042    2.1630   -0.0322 C   0  0  0  0  0  0  0  0  0  0  0  0
    1.0421    1.9306   -1.0133 C   0  0  0  0  0  0  0  0  0  0  0  0
   -0.0955    7.7580    2.7172 C   0  0  0  0  0  0  0  0  0  0  0  0
    0.4577    7.2334    3.8908 C   0  0  0  0  0  0  0  0  0  0  0  0
    0.9869    8.2922    4.6558 C   0  0  0  0  0  0  0  0  0  0  0  0
    0.8017    9.5181    3.9126 C   0  0  0  0  0  0  0  0  0  0  0  0
    1.1263   10.6638    4.1260 O   0  0  0  0  0  0  0  0  0  0  0  0
    0.1346    9.1113    2.7283 N   0  0  0  0  0  0  0  0  0  0  0  0
   -0.0156   10.0426    1.6428 C   0  0  0  0  0  0  0  0  0  0  0  0
    1.4360    7.7781    5.8740 C   0  0  0  0  0  0  0  0  0  0  0  0
    1.2347    6.4178    5.8373 N   0  0  0  0  0  0  0  0  0  0  0  0
    1.7244    5.4388    6.7683 C   0  0  0  0  0  0  0  0  0  0  0  0
    0.6583    6.0074    4.6233 C   0  0  0  0  0  0  0  0  0  0  0  0
    0.4704    4.8428    4.3241 O   0  0  0  0  0  0  0  0  0  0  0  0
    2.0359    8.5523    6.8938 C   0  0  0  0  0  0  0  0  0  0  0  0
    1.9697    8.3937    8.2514 C   0  0  0  0  0  0  0  0  0  0  0  0
    0.9061    7.6535    8.9729 C   0  0  0  0  0  0  0  0  0  0  0  0
    0.0280    6.9644    8.5001 O   0  0  0  0  0  0  0  0  0  0  0  0
    1.0583    8.0324   10.3926 C   0  0  0  0  0  0  0  0  0  0  0  0
    0.2959    7.6329   11.4741 C   0  0  0  0  0  0  0  0  0  0  0  0
    0.6105    8.1355   12.7267 C   0  0  0  0  0  0  0  0  0  0  0  0
    1.6690    9.0234   12.8517 C   0  0  0  0  0  0  0  0  0  0  0  0
    1.9548    9.5056   14.0715 F   0  0  0  0  0  0  0  0  0  0  0  0
    2.4478    9.4412   11.7808 C   0  0  0  0  0  0  0  0  0  0  0  0
    2.1311    8.9307   10.5332 C   0  0  0  0  0  0  0  0  0  0  0  0
    2.7404    9.1414    9.2221 C   0  0  0  0  0  0  0  0  0  0  0  0
    3.8998    9.8278    8.9715 C   0  0  0  0  0  0  0  0  0  0  0  0
    4.6271   10.5336    9.9520 C   0  0  0  0  0  0  0  0  0  0  0  0
    5.2531   11.1279   10.7085 N   0  0  0  0  0  0  0  0  0  0  0  0
    4.5482    9.8614    7.7180 C   0  0  0  0  0  0  0  0  0  0  0  0
    5.1566    9.8872    6.7448 N   0  0  0  0  0  0  0  0  0  0  0  0
    0.3167  -10.6155   -3.0626 H   0  0  0  0  0  0  0  0  0  0  0  0
    5.0873   -7.1652   -0.8538 H   0  0  0  0  0  0  0  0  0  0  0  0
    5.1794  -12.2293   -0.9247 H   0  0  0  0  0  0  0  0  0  0  0  0
    8.3141  -10.9880   -0.3316 H   0  0  0  0  0  0  0  0  0  0  0  0
    7.2954  -11.8822    1.9610 H   0  0  0  0  0  0  0  0  0  0  0  0
    9.7515  -11.0635    2.4085 H   0  0  0  0  0  0  0  0  0  0  0  0
    9.7410   -8.4072    2.4633 H   0  0  0  0  0  0  0  0  0  0  0  0
    7.2785   -7.5905    2.0496 H   0  0  0  0  0  0  0  0  0  0  0  0
    5.6701   -9.7425    1.9988 H   0  0  0  0  0  0  0  0  0  0  0  0
    6.7087   -9.7681    3.4421 H   0  0  0  0  0  0  0  0  0  0  0  0
    8.3062   -8.3833   -0.2776 H   0  0  0  0  0  0  0  0  0  0  0  0
   -1.7721   -9.7221   -3.7711 H   0  0  0  0  0  0  0  0  0  0  0  0
   -3.1323   -9.3342   -5.6408 H   0  0  0  0  0  0  0  0  0  0  0  0
   -4.2854   -9.7646   -4.3466 H   0  0  0  0  0  0  0  0  0  0  0  0
   -4.9380   -8.1491   -6.8661 H   0  0  0  0  0  0  0  0  0  0  0  0
   -5.3979   -9.8384   -6.5888 H   0  0  0  0  0  0  0  0  0  0  0  0
   -6.0907   -8.5532   -5.5923 H   0  0  0  0  0  0  0  0  0  0  0  0
   -4.6816   -4.0651   -5.9193 H   0  0  0  0  0  0  0  0  0  0  0  0
   -5.3957   -5.0930   -8.0409 H   0  0  0  0  0  0  0  0  0  0  0  0
   -3.8806   -6.6023   -9.2590 H   0  0  0  0  0  0  0  0  0  0  0  0
   -0.3388   -6.9282   -8.5452 H   0  0  0  0  0  0  0  0  0  0  0  0
   -1.6552   -7.4303   -9.6149 H   0  0  0  0  0  0  0  0  0  0  0  0
   -0.6453   -9.3839   -8.4469 H   0  0  0  0  0  0  0  0  0  0  0  0
   -1.0319   -8.6590   -6.8846 H   0  0  0  0  0  0  0  0  0  0  0  0
   -2.3319   -9.1717   -7.9711 H   0  0  0  0  0  0  0  0  0  0  0  0
   -0.9030   -6.0266   -6.2612 H   0  0  0  0  0  0  0  0  0  0  0  0
   -2.7799    8.5885    2.8623 H   0  0  0  0  0  0  0  0  0  0  0  0
   -4.2197   10.5867    2.8056 H   0  0  0  0  0  0  0  0  0  0  0  0
   -4.7678   11.6571    0.6581 H   0  0  0  0  0  0  0  0  0  0  0  0
   -4.9035   11.4438   -1.7722 H   0  0  0  0  0  0  0  0  0  0  0  0
   -3.9857   10.1904   -2.6199 H   0  0  0  0  0  0  0  0  0  0  0  0
   -2.7934   12.7205   -1.3810 H   0  0  0  0  0  0  0  0  0  0  0  0
   -1.8795   11.4727   -2.2285 H   0  0  0  0  0  0  0  0  0  0  0  0
   -3.0631   12.4477   -3.1052 H   0  0  0  0  0  0  0  0  0  0  0  0
   -2.4402    8.7341   -1.3961 H   0  0  0  0  0  0  0  0  0  0  0  0
   -0.1814   -0.3888   -0.4340 H   0  0  0  0  0  0  0  0  0  0  0  0
   -0.9250   -1.9267   -0.8319 H   0  0  0  0  0  0  0  0  0  0  0  0
   -2.4688    0.3642    0.4900 H   0  0  0  0  0  0  0  0  0  0  0  0
   -3.0697   -1.2543    0.1424 H   0  0  0  0  0  0  0  0  0  0  0  0
   -1.7926   -1.0320    1.3402 H   0  0  0  0  0  0  0  0  0  0  0  0
    0.1915    2.9228    0.6952 H   0  0  0  0  0  0  0  0  0  0  0  0
   -0.3432    1.2619    0.5314 H   0  0  0  0  0  0  0  0  0  0  0  0
    1.9071    1.5383   -0.4856 H   0  0  0  0  0  0  0  0  0  0  0  0
    0.7575    1.2302   -1.7953 H   0  0  0  0  0  0  0  0  0  0  0  0
    1.3221    2.8694   -1.4856 H   0  0  0  0  0  0  0  0  0  0  0  0
   -0.9894   10.5344    1.6651 H   0  0  0  0  0  0  0  0  0  0  0  0
    0.7571   10.8036    1.7640 H   0  0  0  0  0  0  0  0  0  0  0  0
    0.1092    9.5329    0.6887 H   0  0  0  0  0  0  0  0  0  0  0  0
    1.8964    4.5177    6.2099 H   0  0  0  0  0  0  0  0  0  0  0  0
    0.9859    5.2434    7.5478 H   0  0  0  0  0  0  0  0  0  0  0  0
    2.6533    5.7812    7.2241 H   0  0  0  0  0  0  0  0  0  0  0  0
    2.5534    9.4251    6.5102 H   0  0  0  0  0  0  0  0  0  0  0  0
   -0.5224    6.9436   11.3353 H   0  0  0  0  0  0  0  0  0  0  0  0
    0.0505    7.8542   13.6044 H   0  0  0  0  0  0  0  0  0  0  0  0
    3.2524   10.1386   11.9458 H   0  0  0  0  0  0  0  0  0  0  0  0
  1  2  2  0  0  0  0
  2  3  1  0  0  0  0
  3  4  2  0  0  0  0
  3  5  1  0  0  0  0
  5  6  2  0  0  0  0
  6  7  1  0  0  0  0
  7  8  2  0  0  0  0
  8  9  1  0  0  0  0
  9 10  2  0  0  0  0
 10 11  1  0  0  0  0
 11 12  2  0  0  0  0
 12 13  1  0  0  0  0
 13 14  3  0  0  0  0
 12 15  1  0  0  0  0
 15 16  3  0  0  0  0
  8 17  1  0  0  0  0
 17 18  1  0  0  0  0
 18 19  1  0  0  0  0
 19 20  2  0  0  0  0
 20 21  1  0  0  0  0
 21 22  1  0  0  0  0
 21 23  1  0  0  0  0
  1 24  1  0  0  0  0
 24 25  2  0  0  0  0
 25 26  1  0  0  0  0
 26 27  1  0  0  0  0
 27 28  1  0  0  0  0
 28 29  1  0  0  0  0
 26 30  2  0  0  0  0
 30 31  1  0  0  0  0
 30 32  1  0  0  0  0
 32 33  2  0  0  0  0
 33 34  1  0  0  0  0
 34 35  2  0  0  0  0
 35 36  1  0  0  0  0
 36 37  2  0  0  0  0
 37 38  1  0  0  0  0
 38 39  1  0  0  0  0
 39 40  1  0  0  0  0
 38 41  2  0  0  0  0
 33 42  1  0  0  0  0
 42 43  1  0  0  0  0
 43 44  1  0  0  0  0
 44 45  1  0  0  0  0
 45 46  1  0  0  0  0
 46 47  1  0  0  0  0
 47 48  2  0  0  0  0
 48 49  1  0  0  0  0
 49 50  1  0  0  0  0
 47 51  1  0  0  0  0
 51 52  1  0  0  0  0
 52 53  1  0  0  0  0
 53 54  1  0  0  0  0
 54 55  1  0  0  0  0
 55 56  1  0  0  0  0
 56 57  2  0  0  0  0
 57 58  1  0  0  0  0
 58 59  2  0  0  0  0
 59 60  1  0  0  0  0
 60 61  1  0  0  0  0
 61 62  1  0  0  0  0
 60 63  2  0  0  0  0
 55 64  2  0  0  0  0
 64 65  1  0  0  0  0
 65 66  1  0  0  0  0
 66 67  1  0  0  0  0
 67 68  1  0  0  0  0
 68 69  1  0  0  0  0
 69 70  1  0  0  0  0
 70 71  1  0  0  0  0
 71 72  1  0  0  0  0
 72 73  1  0  0  0  0
 73 74  1  0  0  0  0
 71 75  1  0  0  0  0
 75 76  1  0  0  0  0
 68 77  1  0  0  0  0
 77 78  1  0  0  0  0
 64 79  1  0  0  0  0
 79 80  2  0  0  0  0
 80 81  1  0  0  0  0
 81 82  1  0  0  0  0
 82 83  2  0  0  0  0
 82 84  1  0  0  0  0
 84 85  1  0  0  0  0
 81 86  2  0  0  0  0
 86 87  1  0  0  0  0
 87 88  1  0  0  0  0
 87 89  1  0  0  0  0
 89 90  2  0  0  0  0
 86 91  1  0  0  0  0
 91 92  2  0  0  0  0
 92 93  1  0  0  0  0
 93 94  2  0  0  0  0
 93 95  1  0  0  0  0
 95 96  2  0  0  0  0
 96 97  1  0  0  0  0
 97 98  2  0  0  0  0
 98 99  1  0  0  0  0
 98100  1  0  0  0  0
100101  2  0  0  0  0
101102  1  0  0  0  0
102103  2  0  0  0  0
103104  1  0  0  0  0
104105  3  0  0  0  0
103106  1  0  0  0  0
106107  3  0  0  0  0
 11  2  1  0  0  0  0
 23 17  1  0  0  0  0
 31 24  1  0  0  0  0
 74 32  1  0  0  0  0
 84 79  1  0  0  0  0
102 92  1  0  0  0  0
 10  5  1  0  0  0  0
 22 18  1  0  0  0  0
 41 34  1  0  0  0  0
 73 42  2  0  0  0  0
 89 80  1  0  0  0  0
101 95  1  0  0  0  0
 23  7  1  0  0  0  0
 72 44  2  0  0  0  0
 70 45  2  0  0  0  0
 50 46  2  0  0  0  0
 69 51  2  0  0  0  0
 67 52  2  0  0  0  0
 66 54  2  0  0  0  0
 63 56  1  0  0  0  0
  1108  1  0  0  0  0
  6109  1  0  0  0  0
  9110  1  0  0  0  0
 17111  1  0  0  0  0
 18112  1  0  0  0  0
 19113  1  0  0  0  0
 20114  1  0  0  0  0
 21115  1  0  0  0  0
 22116  1  0  0  0  0
 22117  1  0  0  0  0
 23118  1  0  0  0  0
 25119  1  0  0  0  0
 28120  1  0  0  0  0
 28121  1  0  0  0  0
 29122  1  0  0  0  0
 29123  1  0  0  0  0
 29124  1  0  0  0  0
 35125  1  0  0  0  0
 36126  1  0  0  0  0
 37127  1  0  0  0  0
 39128  1  0  0  0  0
 39129  1  0  0  0  0
 40130  1  0  0  0  0
 40131  1  0  0  0  0
 40132  1  0  0  0  0
 41133  1  0  0  0  0
 57134  1  0  0  0  0
 58135  1  0  0  0  0
 59136  1  0  0  0  0
 61137  1  0  0  0  0
 61138  1  0  0  0  0
 62139  1  0  0  0  0
 62140  1  0  0  0  0
 62141  1  0  0  0  0
 63142  1  0  0  0  0
 75143  1  0  0  0  0
 75144  1  0  0  0  0
 76145  1  0  0  0  0
 76146  1  0  0  0  0
 76147  1  0  0  0  0
 77148  1  0  0  0  0
 77149  1  0  0  0  0
 78150  1  0  0  0  0
 78151  1  0  0  0  0
 78152  1  0  0  0  0
 85153  1  0  0  0  0
 85154  1  0  0  0  0
 85155  1  0  0  0  0
 88156  1  0  0  0  0
 88157  1  0  0  0  0
 88158  1  0  0  0  0
 91159  1  0  0  0  0
 96160  1  0  0  0  0
 97161  1  0  0  0  0
100162  1  0  0  0  0
M  END
