
  xtb     02182201333D
 energy: -352.219479577709 gnorm: 0.000412565426 xtb: 6.4.1 (unknown)
209234  0     0  0            999 V2000
  -11.0967   -6.3129    1.2001 C   0  0  0  0  0  0  0  0  0  0  0  0
  -11.8080   -7.0492    2.1018 C   0  0  0  0  0  0  0  0  0  0  0  0
  -11.7780   -6.9792    3.5840 C   0  0  0  0  0  0  0  0  0  0  0  0
  -11.3265   -6.1082    4.2981 O   0  0  0  0  0  0  0  0  0  0  0  0
  -12.4018   -8.2307    4.0536 C   0  0  0  0  0  0  0  0  0  0  0  0
  -12.5062   -8.6596    5.3757 C   0  0  0  0  0  0  0  0  0  0  0  0
  -13.1073   -9.8864    5.5190 C   0  0  0  0  0  0  0  0  0  0  0  0
  -13.5734  -10.6335    4.4282 C   0  0  0  0  0  0  0  0  0  0  0  0
  -13.4876  -10.2176    3.1214 C   0  0  0  0  0  0  0  0  0  0  0  0
  -12.8774   -8.9700    2.9534 C   0  0  0  0  0  0  0  0  0  0  0  0
  -12.6033   -8.2132    1.7369 C   0  0  0  0  0  0  0  0  0  0  0  0
  -13.0818   -8.5140    0.4895 C   0  0  0  0  0  0  0  0  0  0  0  0
  -12.9109   -7.7247   -0.6689 C   0  0  0  0  0  0  0  0  0  0  0  0
  -12.8419   -7.1407   -1.6553 N   0  0  0  0  0  0  0  0  0  0  0  0
  -13.8691   -9.6463    0.1911 C   0  0  0  0  0  0  0  0  0  0  0  0
  -14.5056  -10.5477   -0.1261 N   0  0  0  0  0  0  0  0  0  0  0  0
  -14.0372  -11.7713    5.3033 C   0  0  0  0  0  0  0  0  0  0  0  0
  -13.1351  -13.0233    5.3392 C   0  0  0  0  0  0  0  0  0  0  0  0
  -13.5603  -13.7395    6.6007 C   0  0  0  0  0  0  0  0  0  0  0  0
  -13.1218  -13.0316    7.6339 C   0  0  0  0  0  0  0  0  0  0  0  0
  -12.3927  -11.8253    7.0880 C   0  0  0  0  0  0  0  0  0  0  0  0
  -11.7998  -12.4319    5.8096 C   0  0  0  0  0  0  0  0  0  0  0  0
  -13.5202  -10.9374    6.5192 C   0  0  0  0  0  0  0  0  0  0  0  0
  -10.2646   -5.1842    1.3838 C   0  0  0  0  0  0  0  0  0  0  0  0
  -10.1078   -4.3144    2.4329 C   0  0  0  0  0  0  0  0  0  0  0  0
   -9.1521   -3.3082    2.1947 C   0  0  0  0  0  0  0  0  0  0  0  0
   -8.7777   -2.2625    3.0651 C   0  0  0  0  0  0  0  0  0  0  0  0
   -9.4758   -2.0270    4.3141 C   0  0  0  0  0  0  0  0  0  0  0  0
   -8.6068   -1.7941    5.8020 S   0  0  0  0  0  0  0  0  0  0  0  0
  -10.0593   -1.5587    6.7069 C   0  0  0  0  0  0  0  0  0  0  0  0
  -10.0176   -1.2130    8.1540 C   0  0  0  0  0  0  0  0  0  0  0  0
  -10.0031    0.3070    8.3376 C   0  0  0  0  0  0  0  0  0  0  0  0
  -11.1470   -1.6480    5.8899 C   0  0  0  0  0  0  0  0  0  0  0  0
  -12.7629   -1.4540    6.4305 Cl  0  0  0  0  0  0  0  0  0  0  0  0
  -10.8225   -1.9186    4.5344 C   0  0  0  0  0  0  0  0  0  0  0  0
  -12.0160   -1.9920    3.3040 Cl  0  0  0  0  0  0  0  0  0  0  0  0
   -7.7088   -1.4777    2.6673 C   0  0  0  0  0  0  0  0  0  0  0  0
   -7.0384   -1.6476    1.4291 C   0  0  0  0  0  0  0  0  0  0  0  0
   -7.4788   -2.6202    0.5074 C   0  0  0  0  0  0  0  0  0  0  0  0
   -6.8952   -2.7518   -0.8111 C   0  0  0  0  0  0  0  0  0  0  0  0
   -6.6681   -3.8895   -1.5347 C   0  0  0  0  0  0  0  0  0  0  0  0
   -6.1229   -3.6425   -2.8094 C   0  0  0  0  0  0  0  0  0  0  0  0
   -5.9463   -2.3202   -3.0785 C   0  0  0  0  0  0  0  0  0  0  0  0
   -5.3711   -1.6852   -4.2972 C   0  0  0  0  0  0  0  0  0  0  0  0
   -4.0026   -1.0657   -4.0071 C   0  0  0  0  0  0  0  0  0  0  0  0
   -6.4433   -1.3447   -1.7368 S   0  0  0  0  0  0  0  0  0  0  0  0
   -8.5186   -3.4436    0.9309 C   0  0  0  0  0  0  0  0  0  0  0  0
   -9.2143   -4.7572    0.0328 S   0  0  0  0  0  0  0  0  0  0  0  0
   -5.9336   -0.7758    1.3204 C   0  0  0  0  0  0  0  0  0  0  0  0
   -5.7658    0.0533    2.3968 C   0  0  0  0  0  0  0  0  0  0  0  0
   -7.0098   -0.1847    3.6053 S   0  0  0  0  0  0  0  0  0  0  0  0
   -4.7124    0.9944    2.5556 C   0  0  0  0  0  0  0  0  0  0  0  0
   -4.4365    1.8762    3.5832 C   0  0  0  0  0  0  0  0  0  0  0  0
   -5.1850    2.0058    4.8404 C   0  0  0  0  0  0  0  0  0  0  0  0
   -5.7718    3.2222    5.1714 C   0  0  0  0  0  0  0  0  0  0  0  0
   -6.4496    3.3529    6.3684 C   0  0  0  0  0  0  0  0  0  0  0  0
   -6.5365    2.2828    7.2420 C   0  0  0  0  0  0  0  0  0  0  0  0
   -5.9430    1.0662    6.9331 C   0  0  0  0  0  0  0  0  0  0  0  0
   -5.9838   -0.0849    7.8963 C   0  0  0  0  0  0  0  0  0  0  0  0
   -4.6801   -0.1654    8.6926 C   0  0  0  0  0  0  0  0  0  0  0  0
   -5.2638    0.9410    5.7299 C   0  0  0  0  0  0  0  0  0  0  0  0
   -3.2932    2.6493    3.3043 C   0  0  0  0  0  0  0  0  0  0  0  0
   -2.4370    3.8642    4.2250 S   0  0  0  0  0  0  0  0  0  0  0  0
   -1.2412    3.9341    2.9728 C   0  0  0  0  0  0  0  0  0  0  0  0
    0.0014    4.5390    2.7150 C   0  0  0  0  0  0  0  0  0  0  0  0
    0.8177    5.3620    3.5208 C   0  0  0  0  0  0  0  0  0  0  0  0
    2.1495    5.6658    3.0776 C   0  0  0  0  0  0  0  0  0  0  0  0
    2.8254    6.3822    3.9623 N   0  0  0  0  0  0  0  0  0  0  0  0
    1.8674    6.6586    5.2381 S   0  0  0  0  0  0  0  0  0  0  0  0
    0.5534    5.8699    4.7143 N   0  0  0  0  0  0  0  0  0  0  0  0
    2.5576    5.2368    1.7966 C   0  0  0  0  0  0  0  0  0  0  0  0
    3.7419    5.4591    1.0735 C   0  0  0  0  0  0  0  0  0  0  0  0
    5.2964    6.1880    1.2911 S   0  0  0  0  0  0  0  0  0  0  0  0
    5.7086    5.7597   -0.3523 C   0  0  0  0  0  0  0  0  0  0  0  0
    6.8748    5.9452   -1.1385 C   0  0  0  0  0  0  0  0  0  0  0  0
    8.0748    6.6494   -0.6925 C   0  0  0  0  0  0  0  0  0  0  0  0
    8.4956    6.5646    0.6323 C   0  0  0  0  0  0  0  0  0  0  0  0
    9.6365    7.2295    1.0404 C   0  0  0  0  0  0  0  0  0  0  0  0
   10.3663    7.9856    0.1403 C   0  0  0  0  0  0  0  0  0  0  0  0
    9.9580    8.0902   -1.1842 C   0  0  0  0  0  0  0  0  0  0  0  0
   10.7178    8.9465   -2.1566 C   0  0  0  0  0  0  0  0  0  0  0  0
   10.1959   10.3841   -2.1224 C   0  0  0  0  0  0  0  0  0  0  0  0
    8.8105    7.4242   -1.5863 C   0  0  0  0  0  0  0  0  0  0  0  0
    6.7097    5.4188   -2.3952 C   0  0  0  0  0  0  0  0  0  0  0  0
    5.1263    4.7221   -2.6441 S   0  0  0  0  0  0  0  0  0  0  0  0
    4.6750    5.1080   -1.0204 C   0  0  0  0  0  0  0  0  0  0  0  0
    3.5522    4.9212   -0.1991 C   0  0  0  0  0  0  0  0  0  0  0  0
    2.3064    4.3585   -0.2887 N   0  0  0  0  0  0  0  0  0  0  0  0
    1.6844    4.5122    0.9387 C   0  0  0  0  0  0  0  0  0  0  0  0
    0.4436    4.0538    1.4528 C   0  0  0  0  0  0  0  0  0  0  0  0
   -0.5030    3.1637    0.9663 N   0  0  0  0  0  0  0  0  0  0  0  0
   -1.5059    3.0832    1.8986 C   0  0  0  0  0  0  0  0  0  0  0  0
   -2.6792    2.3456    2.0877 C   0  0  0  0  0  0  0  0  0  0  0  0
   -3.5449    1.1165    1.2400 S   0  0  0  0  0  0  0  0  0  0  0  0
   -0.3279    2.0471    0.0631 C   0  0  0  0  0  0  0  0  0  0  0  0
    0.6070    1.0001    0.6651 C   0  0  0  0  0  0  0  0  0  0  0  0
    1.7327    4.0856   -1.5870 C   0  0  0  0  0  0  0  0  0  0  0  0
    2.2334    2.7713   -2.1845 C   0  0  0  0  0  0  0  0  0  0  0  0
    7.6637    5.2542   -3.4899 C   0  0  0  0  0  0  0  0  0  0  0  0
    8.7926    4.4390   -3.3102 C   0  0  0  0  0  0  0  0  0  0  0  0
    9.0404    3.9369   -2.0576 O   0  0  0  0  0  0  0  0  0  0  0  0
   10.3185    4.2568   -1.5080 C   0  0  0  0  0  0  0  0  0  0  0  0
   10.4014    3.6177   -0.1331 C   0  0  0  0  0  0  0  0  0  0  0  0
    9.5792    4.1041   -4.4181 C   0  0  0  0  0  0  0  0  0  0  0  0
   10.6022    3.1909   -4.3490 O   0  0  0  0  0  0  0  0  0  0  0  0
   10.2570    1.9064   -3.8262 C   0  0  0  0  0  0  0  0  0  0  0  0
   11.3433    0.9296   -4.2448 C   0  0  0  0  0  0  0  0  0  0  0  0
    9.3507    4.7428   -5.6459 C   0  0  0  0  0  0  0  0  0  0  0  0
    8.2920    5.6311   -5.7789 C   0  0  0  0  0  0  0  0  0  0  0  0
    7.4148    5.8243   -4.7323 C   0  0  0  0  0  0  0  0  0  0  0  0
   10.2325    4.4712   -6.7812 C   0  0  0  0  0  0  0  0  0  0  0  0
   10.3250    3.2669   -7.3704 C   0  0  0  0  0  0  0  0  0  0  0  0
    9.4589    2.1083   -7.0115 C   0  0  0  0  0  0  0  0  0  0  0  0
    8.4716    2.1177   -6.3104 O   0  0  0  0  0  0  0  0  0  0  0  0
   10.0232    0.9535   -7.7296 C   0  0  0  0  0  0  0  0  0  0  0  0
    9.6028   -0.3721   -7.6349 C   0  0  0  0  0  0  0  0  0  0  0  0
   10.3361   -1.2476   -8.3966 C   0  0  0  0  0  0  0  0  0  0  0  0
   11.4083   -0.8362   -9.2025 C   0  0  0  0  0  0  0  0  0  0  0  0
   11.8230    0.4679   -9.3187 C   0  0  0  0  0  0  0  0  0  0  0  0
   11.0916    1.3790   -8.5472 C   0  0  0  0  0  0  0  0  0  0  0  0
   11.2526    2.8212   -8.4064 C   0  0  0  0  0  0  0  0  0  0  0  0
   12.1043    3.6107   -9.1260 C   0  0  0  0  0  0  0  0  0  0  0  0
   12.2100    5.0128   -8.9943 C   0  0  0  0  0  0  0  0  0  0  0  0
   12.3475    6.1515   -8.9531 N   0  0  0  0  0  0  0  0  0  0  0  0
   12.9776    3.1396  -10.1307 C   0  0  0  0  0  0  0  0  0  0  0  0
   13.7087    2.8267  -10.9581 N   0  0  0  0  0  0  0  0  0  0  0  0
   11.7062   -2.2422   -9.6590 C   0  0  0  0  0  0  0  0  0  0  0  0
   12.9130   -2.9656   -9.0106 C   0  0  0  0  0  0  0  0  0  0  0  0
   13.0975   -2.3539   -7.6439 C   0  0  0  0  0  0  0  0  0  0  0  0
   12.0812   -2.7424   -6.8854 C   0  0  0  0  0  0  0  0  0  0  0  0
   11.1908   -3.6243   -7.7259 C   0  0  0  0  0  0  0  0  0  0  0  0
   12.2426   -4.2938   -8.6245 C   0  0  0  0  0  0  0  0  0  0  0  0
   10.5103   -2.6988   -8.7651 C   0  0  0  0  0  0  0  0  0  0  0  0
  -11.1177   -6.6595    0.1727 H   0  0  0  0  0  0  0  0  0  0  0  0
  -12.1330   -8.0520    6.1852 H   0  0  0  0  0  0  0  0  0  0  0  0
  -13.8496  -10.8034    2.2932 H   0  0  0  0  0  0  0  0  0  0  0  0
  -15.0970  -12.0118    5.2479 H   0  0  0  0  0  0  0  0  0  0  0  0
  -13.1301  -13.6070    4.4228 H   0  0  0  0  0  0  0  0  0  0  0  0
  -14.1640  -14.6278    6.6116 H   0  0  0  0  0  0  0  0  0  0  0  0
  -13.2863  -13.2105    8.6803 H   0  0  0  0  0  0  0  0  0  0  0  0
  -11.7107  -11.3177    7.7650 H   0  0  0  0  0  0  0  0  0  0  0  0
  -11.0614  -13.2027    6.0242 H   0  0  0  0  0  0  0  0  0  0  0  0
  -11.3732  -11.6993    5.1270 H   0  0  0  0  0  0  0  0  0  0  0  0
  -14.2357  -10.6206    7.2755 H   0  0  0  0  0  0  0  0  0  0  0  0
  -10.6473   -4.4162    3.3550 H   0  0  0  0  0  0  0  0  0  0  0  0
  -10.8967   -1.6323    8.6470 H   0  0  0  0  0  0  0  0  0  0  0  0
   -9.1223   -1.6462    8.6023 H   0  0  0  0  0  0  0  0  0  0  0  0
  -10.9156    0.7415    7.9379 H   0  0  0  0  0  0  0  0  0  0  0  0
   -9.9325    0.5563    9.3933 H   0  0  0  0  0  0  0  0  0  0  0  0
   -9.1553    0.7409    7.8122 H   0  0  0  0  0  0  0  0  0  0  0  0
   -6.8495   -4.8783   -1.1546 H   0  0  0  0  0  0  0  0  0  0  0  0
   -5.8748   -4.4234   -3.5062 H   0  0  0  0  0  0  0  0  0  0  0  0
   -5.2760   -2.4445   -5.0761 H   0  0  0  0  0  0  0  0  0  0  0  0
   -6.0460   -0.9058   -4.6600 H   0  0  0  0  0  0  0  0  0  0  0  0
   -3.3107   -1.8266   -3.6524 H   0  0  0  0  0  0  0  0  0  0  0  0
   -3.5934   -0.6155   -4.9080 H   0  0  0  0  0  0  0  0  0  0  0  0
   -4.0927   -0.2969   -3.2426 H   0  0  0  0  0  0  0  0  0  0  0  0
   -5.2543   -0.7722    0.4874 H   0  0  0  0  0  0  0  0  0  0  0  0
   -5.7020    4.0543    4.4867 H   0  0  0  0  0  0  0  0  0  0  0  0
   -6.9107    4.2957    6.6232 H   0  0  0  0  0  0  0  0  0  0  0  0
   -7.0652    2.3970    8.1779 H   0  0  0  0  0  0  0  0  0  0  0  0
   -6.1337   -1.0162    7.3459 H   0  0  0  0  0  0  0  0  0  0  0  0
   -6.8179    0.0412    8.5884 H   0  0  0  0  0  0  0  0  0  0  0  0
   -4.5245    0.7520    9.2561 H   0  0  0  0  0  0  0  0  0  0  0  0
   -3.8336   -0.3017    8.0238 H   0  0  0  0  0  0  0  0  0  0  0  0
   -4.7105   -1.0003    9.3889 H   0  0  0  0  0  0  0  0  0  0  0  0
   -4.7823    0.0053    5.4839 H   0  0  0  0  0  0  0  0  0  0  0  0
    7.9378    5.9678    1.3373 H   0  0  0  0  0  0  0  0  0  0  0  0
    9.9601    7.1548    2.0681 H   0  0  0  0  0  0  0  0  0  0  0  0
   11.2592    8.5000    0.4655 H   0  0  0  0  0  0  0  0  0  0  0  0
   11.7796    8.9432   -1.9014 H   0  0  0  0  0  0  0  0  0  0  0  0
   10.6074    8.5461   -3.1669 H   0  0  0  0  0  0  0  0  0  0  0  0
   10.7469   11.0058   -2.8241 H   0  0  0  0  0  0  0  0  0  0  0  0
   10.3065   10.8028   -1.1247 H   0  0  0  0  0  0  0  0  0  0  0  0
    9.1415   10.4092   -2.3884 H   0  0  0  0  0  0  0  0  0  0  0  0
    8.4798    7.5122   -2.6113 H   0  0  0  0  0  0  0  0  0  0  0  0
   -1.3183    1.6105   -0.0895 H   0  0  0  0  0  0  0  0  0  0  0  0
    0.0403    2.3759   -0.9037 H   0  0  0  0  0  0  0  0  0  0  0  0
    0.7139    0.1598   -0.0156 H   0  0  0  0  0  0  0  0  0  0  0  0
    1.5882    1.4293    0.8580 H   0  0  0  0  0  0  0  0  0  0  0  0
    0.2028    0.6343    1.6063 H   0  0  0  0  0  0  0  0  0  0  0  0
    2.0274    4.9022   -2.2566 H   0  0  0  0  0  0  0  0  0  0  0  0
    0.6454    4.1126   -1.5010 H   0  0  0  0  0  0  0  0  0  0  0  0
    3.2946    2.8445   -2.4042 H   0  0  0  0  0  0  0  0  0  0  0  0
    1.7067    2.5666   -3.1128 H   0  0  0  0  0  0  0  0  0  0  0  0
    2.0871    1.9390   -1.5025 H   0  0  0  0  0  0  0  0  0  0  0  0
   11.1273    3.8957   -2.1538 H   0  0  0  0  0  0  0  0  0  0  0  0
   10.4117    5.3469   -1.4254 H   0  0  0  0  0  0  0  0  0  0  0  0
    9.5920    3.9871    0.4899 H   0  0  0  0  0  0  0  0  0  0  0  0
   11.3510    3.8698    0.3298 H   0  0  0  0  0  0  0  0  0  0  0  0
   10.3159    2.5365   -0.2096 H   0  0  0  0  0  0  0  0  0  0  0  0
   10.1802    1.9343   -2.7342 H   0  0  0  0  0  0  0  0  0  0  0  0
    9.2836    1.6034   -4.2283 H   0  0  0  0  0  0  0  0  0  0  0  0
   11.3850    0.8437   -5.3282 H   0  0  0  0  0  0  0  0  0  0  0  0
   11.1353   -0.0485   -3.8199 H   0  0  0  0  0  0  0  0  0  0  0  0
   12.3106    1.2750   -3.8888 H   0  0  0  0  0  0  0  0  0  0  0  0
    8.1222    6.1118   -6.7303 H   0  0  0  0  0  0  0  0  0  0  0  0
    6.5422    6.4475   -4.8605 H   0  0  0  0  0  0  0  0  0  0  0  0
   10.8358    5.3036   -7.1204 H   0  0  0  0  0  0  0  0  0  0  0  0
    8.7752   -0.6450   -6.9989 H   0  0  0  0  0  0  0  0  0  0  0  0
   12.6474    0.7682   -9.9437 H   0  0  0  0  0  0  0  0  0  0  0  0
   11.6418   -2.4211  -10.7302 H   0  0  0  0  0  0  0  0  0  0  0  0
   13.7988   -3.0150   -9.6379 H   0  0  0  0  0  0  0  0  0  0  0  0
   13.8930   -1.6769   -7.3929 H   0  0  0  0  0  0  0  0  0  0  0  0
   11.8583   -2.4537   -5.8748 H   0  0  0  0  0  0  0  0  0  0  0  0
   10.5082   -4.2737   -7.1841 H   0  0  0  0  0  0  0  0  0  0  0  0
   11.8137   -4.8261   -9.4722 H   0  0  0  0  0  0  0  0  0  0  0  0
   12.9076   -4.9562   -8.0725 H   0  0  0  0  0  0  0  0  0  0  0  0
    9.6612   -3.1736   -9.2523 H   0  0  0  0  0  0  0  0  0  0  0  0
  1  2  2  0  0  0  0
  2  3  1  0  0  0  0
  3  4  2  0  0  0  0
  3  5  1  0  0  0  0
  5  6  2  0  0  0  0
  6  7  1  0  0  0  0
  7  8  2  0  0  0  0
  8  9  1  0  0  0  0
  9 10  2  0  0  0  0
 10 11  1  0  0  0  0
 11 12  2  0  0  0  0
 12 13  1  0  0  0  0
 13 14  3  0  0  0  0
 12 15  1  0  0  0  0
 15 16  3  0  0  0  0
  8 17  1  0  0  0  0
 17 18  1  0  0  0  0
 18 19  1  0  0  0  0
 19 20  2  0  0  0  0
 20 21  1  0  0  0  0
 21 22  1  0  0  0  0
 21 23  1  0  0  0  0
  1 24  1  0  0  0  0
 24 25  2  0  0  0  0
 25 26  1  0  0  0  0
 26 27  2  0  0  0  0
 27 28  1  0  0  0  0
 28 29  1  0  0  0  0
 29 30  1  0  0  0  0
 30 31  1  0  0  0  0
 31 32  1  0  0  0  0
 30 33  2  0  0  0  0
 33 34  1  0  0  0  0
 33 35  1  0  0  0  0
 35 36  1  0  0  0  0
 27 37  1  0  0  0  0
 37 38  2  0  0  0  0
 38 39  1  0  0  0  0
 39 40  1  0  0  0  0
 40 41  2  0  0  0  0
 41 42  1  0  0  0  0
 42 43  2  0  0  0  0
 43 44  1  0  0  0  0
 44 45  1  0  0  0  0
 43 46  1  0  0  0  0
 39 47  2  0  0  0  0
 47 48  1  0  0  0  0
 38 49  1  0  0  0  0
 49 50  2  0  0  0  0
 50 51  1  0  0  0  0
 50 52  1  0  0  0  0
 52 53  2  0  0  0  0
 53 54  1  0  0  0  0
 54 55  2  0  0  0  0
 55 56  1  0  0  0  0
 56 57  2  0  0  0  0
 57 58  1  0  0  0  0
 58 59  1  0  0  0  0
 59 60  1  0  0  0  0
 58 61  2  0  0  0  0
 53 62  1  0  0  0  0
 62 63  1  0  0  0  0
 63 64  1  0  0  0  0
 64 65  1  0  0  0  0
 65 66  1  0  0  0  0
 66 67  1  0  0  0  0
 67 68  2  0  0  0  0
 68 69  1  0  0  0  0
 69 70  1  0  0  0  0
 67 71  1  0  0  0  0
 71 72  1  0  0  0  0
 72 73  1  0  0  0  0
 73 74  1  0  0  0  0
 74 75  1  0  0  0  0
 75 76  1  0  0  0  0
 76 77  2  0  0  0  0
 77 78  1  0  0  0  0
 78 79  2  0  0  0  0
 79 80  1  0  0  0  0
 80 81  1  0  0  0  0
 81 82  1  0  0  0  0
 80 83  2  0  0  0  0
 75 84  2  0  0  0  0
 84 85  1  0  0  0  0
 85 86  1  0  0  0  0
 86 87  1  0  0  0  0
 87 88  1  0  0  0  0
 88 89  1  0  0  0  0
 89 90  1  0  0  0  0
 90 91  1  0  0  0  0
 91 92  1  0  0  0  0
 92 93  1  0  0  0  0
 93 94  1  0  0  0  0
 91 95  1  0  0  0  0
 95 96  1  0  0  0  0
 88 97  1  0  0  0  0
 97 98  1  0  0  0  0
 84 99  1  0  0  0  0
 99100  2  0  0  0  0
100101  1  0  0  0  0
101102  1  0  0  0  0
102103  1  0  0  0  0
100104  1  0  0  0  0
104105  1  0  0  0  0
105106  1  0  0  0  0
106107  1  0  0  0  0
104108  2  0  0  0  0
108109  1  0  0  0  0
109110  2  0  0  0  0
108111  1  0  0  0  0
111112  2  0  0  0  0
112113  1  0  0  0  0
113114  2  0  0  0  0
113115  1  0  0  0  0
115116  2  0  0  0  0
116117  1  0  0  0  0
117118  2  0  0  0  0
118119  1  0  0  0  0
119120  2  0  0  0  0
120121  1  0  0  0  0
121122  2  0  0  0  0
122123  1  0  0  0  0
123124  3  0  0  0  0
122125  1  0  0  0  0
125126  3  0  0  0  0
118127  1  0  0  0  0
127128  1  0  0  0  0
128129  1  0  0  0  0
129130  2  0  0  0  0
130131  1  0  0  0  0
131132  1  0  0  0  0
131133  1  0  0  0  0
 11  2  1  0  0  0  0
 23 17  1  0  0  0  0
 48 24  1  0  0  0  0
 94 52  1  0  0  0  0
110 99  1  0  0  0  0
121112  1  0  0  0  0
133127  1  0  0  0  0
 10  5  1  0  0  0  0
 22 18  1  0  0  0  0
 47 26  1  0  0  0  0
 61 54  1  0  0  0  0
 93 62  2  0  0  0  0
120115  1  0  0  0  0
132128  1  0  0  0  0
 23  7  1  0  0  0  0
 35 28  2  0  0  0  0
 51 37  1  0  0  0  0
 92 64  2  0  0  0  0
133117  1  0  0  0  0
 46 40  1  0  0  0  0
 90 65  2  0  0  0  0
 70 66  2  0  0  0  0
 89 71  2  0  0  0  0
 87 72  2  0  0  0  0
 86 74  2  0  0  0  0
 83 76  1  0  0  0  0
  1134  1  0  0  0  0
  6135  1  0  0  0  0
  9136  1  0  0  0  0
 17137  1  0  0  0  0
 18138  1  0  0  0  0
 19139  1  0  0  0  0
 20140  1  0  0  0  0
 21141  1  0  0  0  0
 22142  1  0  0  0  0
 22143  1  0  0  0  0
 23144  1  0  0  0  0
 25145  1  0  0  0  0
 31146  1  0  0  0  0
 31147  1  0  0  0  0
 32148  1  0  0  0  0
 32149  1  0  0  0  0
 32150  1  0  0  0  0
 41151  1  0  0  0  0
 42152  1  0  0  0  0
 44153  1  0  0  0  0
 44154  1  0  0  0  0
 45155  1  0  0  0  0
 45156  1  0  0  0  0
 45157  1  0  0  0  0
 49158  1  0  0  0  0
 55159  1  0  0  0  0
 56160  1  0  0  0  0
 57161  1  0  0  0  0
 59162  1  0  0  0  0
 59163  1  0  0  0  0
 60164  1  0  0  0  0
 60165  1  0  0  0  0
 60166  1  0  0  0  0
 61167  1  0  0  0  0
 77168  1  0  0  0  0
 78169  1  0  0  0  0
 79170  1  0  0  0  0
 81171  1  0  0  0  0
 81172  1  0  0  0  0
 82173  1  0  0  0  0
 82174  1  0  0  0  0
 82175  1  0  0  0  0
 83176  1  0  0  0  0
 95177  1  0  0  0  0
 95178  1  0  0  0  0
 96179  1  0  0  0  0
 96180  1  0  0  0  0
 96181  1  0  0  0  0
 97182  1  0  0  0  0
 97183  1  0  0  0  0
 98184  1  0  0  0  0
 98185  1  0  0  0  0
 98186  1  0  0  0  0
102187  1  0  0  0  0
102188  1  0  0  0  0
103189  1  0  0  0  0
103190  1  0  0  0  0
103191  1  0  0  0  0
106192  1  0  0  0  0
106193  1  0  0  0  0
107194  1  0  0  0  0
107195  1  0  0  0  0
107196  1  0  0  0  0
109197  1  0  0  0  0
110198  1  0  0  0  0
111199  1  0  0  0  0
116200  1  0  0  0  0
119201  1  0  0  0  0
127202  1  0  0  0  0
128203  1  0  0  0  0
129204  1  0  0  0  0
130205  1  0  0  0  0
131206  1  0  0  0  0
132207  1  0  0  0  0
132208  1  0  0  0  0
133209  1  0  0  0  0
M  END
