
  xtb     02142201043D
 energy: -298.652408405942 gnorm: 0.000667764319 xtb: 6.4.1 (unknown)
177199  0     0  0            999 V2000
    6.4231    5.9478    7.2066 C   0  0  0  0  0  0  0  0  0  0  0  0
    6.3672    4.8643    8.0424 C   0  0  0  0  0  0  0  0  0  0  0  0
    5.3727    3.7877    7.9781 C   0  0  0  0  0  0  0  0  0  0  0  0
    4.4591    3.6705    7.1782 O   0  0  0  0  0  0  0  0  0  0  0  0
    5.6882    2.8627    9.0778 C   0  0  0  0  0  0  0  0  0  0  0  0
    5.0076    1.6944    9.4120 C   0  0  0  0  0  0  0  0  0  0  0  0
    5.5333    1.0317   10.4948 C   0  0  0  0  0  0  0  0  0  0  0  0
    6.6578    1.4950   11.1906 C   0  0  0  0  0  0  0  0  0  0  0  0
    7.3398    2.6446   10.8690 C   0  0  0  0  0  0  0  0  0  0  0  0
    6.8185    3.3384    9.7733 C   0  0  0  0  0  0  0  0  0  0  0  0
    7.2644    4.5828    9.1473 C   0  0  0  0  0  0  0  0  0  0  0  0
    8.3449    5.3262    9.5470 C   0  0  0  0  0  0  0  0  0  0  0  0
    8.7929    6.5225    8.9485 C   0  0  0  0  0  0  0  0  0  0  0  0
    9.2315    7.4958    8.5236 N   0  0  0  0  0  0  0  0  0  0  0  0
    9.1856    4.9976   10.6314 C   0  0  0  0  0  0  0  0  0  0  0  0
    9.9115    4.8009   11.4992 N   0  0  0  0  0  0  0  0  0  0  0  0
    6.6293    0.3434   12.1638 C   0  0  0  0  0  0  0  0  0  0  0  0
    6.0718    0.6124   13.5834 C   0  0  0  0  0  0  0  0  0  0  0  0
    5.1076    1.7654   13.4539 C   0  0  0  0  0  0  0  0  0  0  0  0
    4.0412    1.3295   12.7968 C   0  0  0  0  0  0  0  0  0  0  0  0
    4.2650   -0.1263   12.4700 C   0  0  0  0  0  0  0  0  0  0  0  0
    5.0812   -0.5572   13.6991 C   0  0  0  0  0  0  0  0  0  0  0  0
    5.3746   -0.1714   11.3902 C   0  0  0  0  0  0  0  0  0  0  0  0
    5.6053    6.2936    6.1183 C   0  0  0  0  0  0  0  0  0  0  0  0
    5.8313    7.4313    5.3496 C   0  0  0  0  0  0  0  0  0  0  0  0
    4.9280    7.6055    4.3092 C   0  0  0  0  0  0  0  0  0  0  0  0
    5.0909    8.9187    3.1376 S   0  0  0  0  0  0  0  0  0  0  0  0
    5.2590    7.9521    1.5759 C   0  0  0  0  0  0  0  0  0  0  0  0
    4.2736    8.4065    0.5186 C   0  0  0  0  0  0  0  0  0  0  0  0
    3.9557    6.6100    4.2800 C   0  0  0  0  0  0  0  0  0  0  0  0
    4.2238    5.4140    5.5081 S   0  0  0  0  0  0  0  0  0  0  0  0
    2.8384    6.4792    3.3998 C   0  0  0  0  0  0  0  0  0  0  0  0
    1.9397    7.4446    2.9821 C   0  0  0  0  0  0  0  0  0  0  0  0
    1.9173    8.8189    3.4798 C   0  0  0  0  0  0  0  0  0  0  0  0
    1.6298    9.8809    2.6265 C   0  0  0  0  0  0  0  0  0  0  0  0
    1.6424   11.1743    3.1105 C   0  0  0  0  0  0  0  0  0  0  0  0
    1.9351   11.4222    4.4401 C   0  0  0  0  0  0  0  0  0  0  0  0
    2.1937   10.3729    5.3125 C   0  0  0  0  0  0  0  0  0  0  0  0
    2.5477   10.6230    6.7500 C   0  0  0  0  0  0  0  0  0  0  0  0
    4.0608   10.5138    6.9478 C   0  0  0  0  0  0  0  0  0  0  0  0
    2.1717    9.0771    4.8232 C   0  0  0  0  0  0  0  0  0  0  0  0
    0.9975    6.9024    2.0825 C   0  0  0  0  0  0  0  0  0  0  0  0
   -0.3516    7.6027    1.2206 S   0  0  0  0  0  0  0  0  0  0  0  0
   -0.6945    6.0489    0.5420 C   0  0  0  0  0  0  0  0  0  0  0  0
   -1.5688    5.4692   -0.3915 C   0  0  0  0  0  0  0  0  0  0  0  0
   -2.5285    6.0423   -1.2547 C   0  0  0  0  0  0  0  0  0  0  0  0
   -3.1300    5.2219   -2.2693 C   0  0  0  0  0  0  0  0  0  0  0  0
   -3.9460    5.9072   -3.0545 N   0  0  0  0  0  0  0  0  0  0  0  0
   -3.9651    7.4479   -2.5559 S   0  0  0  0  0  0  0  0  0  0  0  0
   -2.9269    7.3027   -1.3221 N   0  0  0  0  0  0  0  0  0  0  0  0
   -2.8390    3.8405   -2.2931 C   0  0  0  0  0  0  0  0  0  0  0  0
   -3.3176    2.7941   -3.1014 C   0  0  0  0  0  0  0  0  0  0  0  0
   -4.3620    2.5518   -4.4611 S   0  0  0  0  0  0  0  0  0  0  0  0
   -4.0488    0.8324   -4.3693 C   0  0  0  0  0  0  0  0  0  0  0  0
   -4.5077   -0.2730   -5.1128 C   0  0  0  0  0  0  0  0  0  0  0  0
   -5.5068   -0.1692   -6.1766 C   0  0  0  0  0  0  0  0  0  0  0  0
   -6.5606   -1.0786   -6.2534 C   0  0  0  0  0  0  0  0  0  0  0  0
   -7.5097   -0.9503   -7.2482 C   0  0  0  0  0  0  0  0  0  0  0  0
   -7.4242    0.0813   -8.1679 C   0  0  0  0  0  0  0  0  0  0  0  0
   -6.3901    1.0059   -8.0973 C   0  0  0  0  0  0  0  0  0  0  0  0
   -6.2701    2.1087   -9.1090 C   0  0  0  0  0  0  0  0  0  0  0  0
   -5.3740    1.6739  -10.2704 C   0  0  0  0  0  0  0  0  0  0  0  0
   -5.4374    0.8700   -7.0986 C   0  0  0  0  0  0  0  0  0  0  0  0
   -3.9657   -1.4559   -4.6349 C   0  0  0  0  0  0  0  0  0  0  0  0
   -2.9156   -1.2123   -3.2595 S   0  0  0  0  0  0  0  0  0  0  0  0
   -3.1810    0.4873   -3.3312 C   0  0  0  0  0  0  0  0  0  0  0  0
   -2.7681    1.6114   -2.6047 C   0  0  0  0  0  0  0  0  0  0  0  0
   -1.9641    1.8766   -1.5256 N   0  0  0  0  0  0  0  0  0  0  0  0
   -1.9700    3.2488   -1.3352 C   0  0  0  0  0  0  0  0  0  0  0  0
   -1.2294    4.0904   -0.4669 C   0  0  0  0  0  0  0  0  0  0  0  0
   -0.1484    3.8575    0.3634 N   0  0  0  0  0  0  0  0  0  0  0  0
    0.1742    5.0422    0.9716 C   0  0  0  0  0  0  0  0  0  0  0  0
    1.1509    5.5338    1.8481 C   0  0  0  0  0  0  0  0  0  0  0  0
    2.4883    4.8916    2.7341 S   0  0  0  0  0  0  0  0  0  0  0  0
    0.7821    2.7510    0.3865 C   0  0  0  0  0  0  0  0  0  0  0  0
    0.7582    2.0016    1.7194 C   0  0  0  0  0  0  0  0  0  0  0  0
   -1.7597    0.8343   -0.5417 C   0  0  0  0  0  0  0  0  0  0  0  0
   -3.0849    0.3736    0.0659 C   0  0  0  0  0  0  0  0  0  0  0  0
   -4.0591   -2.7681   -5.2293 C   0  0  0  0  0  0  0  0  0  0  0  0
   -4.1006   -2.9054   -6.6317 C   0  0  0  0  0  0  0  0  0  0  0  0
   -4.1117   -4.1339   -7.2464 C   0  0  0  0  0  0  0  0  0  0  0  0
   -4.0461   -5.3272   -6.5088 C   0  0  0  0  0  0  0  0  0  0  0  0
   -4.0501   -5.2023   -5.1270 C   0  0  0  0  0  0  0  0  0  0  0  0
   -4.1057   -6.2524   -4.0792 C   0  0  0  0  0  0  0  0  0  0  0  0
   -4.1611   -7.4549   -4.1850 O   0  0  0  0  0  0  0  0  0  0  0  0
   -4.1289   -5.5719   -2.8796 N   0  0  0  0  0  0  0  0  0  0  0  0
   -4.1189   -6.2291   -1.5912 C   0  0  0  0  0  0  0  0  0  0  0  0
   -2.6952   -6.5808   -1.1745 C   0  0  0  0  0  0  0  0  0  0  0  0
   -4.1081   -4.1944   -3.0354 C   0  0  0  0  0  0  0  0  0  0  0  0
   -4.1611   -3.4125   -2.1169 O   0  0  0  0  0  0  0  0  0  0  0  0
   -4.0571   -3.9564   -4.4960 C   0  0  0  0  0  0  0  0  0  0  0  0
   -3.9993   -6.6137   -7.1818 C   0  0  0  0  0  0  0  0  0  0  0  0
   -3.1312   -7.5952   -6.8732 C   0  0  0  0  0  0  0  0  0  0  0  0
   -2.0149   -7.4663   -5.8852 C   0  0  0  0  0  0  0  0  0  0  0  0
   -1.5895   -6.4505   -5.3812 O   0  0  0  0  0  0  0  0  0  0  0  0
   -1.4763   -8.8234   -5.7206 C   0  0  0  0  0  0  0  0  0  0  0  0
   -0.4668   -9.2167   -4.8436 C   0  0  0  0  0  0  0  0  0  0  0  0
   -0.1555  -10.5522   -4.9098 C   0  0  0  0  0  0  0  0  0  0  0  0
   -0.8066  -11.4390   -5.7806 C   0  0  0  0  0  0  0  0  0  0  0  0
   -1.8016  -11.0664   -6.6505 C   0  0  0  0  0  0  0  0  0  0  0  0
   -2.1265   -9.7056   -6.6094 C   0  0  0  0  0  0  0  0  0  0  0  0
   -3.1025   -8.9586   -7.3916 C   0  0  0  0  0  0  0  0  0  0  0  0
   -3.8432   -9.4487   -8.4312 C   0  0  0  0  0  0  0  0  0  0  0  0
   -3.7781  -10.7769   -8.9061 C   0  0  0  0  0  0  0  0  0  0  0  0
   -3.7712  -11.8341   -9.3527 N   0  0  0  0  0  0  0  0  0  0  0  0
   -4.7507   -8.6961   -9.2078 C   0  0  0  0  0  0  0  0  0  0  0  0
   -5.4956   -8.1504   -9.8902 N   0  0  0  0  0  0  0  0  0  0  0  0
    0.0181  -12.6163   -5.3252 C   0  0  0  0  0  0  0  0  0  0  0  0
    1.1605  -13.0933   -6.2560 C   0  0  0  0  0  0  0  0  0  0  0  0
    1.5833  -11.8921   -7.0651 C   0  0  0  0  0  0  0  0  0  0  0  0
    2.2016  -11.0506   -6.2473 C   0  0  0  0  0  0  0  0  0  0  0  0
    2.2087  -11.6680   -4.8705 C   0  0  0  0  0  0  0  0  0  0  0  0
    2.3137  -13.1558   -5.2417 C   0  0  0  0  0  0  0  0  0  0  0  0
    0.7462  -11.6283   -4.3601 C   0  0  0  0  0  0  0  0  0  0  0  0
    7.2065    6.6733    7.3886 H   0  0  0  0  0  0  0  0  0  0  0  0
    4.1477    1.3731    8.8451 H   0  0  0  0  0  0  0  0  0  0  0  0
    8.2035    2.9836   11.4157 H   0  0  0  0  0  0  0  0  0  0  0  0
    7.5144   -0.2894   12.1787 H   0  0  0  0  0  0  0  0  0  0  0  0
    6.8304    0.7054   14.3558 H   0  0  0  0  0  0  0  0  0  0  0  0
    5.3184    2.7628   13.7928 H   0  0  0  0  0  0  0  0  0  0  0  0
    3.1827    1.8903   12.4764 H   0  0  0  0  0  0  0  0  0  0  0  0
    3.3776   -0.7063   12.2300 H   0  0  0  0  0  0  0  0  0  0  0  0
    5.5490   -1.5346   13.5888 H   0  0  0  0  0  0  0  0  0  0  0  0
    4.5017   -0.5286   14.6206 H   0  0  0  0  0  0  0  0  0  0  0  0
    5.4392   -1.1421   10.9023 H   0  0  0  0  0  0  0  0  0  0  0  0
    6.6495    8.1053    5.5328 H   0  0  0  0  0  0  0  0  0  0  0  0
    5.1179    6.9040    1.8319 H   0  0  0  0  0  0  0  0  0  0  0  0
    6.2850    8.1050    1.2405 H   0  0  0  0  0  0  0  0  0  0  0  0
    4.4658    7.8774   -0.4133 H   0  0  0  0  0  0  0  0  0  0  0  0
    4.3752    9.4743    0.3413 H   0  0  0  0  0  0  0  0  0  0  0  0
    3.2532    8.2039    0.8311 H   0  0  0  0  0  0  0  0  0  0  0  0
    1.4168    9.6963    1.5845 H   0  0  0  0  0  0  0  0  0  0  0  0
    1.4294   11.9962    2.4432 H   0  0  0  0  0  0  0  0  0  0  0  0
    1.9561   12.4384    4.8065 H   0  0  0  0  0  0  0  0  0  0  0  0
    2.0481    9.8895    7.3872 H   0  0  0  0  0  0  0  0  0  0  0  0
    2.2138   11.6185    7.0479 H   0  0  0  0  0  0  0  0  0  0  0  0
    4.5766   11.2293    6.3117 H   0  0  0  0  0  0  0  0  0  0  0  0
    4.4071    9.5169    6.6838 H   0  0  0  0  0  0  0  0  0  0  0  0
    4.3261   10.7115    7.9838 H   0  0  0  0  0  0  0  0  0  0  0  0
    2.3466    8.2525    5.4996 H   0  0  0  0  0  0  0  0  0  0  0  0
   -6.6384   -1.8708   -5.5234 H   0  0  0  0  0  0  0  0  0  0  0  0
   -8.3261   -1.6553   -7.3037 H   0  0  0  0  0  0  0  0  0  0  0  0
   -8.1725    0.1754   -8.9415 H   0  0  0  0  0  0  0  0  0  0  0  0
   -5.8435    2.9958   -8.6370 H   0  0  0  0  0  0  0  0  0  0  0  0
   -7.2585    2.3666   -9.4938 H   0  0  0  0  0  0  0  0  0  0  0  0
   -4.3773    1.4299   -9.9093 H   0  0  0  0  0  0  0  0  0  0  0  0
   -5.7865    0.7934  -10.7584 H   0  0  0  0  0  0  0  0  0  0  0  0
   -5.2908    2.4710  -11.0053 H   0  0  0  0  0  0  0  0  0  0  0  0
   -4.6228    1.5772   -7.0414 H   0  0  0  0  0  0  0  0  0  0  0  0
    1.7884    3.1599    0.2379 H   0  0  0  0  0  0  0  0  0  0  0  0
    0.5682    2.0913   -0.4552 H   0  0  0  0  0  0  0  0  0  0  0  0
   -0.2530    1.7213    2.0063 H   0  0  0  0  0  0  0  0  0  0  0  0
    1.3651    1.1035    1.6463 H   0  0  0  0  0  0  0  0  0  0  0  0
    1.1653    2.6263    2.5094 H   0  0  0  0  0  0  0  0  0  0  0  0
   -1.1292    1.2095    0.2549 H   0  0  0  0  0  0  0  0  0  0  0  0
   -1.2658   -0.0096   -1.0336 H   0  0  0  0  0  0  0  0  0  0  0  0
   -3.7185   -0.0964   -0.6804 H   0  0  0  0  0  0  0  0  0  0  0  0
   -2.8897   -0.3522    0.8505 H   0  0  0  0  0  0  0  0  0  0  0  0
   -3.6164    1.2207    0.4952 H   0  0  0  0  0  0  0  0  0  0  0  0
   -4.1011   -2.0125   -7.2372 H   0  0  0  0  0  0  0  0  0  0  0  0
   -4.1261   -4.1897   -8.3248 H   0  0  0  0  0  0  0  0  0  0  0  0
   -4.5731   -5.5424   -0.8730 H   0  0  0  0  0  0  0  0  0  0  0  0
   -4.7248   -7.1346   -1.6765 H   0  0  0  0  0  0  0  0  0  0  0  0
   -2.7046   -7.0867   -0.2130 H   0  0  0  0  0  0  0  0  0  0  0  0
   -2.0943   -5.6779   -1.0929 H   0  0  0  0  0  0  0  0  0  0  0  0
   -2.2442   -7.2376   -1.9149 H   0  0  0  0  0  0  0  0  0  0  0  0
   -4.7232   -6.7516   -7.9745 H   0  0  0  0  0  0  0  0  0  0  0  0
    0.0042   -8.5016   -4.1872 H   0  0  0  0  0  0  0  0  0  0  0  0
   -2.2929  -11.7611   -7.3111 H   0  0  0  0  0  0  0  0  0  0  0  0
   -0.5342  -13.4445   -4.8863 H   0  0  0  0  0  0  0  0  0  0  0  0
    0.9373  -13.9961   -6.8180 H   0  0  0  0  0  0  0  0  0  0  0  0
    1.3462  -11.7567   -8.1041 H   0  0  0  0  0  0  0  0  0  0  0  0
    2.5841  -10.0708   -6.4665 H   0  0  0  0  0  0  0  0  0  0  0  0
    2.9414  -11.2733   -4.1714 H   0  0  0  0  0  0  0  0  0  0  0  0
    3.2670  -13.4078   -5.7036 H   0  0  0  0  0  0  0  0  0  0  0  0
    2.1208  -13.8267   -4.4057 H   0  0  0  0  0  0  0  0  0  0  0  0
    0.6752  -11.8130   -3.2901 H   0  0  0  0  0  0  0  0  0  0  0  0
  1  2  2  0  0  0  0
  2  3  1  0  0  0  0
  3  4  2  0  0  0  0
  3  5  1  0  0  0  0
  5  6  2  0  0  0  0
  6  7  1  0  0  0  0
  7  8  2  0  0  0  0
  8  9  1  0  0  0  0
  9 10  2  0  0  0  0
 10 11  1  0  0  0  0
 11 12  2  0  0  0  0
 12 13  1  0  0  0  0
 13 14  3  0  0  0  0
 12 15  1  0  0  0  0
 15 16  3  0  0  0  0
  8 17  1  0  0  0  0
 17 18  1  0  0  0  0
 18 19  1  0  0  0  0
 19 20  2  0  0  0  0
 20 21  1  0  0  0  0
 21 22  1  0  0  0  0
 21 23  1  0  0  0  0
  1 24  1  0  0  0  0
 24 25  2  0  0  0  0
 25 26  1  0  0  0  0
 26 27  1  0  0  0  0
 27 28  1  0  0  0  0
 28 29  1  0  0  0  0
 26 30  2  0  0  0  0
 30 31  1  0  0  0  0
 30 32  1  0  0  0  0
 32 33  2  0  0  0  0
 33 34  1  0  0  0  0
 34 35  2  0  0  0  0
 35 36  1  0  0  0  0
 36 37  2  0  0  0  0
 37 38  1  0  0  0  0
 38 39  1  0  0  0  0
 39 40  1  0  0  0  0
 38 41  2  0  0  0  0
 33 42  1  0  0  0  0
 42 43  1  0  0  0  0
 43 44  1  0  0  0  0
 44 45  1  0  0  0  0
 45 46  1  0  0  0  0
 46 47  1  0  0  0  0
 47 48  2  0  0  0  0
 48 49  1  0  0  0  0
 49 50  1  0  0  0  0
 47 51  1  0  0  0  0
 51 52  1  0  0  0  0
 52 53  1  0  0  0  0
 53 54  1  0  0  0  0
 54 55  1  0  0  0  0
 55 56  1  0  0  0  0
 56 57  2  0  0  0  0
 57 58  1  0  0  0  0
 58 59  2  0  0  0  0
 59 60  1  0  0  0  0
 60 61  1  0  0  0  0
 61 62  1  0  0  0  0
 60 63  2  0  0  0  0
 55 64  2  0  0  0  0
 64 65  1  0  0  0  0
 65 66  1  0  0  0  0
 66 67  1  0  0  0  0
 67 68  1  0  0  0  0
 68 69  1  0  0  0  0
 69 70  1  0  0  0  0
 70 71  1  0  0  0  0
 71 72  1  0  0  0  0
 72 73  1  0  0  0  0
 73 74  1  0  0  0  0
 71 75  1  0  0  0  0
 75 76  1  0  0  0  0
 68 77  1  0  0  0  0
 77 78  1  0  0  0  0
 64 79  1  0  0  0  0
 79 80  2  0  0  0  0
 80 81  1  0  0  0  0
 81 82  2  0  0  0  0
 82 83  1  0  0  0  0
 83 84  1  0  0  0  0
 84 85  2  0  0  0  0
 84 86  1  0  0  0  0
 86 87  1  0  0  0  0
 87 88  1  0  0  0  0
 86 89  1  0  0  0  0
 89 90  2  0  0  0  0
 89 91  1  0  0  0  0
 82 92  1  0  0  0  0
 92 93  2  0  0  0  0
 93 94  1  0  0  0  0
 94 95  2  0  0  0  0
 94 96  1  0  0  0  0
 96 97  2  0  0  0  0
 97 98  1  0  0  0  0
 98 99  2  0  0  0  0
 99100  1  0  0  0  0
100101  2  0  0  0  0
101102  1  0  0  0  0
102103  2  0  0  0  0
103104  1  0  0  0  0
104105  3  0  0  0  0
103106  1  0  0  0  0
106107  3  0  0  0  0
 99108  1  0  0  0  0
108109  1  0  0  0  0
109110  1  0  0  0  0
110111  2  0  0  0  0
111112  1  0  0  0  0
112113  1  0  0  0  0
112114  1  0  0  0  0
 11  2  1  0  0  0  0
 23 17  1  0  0  0  0
 31 24  1  0  0  0  0
 74 32  1  0  0  0  0
 91 79  1  0  0  0  0
102 93  1  0  0  0  0
114108  1  0  0  0  0
 10  5  1  0  0  0  0
 22 18  1  0  0  0  0
 41 34  1  0  0  0  0
 73 42  2  0  0  0  0
 91 83  2  0  0  0  0
101 96  1  0  0  0  0
113109  1  0  0  0  0
 23  7  1  0  0  0  0
 72 44  2  0  0  0  0
114 98  1  0  0  0  0
 70 45  2  0  0  0  0
 50 46  2  0  0  0  0
 69 51  2  0  0  0  0
 67 52  2  0  0  0  0
 66 54  2  0  0  0  0
 63 56  1  0  0  0  0
  1115  1  0  0  0  0
  6116  1  0  0  0  0
  9117  1  0  0  0  0
 17118  1  0  0  0  0
 18119  1  0  0  0  0
 19120  1  0  0  0  0
 20121  1  0  0  0  0
 21122  1  0  0  0  0
 22123  1  0  0  0  0
 22124  1  0  0  0  0
 23125  1  0  0  0  0
 25126  1  0  0  0  0
 28127  1  0  0  0  0
 28128  1  0  0  0  0
 29129  1  0  0  0  0
 29130  1  0  0  0  0
 29131  1  0  0  0  0
 35132  1  0  0  0  0
 36133  1  0  0  0  0
 37134  1  0  0  0  0
 39135  1  0  0  0  0
 39136  1  0  0  0  0
 40137  1  0  0  0  0
 40138  1  0  0  0  0
 40139  1  0  0  0  0
 41140  1  0  0  0  0
 57141  1  0  0  0  0
 58142  1  0  0  0  0
 59143  1  0  0  0  0
 61144  1  0  0  0  0
 61145  1  0  0  0  0
 62146  1  0  0  0  0
 62147  1  0  0  0  0
 62148  1  0  0  0  0
 63149  1  0  0  0  0
 75150  1  0  0  0  0
 75151  1  0  0  0  0
 76152  1  0  0  0  0
 76153  1  0  0  0  0
 76154  1  0  0  0  0
 77155  1  0  0  0  0
 77156  1  0  0  0  0
 78157  1  0  0  0  0
 78158  1  0  0  0  0
 78159  1  0  0  0  0
 80160  1  0  0  0  0
 81161  1  0  0  0  0
 87162  1  0  0  0  0
 87163  1  0  0  0  0
 88164  1  0  0  0  0
 88165  1  0  0  0  0
 88166  1  0  0  0  0
 92167  1  0  0  0  0
 97168  1  0  0  0  0
100169  1  0  0  0  0
108170  1  0  0  0  0
109171  1  0  0  0  0
110172  1  0  0  0  0
111173  1  0  0  0  0
112174  1  0  0  0  0
113175  1  0  0  0  0
113176  1  0  0  0  0
114177  1  0  0  0  0
M  END
