177

C         -3.89880        0.32750       -5.53420
C         -4.99890        1.03100       -5.11160
C         -6.14300        0.47390       -4.38210
O         -6.26580       -0.65640       -3.94130
C         -7.14350        1.55320       -4.30290
C         -8.40710        1.48450       -3.72140
C         -9.11960        2.65780       -3.79410
C         -8.61690        3.81170       -4.40930
C         -7.37230        3.89210       -4.98890
C         -6.62610        2.71260       -4.91560
C         -5.26640        2.42750       -5.37150
C         -4.37370        3.35720       -5.84610
C         -3.01000        3.11570       -6.10420
N         -1.87940        3.02110       -6.29200
C         -4.67790        4.71480       -6.07180
N         -4.85180        5.82990       -6.28550
C         -9.86010        4.61130       -4.10820
C         -9.76580        5.61310       -2.93780
C        -11.20830        5.87840       -2.57160
C        -11.68330        4.78650       -1.98630
C        -10.57000        3.76460       -1.94730
C         -9.36330        4.69630       -1.77540
C        -10.41960        3.32520       -3.41950
C         -3.49110       -0.97100       -5.20460
C         -2.30600       -1.52720       -5.68130
C         -1.96880       -2.72740       -5.07990
S         -0.52620       -3.66410       -5.46940
C          0.76360       -2.36810       -5.36540
C          0.86600       -1.78230       -3.97200
C         -2.90700       -3.14340       -4.12920
S         -4.25340       -2.04470       -4.05110
C         -2.74650       -4.15810       -3.15710
C         -3.68880       -4.59510       -2.23060
C         -5.12980       -4.39910       -2.37860
C         -5.75510       -4.69190       -3.58960
C         -7.11770       -4.51700       -3.71840
C         -7.86610       -4.05460       -2.64910
C         -7.26050       -3.76580       -1.43420
C         -8.06880       -3.31660       -0.25130
C         -8.38360       -4.50560        0.65870
C         -5.89140       -3.94700       -1.30810
C         -3.07880       -5.23740       -1.14070
S         -3.68490       -5.80070        0.40510
C         -2.05050       -6.02460        0.94100
C         -1.33960       -6.17950        2.14240
C         -1.79420       -6.23560        3.47900
C         -0.86580       -5.94740        4.53670
N         -1.44630       -5.92520        5.72560
S         -3.02080       -6.25300        5.53560
N         -3.02600       -6.42080        3.92440
C          0.48850       -5.71200        4.21370
C          1.55940       -5.21750        4.98120
S          1.83430       -4.45060        6.51190
C          3.42020       -3.94630        5.96260
C          4.36550       -3.00700        6.44490
C          4.28850       -2.31010        7.72730
C          5.45330       -2.00220        8.42980
C          5.37480       -1.35050        9.64420
C          4.14330       -1.00320       10.17410
C          2.97290       -1.29980        9.48860
C          1.62700       -0.97190       10.06750
C          1.01420       -2.21140       10.72230
C          3.05800       -1.95250        8.26790
C          5.38760       -2.81980        5.53820
S          5.24920       -3.86210        4.13010
C          3.73520       -4.45800        4.70500
C          2.66810       -5.16560        4.13810
N          2.34230       -5.61730        2.88680
C          0.97950       -5.88910        2.88940
C          0.04280       -6.02280        1.83150
N          0.15830       -5.82930        0.46730
C         -1.10400       -5.76990       -0.05540
C         -1.68740       -5.32140       -1.24330
S         -1.11290       -4.67580       -2.73810
C          1.27470       -5.41050       -0.34510
C          1.64060       -3.94990       -0.08910
C          3.39160       -6.12210        2.02510
C          3.21960       -7.61220        1.74550
C          6.29190       -1.69490        5.38230
C          5.78110       -0.40310        5.59400
C          6.47590        0.66570        5.08550
C          6.02050        2.07630        4.94790
O          5.06790        2.60250        5.46850
C          6.99970        2.67570        4.00260
C          8.04440        1.75850        3.76330
C          7.70440        0.49920        4.41350
C          8.26780       -0.75960        4.31870
C          7.54390       -1.84800        4.78590
C          9.08620        2.10860        2.92430
C          9.01720        3.31970        2.25010
C          7.90840        4.16050        2.37080
C          6.91180        3.85870        3.31210
C          7.77100        5.28990        1.47190
C          6.64410        5.55590        0.77230
C          5.49650        4.60930        0.62790
O          5.29660        3.57830        1.23100
C          4.68830        5.13640       -0.48340
C          3.54300        4.54990       -1.02080
C          2.99600        5.24650       -2.07020
C          3.55040        6.43980       -2.55800
C          4.67450        7.03210       -2.03380
C          5.24700        6.34050       -0.95890
C          6.42680        6.65430       -0.16240
C          7.16510        7.80370       -0.23110
C          8.26250        8.10360        0.60510
N          9.15570        8.42020        1.25310
C          6.91680        8.86160       -1.13180
N          6.77620        9.75370       -1.84020
C          2.49790        6.58100       -3.63000
C          2.91340        6.19390       -5.06520
C          1.59790        5.96800       -5.77750
C          1.07210        4.84120       -5.31390
C          2.02470        4.28790       -4.27760
C          3.36230        4.73870       -4.87870
C          1.87890        5.25490       -3.08270
H         -3.20810        0.84240       -6.19230
H         -8.75550        0.57270       -3.26190
H         -7.00230        4.78530       -5.46400
H        -10.38840        5.01260       -4.97090
H         -9.14170        6.48120       -3.13120
H        -11.73300        6.78280       -2.81740
H        -12.68430        4.59640       -1.64570
H        -10.67870        2.94920       -1.23720
H         -9.37750        5.21530       -0.81840
H         -8.40080        4.20590       -1.90910
H        -11.32230        2.86930       -3.82190
H         -1.70470       -1.03740       -6.42670
H          1.67920       -2.88670       -5.64650
H          0.54350       -1.60500       -6.11000
H          1.67270       -1.05300       -3.93660
H         -0.06200       -1.28460       -3.69640
H          1.06740       -2.56660       -3.24590
H         -5.16840       -5.06110       -4.41840
H         -7.60110       -4.74300       -4.65740
H         -8.93200       -3.91600       -2.76060
H         -9.00160       -2.86180       -0.58990
H         -7.50910       -2.56920        0.31470
H         -8.96280       -4.18280        1.52070
H         -7.46370       -4.96710        1.01030
H         -8.95600       -5.25500        0.11640
H         -5.40640       -3.71160       -0.37190
H          6.41360       -2.28620        8.02530
H          6.27960       -1.11480       10.18510
H          4.09130       -0.49610       11.12670
H          1.72520       -0.17890       10.81090
H          0.96190       -0.61910        9.27650
H          0.03810       -1.97710       11.14050
H          1.65710       -2.57310       11.52190
H          0.89700       -3.00750        9.99050
H          2.15150       -2.16740        7.72210
H          0.96160       -5.52460       -1.38650
H          2.12270       -6.07490       -0.18900
H          0.80480       -3.30870       -0.35940
H          2.50100       -3.66900       -0.69080
H          1.87290       -3.78110        0.95970
H          4.33080       -5.96270        2.56140
H          3.45610       -5.54540        1.10070
H          4.02100       -7.96200        1.10000
H          3.25420       -8.17280        2.67690
H          2.26590       -7.81700        1.26430
H          4.81760       -0.26050        6.05860
H          9.21990       -0.91110        3.83290
H          7.93250       -2.84640        4.64180
H          9.92150        1.44410        2.76250
H          9.80110        3.58660        1.55550
H          6.08810        4.53340        3.48340
H          8.65790        5.89000        1.30840
H          3.15150        3.63100       -0.61320
H          5.08810        7.94990       -2.41760
H          1.90200        7.49050       -3.59130
H          3.61410        6.87840       -5.53570
H          1.17430        6.65640       -6.48450
H          0.12700        4.39410       -5.56050
H          1.91570        3.23630       -4.02630
H          3.57140        4.24910       -5.82830
H          4.21410        4.61750       -4.21100
H          0.86940        5.27930       -2.67710
