222

C          6.97380        6.85570       10.66630
C          8.01590        7.57650       10.15670
C          8.41140        7.79250        8.74280
O          7.77220        7.60260        7.72740
C          9.79110        8.30900        8.78690
C         10.61470        8.56720        7.69210
C         11.86570        9.02280        8.02940
C         12.26930        9.21180        9.35870
C         11.46360        8.97350       10.44620
C         10.18440        8.50770       10.12420
C          9.06480        8.15210       10.98950
C          8.99710        8.39810       12.33490
C          7.87630        8.16750       13.16250
N          7.01110        8.03950       13.90670
C         10.03770        8.98020       13.09010
N         10.84050        9.44330       13.76780
C         13.65040        9.66720        8.95860
C         14.78880        8.63700        9.11790
C         15.88620        9.17020        8.22540
C         15.50430        8.99370        6.96690
C         14.14230        8.33820        6.98760
C         14.28350        7.47740        8.24970
C         13.20000        9.45870        7.47700
C          5.90440        6.19040       10.02470
C          5.47480        6.19730        8.72190
C          4.37670        5.35110        8.48170
C          3.74340        5.11000        7.24340
C          4.21910        5.75680        6.03300
S          5.89610        5.67180        5.58380
C          5.65410        6.66100        4.18910
C          6.81480        7.09350        3.36440
C          7.56100        8.23180        4.06640
C          4.34310        7.01900        4.08180
Cl         3.71900        8.00840        2.82540
C          3.52350        6.50020        5.11940
Cl         1.85470        6.86940        5.24420
C          2.69300        4.21050        7.24900
C          2.24830        3.54140        8.42140
C          2.85660        3.80160        9.66690
C          2.41720        3.18060       10.90040
C          2.33520        3.76620       12.13410
C          1.88590        2.89180       13.14130
C          1.63240        1.63230       12.69280
C          1.18730        0.44190       13.46880
C          2.34430       -0.53200       13.70360
S          1.94200        1.50520       10.99370
C          3.91630        4.70570        9.65920
S          4.88930        5.15330       11.02790
C          1.19370        2.64620        8.14150
C          0.83910        2.59780        6.82180
S          1.80320        3.69230        5.84800
C         -0.11790        1.75610        6.18690
C         -0.97250        0.81620        6.74050
C         -1.22870        0.59790        8.16810
C         -1.63730        1.64520        8.99110
C         -1.89130        1.40970       10.32810
C         -1.74690        0.13590       10.85260
C         -1.36010       -0.92280       10.04260
C         -1.18140       -2.30670       10.59740
C          0.30230       -2.64450       10.75240
C         -1.10810       -0.67950        8.69940
C         -1.61280        0.06120        5.73900
S         -2.72440       -1.28660        5.80900
C         -2.73110       -1.33830        4.07820
C         -3.24220       -2.13220        3.03800
C         -3.94650       -3.35600        3.06280
C         -4.16400       -4.05630        1.82860
N         -4.76300       -5.22310        2.00800
S         -5.03740       -5.42060        3.59150
N         -4.39800       -4.02690        4.11080
C         -3.79450       -3.43340        0.61660
C         -4.00440       -3.80620       -0.72030
S         -4.63780       -5.14160       -1.62070
C         -4.35900       -4.24330       -3.09170
C         -4.59340       -4.55030       -4.44220
C         -5.19680       -5.81040       -4.89690
C         -6.37880       -5.80240       -5.63390
C         -6.91190       -6.99240       -6.08860
C         -6.28040       -8.19280       -5.80930
C         -5.11350       -8.21960       -5.05780
C         -4.45180       -9.52000       -4.70690
C         -4.82590       -9.94120       -3.28510
C         -4.58290       -7.02030       -4.60010
C         -4.20970       -3.50490       -5.26660
S         -3.59020       -2.13080       -4.36890
C         -3.81150       -2.97410       -2.87660
C         -3.59150       -2.73240       -1.51500
N         -3.10640       -1.72540       -0.72230
C         -3.19430       -2.14320        0.59310
C         -2.78850       -1.55540        1.81910
N         -1.99110       -0.46030        2.11880
C         -1.94430       -0.34920        3.48420
C         -1.29020        0.44340        4.43510
S         -0.15630        1.74440        4.42970
C         -0.91660        0.12130        1.34370
C          0.21050       -0.88700        1.13070
C         -2.95630       -0.39250       -1.26090
C         -1.66750       -0.23220       -2.06580
C         -4.19720       -3.49730       -6.69010
C         -4.24590       -4.59760       -7.49880
C         -4.24660       -4.29750       -8.87550
C         -4.36790       -5.21280       -9.93570
C         -4.50940       -6.64360       -9.63200
C         -5.62220       -7.36510      -10.05590
C         -5.79340       -8.67660       -9.66670
C         -4.86800       -9.31840       -8.84510
S         -5.23400      -10.96790       -8.33540
C         -3.58330      -11.77290       -8.24010
C         -3.75580      -13.26820       -8.41810
C         -3.75510       -8.58840       -8.44080
F         -2.82050       -9.13300       -7.62880
C         -3.56600       -7.27960       -8.83170
C         -4.40320       -4.68050      -11.21120
C         -4.27290       -3.28630      -11.45750
C         -4.17000       -2.36770      -10.39130
C         -4.14430       -0.92720      -10.66840
C         -3.21660       -0.37390      -11.55090
C         -3.25720        0.96740      -11.85800
C         -4.22780        1.81510      -11.31850
S         -4.19110        3.47960      -11.89560
C         -4.95040        4.49900      -10.58060
C         -4.16740        4.43630       -9.28460
C         -5.14440        1.24610      -10.43820
C         -5.09900       -0.09200      -10.10110
F         -6.13190        1.98030       -9.88230
C         -4.18160       -2.90010       -9.11740
S         -4.10820       -2.00880       -7.61660
C         -4.36680       -2.98450      -12.82610
C         -4.57300       -4.07980      -13.63070
S         -4.60120       -5.56780      -12.69440
C         -4.70170       -4.12940      -15.03540
C         -4.93070       -3.10780      -15.91120
C         -4.59270       -3.31620      -17.34420
O         -4.36110       -4.36990      -17.88650
C         -4.54750       -1.95600      -17.92960
C         -4.95030       -1.01600      -16.96160
C         -4.94750        0.33680      -17.25880
C         -4.55050        0.73450      -18.52700
C         -4.17130       -0.19380      -19.48470
Br        -3.65430        0.41240      -21.19730
C         -4.16110       -1.56490      -19.20170
Cl        -3.68840       -2.71280      -20.37920
C         -5.34260       -1.73190      -15.74750
C         -6.16070       -1.21990      -14.77290
C         -6.54800        0.13300      -14.69050
N         -6.86740        1.22670      -14.55170
C         -6.76550       -2.00010      -13.76620
N         -7.31430       -2.59480      -12.95250
H          6.97230        6.71430       11.74120
H         10.26300        8.40970        6.68440
H         11.78880        9.12500       11.46170
H         13.93280       10.66690        9.28260
H         15.05930        8.41320       10.14610
H         16.77300        9.65480        8.58940
H         16.00830        9.30180        6.06970
H         13.82440        7.84140        6.07490
H         15.03160        6.69510        8.13240
H         13.34900        7.03840        8.59450
H         13.18120       10.32030        6.81220
H          5.94680        6.79720        7.96800
H          7.49280        6.25000        3.22060
H          6.45680        7.42690        2.38890
H          7.85380        7.92520        5.06810
H          8.44910        8.50310        3.50130
H          6.91990        9.10600        4.14900
H          2.55310        4.80390       12.31080
H          1.75190        3.19060       14.16570
H          0.78940        0.77650       14.42910
H          0.38930       -0.06930       12.92460
H          2.00070       -1.40040       14.26040
H          3.13680       -0.04700       14.26880
H          2.75560       -0.86670       12.75350
H          0.71890        2.04020        8.88690
H         -1.75810        2.63510        8.57620
H         -2.20490        2.22270       10.96610
H         -1.95380       -0.03750       11.89920
H         -1.67450       -2.38240       11.56850
H         -1.64500       -3.03060        9.92360
H          0.42280       -3.64380       11.16380
H          0.80530       -2.60240        9.78940
H          0.78640       -1.93430       11.41800
H         -0.80470       -1.49380        8.05770
H         -6.86470       -4.86330       -5.85340
H         -7.82340       -6.98560       -6.66730
H         -6.69740       -9.11780       -6.18020
H         -4.77100      -10.29330       -5.40750
H         -3.36720       -9.41400       -4.78040
H         -4.51890       -9.18190       -2.56940
H         -4.34110      -10.87980       -3.02670
H         -5.90250      -10.07200       -3.20260
H         -3.66760       -7.02350       -4.02540
H         -1.27680        0.49590        0.39000
H         -0.54320        0.97410        1.91610
H         -0.15160       -1.75730        0.58690
H          0.60100       -1.22030        2.08940
H          1.01920       -0.42780        0.56860
H         -3.02330        0.32510       -0.44210
H         -3.80650       -0.20730       -1.92790
H         -1.70720       -0.85150       -2.95760
H         -1.55470        0.80330       -2.37510
H         -0.79610       -0.52670       -1.48830
H         -4.28460       -5.59880       -7.11800
H         -6.36510       -6.88720      -10.67520
H         -6.66280       -9.23020       -9.98510
H         -2.97500      -11.34860       -9.03730
H         -3.13990      -11.53960       -7.27320
H         -4.21260      -13.48900       -9.38010
H         -4.38980      -13.67560       -7.63390
H         -2.78500      -13.75690       -8.37070
H         -2.67870       -6.76260       -8.49990
H         -2.44380       -0.99780      -11.97480
H         -2.53410        1.39350      -12.53640
H         -5.98710        4.19790      -10.45140
H         -4.92350        5.50270      -11.00570
H         -4.60520        5.12090       -8.56110
H         -4.18940        3.43380       -8.86290
H         -3.13010        4.71920       -9.45160
H         -5.84710       -0.47950       -9.42750
H         -4.25140       -1.98790      -13.21050
H         -4.52340       -5.09470      -15.49890
H         -5.23230        1.07840      -16.53080
H         -4.53600        1.78340      -18.78020
