176

C         -8.66170        2.75670       -5.79970
C         -9.82460        2.04900       -5.62930
C        -10.18240        1.26260       -4.44370
O         -9.53080        1.11030       -3.42390
C        -11.50460        0.67710       -4.71720
C        -12.23640       -0.16060       -3.87870
C        -13.43240       -0.57650       -4.41230
C        -13.86980       -0.18270       -5.68380
C        -13.16010        0.64990       -6.51690
C        -11.93610        1.08110       -5.99620
C        -10.90990        1.94320       -6.58380
C        -10.98190        2.52160       -7.82610
C         -9.99470        3.33690       -8.41690
N         -9.24540        4.00340       -8.97840
C        -12.06990        2.38080       -8.71270
N        -12.91120        2.31020       -9.49130
C        -15.14040       -0.99020       -5.58460
C        -15.16980       -2.32230       -6.36380
C        -16.29080       -3.09910       -5.71170
C        -15.87600       -3.47220       -4.50780
C        -14.46780       -2.95370       -4.32600
C        -13.96060       -3.05670       -5.77020
C        -14.65220       -1.42940       -4.16690
C         -7.54740        2.87250       -4.95640
C         -6.43190        3.63780       -5.28800
C         -5.41700        3.58920       -4.34710
S         -3.89820        4.47710       -4.51570
C         -3.28520        3.74530       -6.07890
C         -2.98470        2.26810       -5.92770
C         -5.73460        2.79550       -3.24150
S         -7.32390        2.11160       -3.39790
C         -4.90510        2.45860       -2.14560
C         -5.26550        1.74900       -1.00590
C         -6.63580        1.38540       -0.62990
C         -6.96990        0.05180       -0.42940
C         -8.26530       -0.28520       -0.08350
C         -9.22320        0.69860        0.07270
C         -8.89920        2.03870       -0.10220
C         -9.92820        3.10900        0.11930
C         -9.99400        3.49210        1.59900
C         -7.59970        2.37170       -0.44490
C         -4.14850        1.42510       -0.22480
S         -3.98090        0.54600        1.27790
C         -2.26980        0.79500        1.19330
C         -1.10870        0.43580        1.89010
C         -0.95420       -0.38110        3.03010
C          0.36860       -0.69130        3.47960
N          0.37300       -1.49870        4.52910
S         -1.16290       -1.83490        4.91910
N         -1.88970       -0.96580        3.76200
C          1.46570       -0.11060        2.80930
C          2.83730       -0.20010        3.08250
S          3.90810       -0.99690        4.18330
C          5.25960       -0.20630        3.40630
C          6.65020       -0.23320        3.64840
C          7.24050       -0.86690        4.82370
C          8.22410       -0.20140        5.55220
C          8.67410       -0.72920        6.74610
C          8.14440       -1.91260        7.23060
C          7.15980       -2.58730        6.52090
C          6.56620       -3.86260        7.04620
C          7.25790       -5.07730        6.42960
C          6.72710       -2.06330        5.31290
C          7.32180        0.57090        2.74660
S          6.23710        1.41480        1.64560
C          4.87450        0.63300        2.35840
C          3.48660        0.63000        2.16880
N          2.57150        1.22480        1.34460
C          1.31170        0.76970        1.69620
C          0.00120        0.99100        1.18310
N         -0.49690        1.64190        0.06810
C         -1.85990        1.53050        0.07860
C         -2.93530        1.89210       -0.74000
S         -3.17090        2.76650       -2.21200
C          0.12780        2.26860       -1.07270
C          0.09160        3.79370       -0.97320
C          3.03160        2.23820        0.42370
C          3.65260        1.62730       -0.83290
C          8.71900        0.70770        2.49180
C          9.70300       -0.27200        2.44670
C          9.46830       -1.70440        2.70840
C          8.63560       -2.43620        1.85350
C          8.44990       -3.78920        2.09080
C          9.07590       -4.44120        3.14170
C          8.93550       -5.92790        3.30480
C          9.90770       -6.65400        2.37240
C          9.90210       -3.70210        3.97140
C         10.11610       -2.34670        3.76660
C         11.08470       -1.63510        4.67170
C         12.52650       -2.05510        4.37800
C          8.05050       -1.85650        0.59520
C          8.99850       -2.11130       -0.57860
C         10.92990        0.24360        2.01680
C         10.90550        1.58250        1.67380
S          9.32380        2.25190        1.97910
C         11.99000        2.35380        1.20410
C         11.96680        3.54520        0.54070
C         13.17880        4.41450        0.55770
O         14.29260        4.09670        0.90580
C         12.69170        5.73100        0.11610
C         13.18680        6.98610       -0.02230
S         11.97360        8.06140       -0.61430
C         10.79070        6.80660       -0.68860
C         11.31320        5.62500       -0.26590
C         10.89360        4.24240       -0.13890
C          9.81340        3.69890       -0.78660
C          8.86880        4.50410       -1.45040
N          8.07280        5.14430       -1.97490
C          9.58630        2.31700       -0.93440
N          9.39170        1.20280       -1.13360
H         -8.55320        3.30920       -6.72510
H        -11.85760       -0.43650       -2.90700
H        -13.51520        0.94390       -7.49020
H        -16.06890       -0.42860       -5.66600
H        -15.21140       -2.21630       -7.44430
H        -17.25750       -3.24490       -6.15650
H        -16.42710       -3.99190       -3.74590
H        -13.86930       -3.42360       -3.55000
H        -13.00890       -2.55780       -5.94340
H        -13.89790       -4.08870       -6.11160
H        -15.25590       -1.16140       -3.30180
H         -6.37700        4.21170       -6.19650
H         -2.38450        4.31380       -6.30550
H         -4.03020        3.92810       -6.85180
H         -2.25450        2.10910       -5.13750
H         -2.58540        1.87440       -6.86020
H         -3.88970        1.71630       -5.67900
H         -6.22130       -0.71450       -0.56540
H         -8.52780       -1.32320        0.05890
H        -10.23670        0.42770        0.33180
H        -10.90650        2.74930       -0.20580
H         -9.67670        3.99130       -0.47240
H         -9.02870        3.86350        1.93600
H        -10.74000        4.26710        1.75990
H        -10.25570        2.62640        2.20330
H         -7.32770        3.40940       -0.58210
H          8.60510        0.74510        5.19830
H          9.42670       -0.20230        7.31470
H          8.48600       -2.30690        8.17710
H          6.67020       -3.89730        8.13240
H          5.50220       -3.89420        6.80340
H          8.31780       -5.07170        6.67370
H          7.15470       -5.05420        5.34820
H          6.81870       -5.99840        6.80570
H          5.97220       -2.58860        4.74730
H          1.13920        1.89250       -1.19260
H         -0.44430        1.96710       -1.95690
H          0.51600        4.14250       -0.03380
H          0.64900        4.23100       -1.79670
H         -0.93510        4.14540       -1.02960
H          3.80220        2.81980        0.94170
H          2.21680        2.91600        0.18670
H          4.56040        1.08760       -0.57710
H          3.91090        2.41420       -1.53590
H          2.97310        0.92780       -1.31600
H          7.81290       -4.35290        1.42310
H          7.91500       -6.23540        3.06540
H          9.14860       -6.21490        4.33570
H         10.93230       -6.36810        2.59950
H          9.70410       -6.39650        1.33560
H          9.81330       -7.73130        2.48820
H         10.40350       -4.19150        4.79450
H         10.98980       -0.55460        4.56010
H         10.85070       -1.88740        5.70820
H         13.21470       -1.52630        5.03360
H         12.79340       -1.83370        3.34750
H         12.65240       -3.12370        4.53440
H          7.08620       -2.32860        0.39310
H          7.89190       -0.78380        0.67340
H          9.95200       -1.62060       -0.40020
H          8.57740       -1.70720       -1.49490
H          9.17420       -3.17720       -0.70740
H         11.80730       -0.36300        1.88080
H         12.97840        1.98900        1.46780
H         14.17460        7.34920        0.17860
H          9.79900        7.03290       -1.02580
