253

C        -11.73760        7.15250       -6.03460
C        -12.38980        8.26460       -6.48580
C        -12.07960        9.69390       -6.23800
O        -11.14410       10.17730       -5.63190
C        -13.15160       10.46300       -6.89040
C        -13.28410       11.85070       -6.89800
C        -14.38910       12.30160       -7.57740
C        -15.29390       11.43510       -8.20680
C        -15.16990       10.06670       -8.21260
C        -14.05140        9.58450       -7.52320
C        -13.58770        8.21530       -7.31660
C        -14.18360        7.10190       -7.84880
C        -13.75320        5.76320       -7.71870
N        -13.49170        4.64480       -7.68940
C        -15.34560        7.12350       -8.65080
N        -16.28570        7.04980       -9.30580
C        -16.16820       12.56700       -8.68550
C        -17.47470       12.80750       -7.89960
C        -17.86240       14.22170       -8.26680
C        -17.00600       15.04230       -7.67200
C        -16.02520       14.19670       -6.89230
C        -16.94470       13.04030       -6.47870
C        -15.15960       13.53270       -7.98450
C        -10.58500        6.99860       -5.23020
C         -9.74540        7.89870       -4.62210
C         -8.68750        7.30490       -3.91040
C         -7.64990        7.96090       -3.20440
C         -7.47990        9.39270       -3.25070
C         -7.69920       10.25120       -4.29640
C         -7.36090       11.57740       -3.98900
F         -7.48290       12.57350       -4.87810
C         -6.88800       11.77000       -2.71530
S         -6.29430       13.26760       -2.05010
C         -6.29960       12.89040       -0.26150
C         -7.70150       12.86460        0.31320
S         -6.84190       10.25600       -1.87150
C         -6.77450        7.13890       -2.50510
C         -6.81680        5.72290       -2.54780
C         -7.81880        5.06620       -3.29520
C         -7.88720        3.62680       -3.40680
S         -6.43740        2.66000       -3.55290
C         -7.34560        1.18980       -3.68370
S         -6.62320       -0.38850       -3.84540
C         -4.84700        0.06450       -3.85340
C         -4.00590       -1.19180       -3.95910
C         -8.68670        1.46900       -3.61810
C         -8.99800        2.82990       -3.47290
F         -9.63070        0.51820       -3.67490
C         -8.74630        5.88520       -3.93740
S        -10.08040        5.33970       -4.90490
C         -5.78240        5.15130       -1.77350
C         -4.95780        6.06550       -1.17500
S         -5.44620        7.70490       -1.53020
C         -3.85330        5.77530       -0.32810
C         -3.05350        6.62170        0.41800
C         -3.12100        8.08870        0.42340
C         -3.37430        8.76210        1.61330
C         -3.43620       10.14290        1.62060
C         -3.25380       10.85610        0.44890
C         -2.99280       10.19960       -0.74710
C         -2.77210       10.97150       -2.01560
C         -1.29220       11.31840       -2.18550
C         -2.90680        8.81510       -0.74300
C         -2.14010        5.90000        1.20910
S         -0.91240        6.40310        2.34610
C         -0.49560        4.74030        2.59190
C          0.38570        3.96380        3.36470
C          1.27420        4.31020        4.40620
C          1.94920        3.26380        5.12350
N          2.69770        3.73060        6.11070
S          2.56940        5.34420        6.13470
N          1.55220        5.51220        4.88590
C          1.81000        1.93060        4.67970
C          2.46670        0.74620        5.05690
S          3.65050        0.20450        6.20020
C          3.66200       -1.35880        5.41860
C          4.49450       -2.49090        5.57020
C          5.51840       -2.58420        6.61290
C          6.80600       -3.04730        6.35840
C          7.74920       -3.06150        7.36680
C          7.42180       -2.62850        8.63980
C          6.13980       -2.17380        8.91750
C          5.78130       -1.64610       10.27700
C          5.90620       -0.12120       10.29720
C          5.20170       -2.15230        7.89710
C          4.24640       -3.42010        4.58190
S          2.90300       -2.96190        3.54400
C          2.77720       -1.44000        4.34590
C          2.07960       -0.24130        4.14860
N          1.18690        0.27290        3.24860
C          0.98820        1.60350        3.56510
C          0.16630        2.60870        2.99650
N         -0.85670        2.56000        2.05980
C         -1.25680        3.85210        1.82860
C         -2.20840        4.51470        1.04600
S         -3.44690        4.07850       -0.07600
C         -1.80010        1.48860        1.81770
C         -2.56750        1.13610        3.08990
C          0.93090       -0.43050        2.01280
C         -0.07600       -1.56510        2.19160
C          4.95140       -4.63210        4.29290
C          5.45250       -5.03620        3.06330
N          5.38840       -4.33450        1.87250
C          5.35740       -5.07850        0.67450
C          4.51100       -6.17630        0.55000
C          4.53700       -6.94130       -0.59800
C          5.39380       -6.62910       -1.64640
C          5.45710       -7.50900       -2.85580
C          6.20450       -5.50780       -1.52830
C          6.19170       -4.73640       -0.38300
C          5.33830       -2.93900        1.81140
C          4.55020       -2.31050        0.84850
C          4.40230       -0.93670        0.85800
C          5.01630       -0.15200        1.82600
C          4.78620        1.32650        1.89960
C          5.85700       -0.77900        2.73970
C          6.03370       -2.14670        2.72380
C          6.10190       -6.29370        3.17370
S          6.86270       -7.33770        2.02840
C          7.23730       -8.49030        3.31230
C          6.70080       -8.08550        4.56150
N          6.73510       -8.81130        5.72080
C          6.73360       -8.10920        6.94410
C          5.84700       -8.45080        7.95880
C          5.83620       -7.72930        9.13700
C          6.70530       -6.66400        9.33330
C          6.67350       -5.84980       10.58880
C          7.60830       -6.35070        8.32340
C          7.62540       -7.05780        7.13980
C          6.62030      -10.21300        5.75170
C          7.29860      -10.94030        6.72620
C          7.19240      -12.31630        6.75880
C          6.42350      -13.00080        5.82510
C          6.36080      -14.49680        5.84520
C          5.73250      -12.26320        4.87040
C          5.81640      -10.88600        4.83460
C          6.09330       -6.82140        4.45800
S          5.28880       -5.77650        5.58510
C          8.04740       -9.61210        3.15300
C          8.58710      -10.17050        2.01530
C          8.31820       -9.76490        0.63510
O          7.66520       -8.81090        0.24420
C          8.97950      -10.76360       -0.22520
C          8.99140      -10.79450       -1.61730
C          9.69620      -11.84880       -2.14710
C         10.34040      -12.80270       -1.34970
C         10.33560      -12.78330        0.02550
C          9.62450      -11.71810        0.58510
C          9.41470      -11.35230        1.98710
C          9.94350      -12.02000        3.06660
C          9.86640      -11.60280        4.40890
N          9.88930      -11.32280        5.52440
C         10.67650      -13.21980        2.98230
N         11.26310      -14.20780        2.99880
C         10.85980      -13.56670       -2.54300
C         12.34730      -13.36210       -2.89920
C         12.44240      -13.82360       -4.33560
C         11.83240      -12.91930       -5.09110
C         11.31480      -11.83160       -4.17790
C         12.41160      -11.84320       -3.10540
C         10.14130      -12.50190       -3.43240
H        -12.16000        6.20070       -6.33390
H        -12.55860       12.47750       -6.40340
H        -15.87440        9.41950       -8.70640
H        -16.29990       12.64200       -9.76320
H        -18.23330       12.04120       -8.03290
H        -18.65900       14.46860       -8.94380
H        -16.94420       16.11170       -7.75290
H        -15.46370       14.69650       -6.10750
H        -16.42040       12.18590       -6.05470
H        -17.72840       13.36220       -5.79500
H        -14.61730       14.25280       -8.59430
H         -9.91450        8.95720       -4.66940
H         -8.05230        9.95940       -5.26730
H         -5.70830       13.69120        0.18170
H         -5.78490       11.93880       -0.12360
H         -7.65410       12.67620        1.38350
H         -8.19900       13.81730        0.14700
H         -8.29310       12.07720       -0.14810
H         -4.68210        0.72680       -4.70370
H         -4.64290        0.60430       -2.92780
H         -2.95080       -0.92810       -3.96890
H         -4.23970       -1.73050       -4.87420
H         -4.19510       -1.84970       -3.11420
H        -10.00850        3.18120       -3.38220
H         -5.64790        4.09410       -1.63590
H         -3.53160        8.20200        2.52290
H         -3.63240       10.66540        2.54530
H         -3.30550       11.93560        0.46190
H         -3.35670       11.89360       -1.99480
H         -3.10500       10.37710       -2.86890
H         -0.94780       11.92560       -1.35140
H         -1.13620       11.87340       -3.10740
H         -0.69190       10.41190       -2.21850
H         -2.66950        8.29190       -1.65860
H          7.07900       -3.37970        5.36920
H          8.75190       -3.40210        7.15270
H          8.16710       -2.63940        9.42260
H          6.44450       -2.07350       11.03210
H          4.75480       -1.92550       10.52410
H          5.24670        0.32210        9.55470
H          6.92700        0.17630       10.06770
H          5.64220        0.26980       11.27700
H          4.20130       -1.80220        8.10630
H         -1.30380        0.60730        1.41930
H         -2.49480        1.85190        1.05620
H         -3.10730        2.00620        3.45670
H         -3.28350        0.34450        2.88580
H         -1.88410        0.80390        3.86870
H          1.88210       -0.86080        1.67780
H          0.61200        0.29110        1.25950
H          0.34410       -2.33070        2.83820
H         -0.29620       -2.01640        1.22800
H         -1.00160       -1.21340        2.63890
H          3.84490       -6.42880        1.36280
H          3.88850       -7.80150       -0.67920
H          5.98710       -7.02070       -3.66980
H          4.45840       -7.77920       -3.19420
H          5.98480       -8.42820       -2.60210
H          6.87230       -5.24380       -2.33570
H          6.83880       -3.87600       -0.29240
H          4.03250       -2.90950        0.11390
H          3.78210       -0.46810        0.10600
H          4.32030        1.59000        2.84970
H          4.13910        1.66330        1.09310
H          5.73050        1.86510        1.83640
H          6.37700       -0.18610        3.47830
H          6.70570       -2.61100        3.42760
H          5.16170       -9.27270        7.81320
H          5.13220       -7.99490        9.91220
H          6.02430       -6.30250       11.33360
H          7.67360       -5.75100       11.00720
H          6.30400       -4.84850       10.36670
H          8.30390       -5.53930        8.47050
H          8.32910       -6.80650        6.35970
H          7.91770      -10.42430        7.44290
H          7.73450      -12.86990        7.51040
H          7.30940      -14.91280        5.50510
H          5.57180      -14.86450        5.19390
H          6.18310      -14.86090        6.85530
H          5.11260      -12.77290        4.14670
H          5.26780      -10.32680        4.09070
H          8.27880      -10.12100        4.07980
H          8.48300      -10.03670       -2.19290
H         10.83520      -13.52690        0.62350
H         10.54350      -14.60550       -2.61640
H         13.04860      -13.80280       -2.19590
H         12.87960      -14.75690       -4.63850
H         11.65830      -12.94640       -6.15100
H         11.07600      -10.87730       -4.64000
H         12.16870      -11.26440       -2.21630
H         13.37480      -11.52140       -3.49800
H          9.34660      -12.83190       -4.09920
