157

C          8.61740        2.27230       -5.83450
C          8.35200        3.20930       -6.78350
C          9.42600        4.09550       -7.30870
O         10.61990        3.92340       -7.21520
C          8.71560        5.24990       -7.89710
C          9.27200        6.43410       -8.37600
C          8.34730        7.34520       -8.82830
C          6.96560        7.10960       -8.79390
C          6.40150        5.94470       -8.33210
C          7.32700        4.99980       -7.88560
C          7.10190        3.65800       -7.36110
C          6.01020        2.87650       -7.63700
C          4.89600        3.31930       -8.37570
N          3.97080        3.62280       -8.98450
C          5.92180        1.51120       -7.29730
N          5.82230        0.38920       -7.07170
C          6.64050        8.45370       -9.39510
C          6.23670        8.49020      -10.88950
C          6.88120        7.28870      -11.53570
C          8.18890        7.50590      -11.57870
C          8.45220        8.85760      -10.96220
C          7.17540        9.60140      -11.38550
C          8.17950        8.71190       -9.44420
C          7.68230        1.70520       -4.93610
C          7.79040        0.54760       -4.19800
C          6.67280        0.29070       -3.40100
S          6.52250       -1.16680       -2.41920
C          6.42560       -2.40830       -3.76620
C          5.22230       -2.19110       -4.66020
C          5.69450        1.27660       -3.46920
S          6.19370        2.53870       -4.55140
C          4.42180        1.32010       -2.85260
C          3.41190        2.24710       -3.07620
C          3.50690        3.42040       -3.95800
C          2.81590        3.43320       -5.16380
C          2.90120        4.53700       -5.99220
C          3.67430        5.62350       -5.62440
C          4.36060        5.63200       -4.41650
C          5.16110        6.83180       -3.99940
C          4.27230        7.83890       -3.26710
C          4.25910        4.52870       -3.58290
C          2.24720        1.92030       -2.37230
S          0.68260        2.69340       -2.27530
C          0.18090        1.45690       -1.17250
C         -0.96380        1.07030       -0.46310
C         -2.26560        1.61500       -0.47070
C         -3.29180        0.95620        0.27930
N         -4.47120        1.54420        0.15210
S         -4.30060        2.82200       -0.82830
N         -2.71620        2.67270       -1.12700
C         -2.94330       -0.15860        1.07100
C         -3.71400       -0.89290        1.98330
S         -5.33550       -0.94070        2.58680
C         -4.85220       -2.19910        3.69790
C         -5.54660       -2.87890        4.71570
C         -6.94180       -2.58480        5.05140
C         -7.90630       -2.55400        4.05030
C         -9.21770       -2.25580        4.36980
C         -9.57210       -1.98050        5.67800
C         -8.61730       -1.99220        6.68820
C         -8.98960       -1.64010        8.09940
C         -8.89440       -0.12840        8.31460
C         -7.30420       -2.28890        6.36200
C         -4.72610       -3.77050        5.38510
S         -3.08590       -3.76240        4.74420
C         -3.50640       -2.55370        3.58550
C         -2.85500       -1.80710        2.59510
N         -1.59250       -1.67480        2.08540
C         -1.61470       -0.67430        1.12810
C         -0.62680       -0.10280        0.27660
N          0.68350       -0.42990       -0.02640
C          1.17110        0.51220       -0.89060
C          2.35900        0.77030       -1.58390
S          3.92230        0.04780       -1.74600
C          1.48740       -1.59690        0.25120
C          2.58060       -1.30750        1.28040
C         -0.51590       -2.41290        2.70190
C         -0.48300       -3.86860        2.23540
C         -5.08960       -4.69240        6.41250
C         -4.30710       -5.21310        7.42780
C         -2.87030       -4.91380        7.71450
C         -1.96070       -6.00740        7.15210
C         -5.05190       -6.09570        8.22450
C         -6.38790       -6.26240        7.83570
S         -6.73920       -5.31700        6.43110
C         -7.12750       -7.10140        8.65780
C         -6.36590       -7.60570        9.70030
S         -4.69710       -7.01750        9.63080
C         -6.66060       -8.46940       10.77230
C         -7.82860       -9.04940       11.18480
C         -9.20230       -8.90370       10.62690
O         -9.56270       -8.27730        9.65230
C        -10.06540       -9.68820       11.52170
C        -11.43000       -9.99950       11.64020
C        -11.65270      -10.80820       12.71540
S        -10.22290      -11.20760       13.59860
C         -9.28800      -10.26870       12.51070
C         -7.90220       -9.92320       12.35240
C         -6.90060      -10.37620       13.17460
C         -5.52520      -10.09670       13.07030
N         -4.38950       -9.92370       13.05540
C         -7.20030      -11.22490       14.26150
N         -7.43350      -11.91440       15.14870
H          9.65850        2.00200       -5.69490
H         10.34000        6.58570       -8.37750
H          5.33910        5.76690       -8.29820
H          6.03220        9.11720       -8.78330
H          5.17200        8.61660      -11.06660
H          6.34240        6.40780      -11.83190
H          8.96200        6.84250      -11.91960
H          9.40500        9.31970      -11.20670
H          7.03480       10.55080      -10.87020
H          7.11470        9.75450      -12.46180
H          8.57620        9.54730       -8.87030
H          8.63550       -0.11440       -4.26060
H          6.36960       -3.36070       -3.24020
H          7.35630       -2.36020       -4.32980
H          5.14740       -3.00920       -5.37340
H          5.31500       -1.26220       -5.21960
H          4.30900       -2.15840       -4.06980
H          2.22640        2.57600       -5.45280
H          2.37110        4.54290       -6.93220
H          3.74460        6.48040       -6.27930
H          5.59810        7.30700       -4.88060
H          5.97490        6.52210       -3.34090
H          4.85200        8.70610       -2.95960
H          3.83400        7.38180       -2.38300
H          3.46430        8.17140       -3.91470
H          4.77800        4.52100       -2.63450
H         -7.62930       -2.77940        3.03160
H         -9.96740       -2.24010        3.59280
H        -10.59990       -1.75310        5.92110
H         -8.31980       -2.14750        8.79660
H        -10.00960       -1.97030        8.30500
H         -9.56720        0.39300        7.63770
H         -9.16150        0.12840        9.33700
H         -7.88130        0.21790        8.12210
H         -6.54670       -2.28910        7.13410
H          0.84440       -2.41580        0.56070
H          1.96940       -1.89030       -0.68800
H          3.08690       -2.23020        1.54930
H          3.31490       -0.62470        0.86210
H          2.17320       -0.85120        2.18050
H          0.42670       -1.90750        2.51540
H         -0.69030       -2.40030        3.78370
H         -0.45260       -3.93970        1.15020
H         -1.37170       -4.39070        2.57970
H          0.39000       -4.36770        2.64640
H         -2.74170       -4.86930        8.79880
H         -2.59060       -3.94710        7.29460
H         -0.92250       -5.78450        7.38290
H         -2.06940       -6.07670        6.07230
H         -2.21480       -6.96950        7.59020
H         -8.16630       -7.33810        8.52420
H         -5.78980       -8.69240       11.37880
H        -12.19600       -9.64830       10.97410
H        -12.59010      -11.20590       13.05230
