223

C         -9.78990        9.70540       -3.20440
C         -9.57780       10.92490       -3.77090
C        -10.66830       11.61930       -4.50450
O        -11.85260       11.37600       -4.44940
C         -9.98470       12.61390       -5.35680
C        -10.55230       13.40880       -6.34990
C         -9.65260       14.21540       -7.00470
C         -8.28440       14.23540       -6.70000
C         -7.71100       13.46510       -5.71640
C         -8.61040       12.63860       -5.03860
C         -8.37270       11.70920       -3.93870
C         -7.32340       11.77620       -3.05890
C         -7.26380       11.02960       -1.86390
N         -7.19840       10.47280       -0.86150
C         -6.23430       12.65780       -3.19300
N         -5.32120       13.35200       -3.24960
C         -7.98180       15.26400       -7.76130
C         -7.32800       14.77880       -9.07890
C         -7.73360       13.33660       -9.25310
C         -9.02870       13.31170       -9.53750
C         -9.52160       14.73730       -9.56550
C         -8.26610       15.44770      -10.09640
C         -9.50540       15.24060       -8.10090
C         -8.81190        8.73040       -2.90340
C         -8.91670        7.63560       -2.07190
C         -7.75820        6.86110       -2.02770
S         -7.59310        5.45000       -0.97700
C         -6.93100        6.32090        0.50380
C         -6.48160        5.30560        1.53290
C         -6.74330        7.31050       -2.86640
S         -7.25690        8.73870       -3.70510
C         -5.44040        6.78870       -3.04250
C         -4.41380        7.32450       -3.81160
C         -4.53930        8.52020       -4.65840
C         -3.91780        9.70660       -4.28750
C         -4.06600       10.83370       -5.07520
C         -4.83360       10.78350       -6.22510
C         -5.44310        9.59940       -6.62110
C         -6.32450        9.55430       -7.83560
C         -7.75840        9.93390       -7.45780
C         -5.28000        8.46920       -5.83480
C         -3.23000        6.59130       -3.67410
S         -1.63670        6.77520       -4.37130
C         -1.12730        5.35980       -3.51200
C          0.01990        4.56060       -3.35810
C          1.28490        4.54550       -3.98940
C          2.20010        3.46690       -3.70980
N          3.30600        3.54750       -4.43220
S          3.21600        4.86240       -5.37180
N          1.75760        5.38220       -4.89900
C          1.87510        2.52610       -2.70580
C          2.57540        1.45610       -2.11740
S          4.07120        0.60040       -2.29840
C          3.63530       -0.41430       -0.94260
C          4.29550       -1.47000       -0.28490
C          5.64070       -1.91880       -0.64700
C          6.62210       -2.09350        0.32300
C          7.89030       -2.49530       -0.05100
C          8.19060       -2.69890       -1.38420
C          7.23160       -2.49710       -2.37340
C          7.63400       -2.68270       -3.81330
C          6.55000       -2.38490       -4.84100
C          5.95730       -2.11650       -1.98860
C          3.53210       -1.96930        0.75910
S          2.00110       -1.11430        0.93650
C          2.39640       -0.08700       -0.39140
C          1.79250        0.98290       -1.05930
N          0.62640        1.70250       -0.97010
C          0.65080        2.63070       -1.99720
C         -0.33150        3.54140       -2.43480
N         -1.66180        3.67140       -2.08280
C         -2.13920        4.78380       -2.73240
C         -3.34310        5.48490       -2.82540
S         -4.93220        5.35300       -2.15870
C         -2.56240        2.59640       -1.71690
C         -3.33600        2.08200       -2.93050
C         -0.02310        1.87240        0.31480
C          0.93940        2.45470        1.34980
C          3.75380       -3.14310        1.52960
C          3.13510       -3.51410        2.72030
N          2.32990       -2.70410        3.50430
C          2.66350       -1.37840        3.78880
C          1.65970       -0.47660        4.14570
C          1.96790        0.84240        4.40160
C          3.27310        1.31260        4.29620
C          3.58100        2.75690        4.54900
C          4.26790        0.40890        3.94870
C          3.97580       -0.91920        3.70670
C          1.31380       -3.35210        4.23720
C          1.18480       -3.16720        5.60950
C          0.23780       -3.88160        6.31450
C         -0.59580       -4.79340        5.67820
C         -1.56400       -5.62160        6.46430
C         -0.47990       -4.94830        4.30300
C          0.45950       -4.23560        3.58500
C          3.43980       -4.85180        3.06450
S          2.97390       -5.87280        4.37770
C          3.95360       -7.18470        3.71270
C          4.69540       -6.76610        2.57480
N          5.64370       -7.50320        1.92340
C          6.51550       -8.38700        2.58580
C          6.96600       -9.52950        1.92950
C          7.82630      -10.39860        2.56940
C          8.25170      -10.16130        3.87120
C          9.15220      -11.13730        4.56350
C          7.81060       -9.00840        4.51020
C          6.96070       -8.12290        3.87850
C          5.87450       -7.23430        0.55720
C          7.15970       -6.98720        0.08940
C          7.36460       -6.70820       -1.24780
C          6.30390       -6.67490       -2.14350
C          6.51620       -6.37160       -3.59380
C          5.02330       -6.93130       -1.66580
C          4.80410       -7.20870       -0.33260
C          4.32650       -5.46700        2.19100
S          4.79360       -4.41410        0.89240
C          3.89020       -8.50970        4.13020
C          3.16770       -9.08800        5.15330
C          2.39200       -8.38210        6.17180
O          2.21470       -7.17900        6.28320
C          1.86490       -9.41500        7.08220
C          1.05360       -9.21600        8.19520
C          0.69940      -10.37540        8.84290
C          1.12790      -11.63820        8.41680
C          1.93630      -11.84640        7.32340
C          2.30290      -10.68080        6.64680
C          3.10760      -10.50040        5.43610
C          3.66410      -11.52060        4.69970
C          4.32050      -11.38090        3.46240
N          4.83250      -11.37560        2.43210
C          3.62700      -12.88040        5.06490
N          3.65510      -14.00480        5.30050
C          0.37880      -12.35100        9.51530
C         -0.94950      -13.05440        9.14140
C         -1.49910      -12.32450        7.94110
C         -1.90480      -11.12830        8.34540
C         -1.63630      -11.02770        9.82660
C         -1.86190      -12.49010       10.24220
C         -0.09840      -10.94250        9.99060
H        -10.82540        9.41690       -3.05680
H        -11.61020       13.36780       -6.55680
H         -6.65760       13.47590       -5.48810
H         -7.55370       16.19930       -7.40590
H         -6.26570       14.99320       -9.16160
H         -7.07120       12.50510       -9.10200
H         -9.66430       12.45540       -9.66730
H        -10.45610       14.91150      -10.09250
H         -8.03250       15.17790      -11.12540
H         -8.30790       16.53180      -10.00090
H        -10.07000       16.16210       -7.97300
H         -9.78890        7.41910       -1.48200
H         -6.10110        6.94150        0.16630
H         -7.72790        6.95820        0.88570
H         -5.70060        4.67050        1.12040
H         -6.09250        5.81820        2.41000
H         -7.31490        4.67570        1.83530
H         -3.33520        9.74620       -3.37940
H         -3.59200       11.75760       -4.78100
H         -4.95710       11.67220       -6.82760
H         -5.95280       10.24720       -8.59320
H         -6.31820        8.54930       -8.26150
H         -7.79440       10.94790       -7.06540
H         -8.13820        9.25940       -6.69290
H         -8.40990        9.87820       -8.32660
H         -5.74390        7.53790       -6.12890
H          6.39260       -1.90060        1.36050
H          8.65190       -2.63870        0.70130
H          9.18760       -3.00430       -1.66900
H          7.98330       -3.71130       -3.94310
H          8.49180       -2.03150       -4.00760
H          6.94570       -2.52930       -5.84410
H          6.20820       -1.35610       -4.75450
H          5.69690       -3.04850       -4.71590
H          5.18380       -1.96950       -2.72490
H         -3.26320        2.96920       -0.96290
H         -1.98470        1.77170       -1.30440
H         -3.97710        2.85580       -3.34250
H         -2.64480        1.75080       -3.70270
H         -3.95850        1.24260       -2.63360
H         -0.38580        0.89740        0.65570
H         -0.86140        2.55780        0.20200
H          1.75310        1.76630        1.56100
H          0.40310        2.64330        2.27530
H          1.35560        3.39250        0.98700
H          0.63890       -0.82170        4.21160
H          1.17940        1.52680        4.68040
H          4.65010        2.94330        4.48820
H          3.07760        3.38590        3.81480
H          3.23100        3.05450        5.53660
H          5.29230        0.74490        3.87230
H          4.76970       -1.60770        3.45790
H          1.84480       -2.48110        6.11970
H          0.16090       -3.74620        7.38330
H         -1.06200       -6.52470        6.81300
H         -2.41150       -5.92130        5.85200
H         -1.92750       -5.07930        7.33410
H         -1.12630       -5.64410        3.78750
H          0.55170       -4.37010        2.51670
H          6.62800       -9.73690        0.92660
H          8.15770      -11.28780        2.05500
H          9.53080      -10.72710        5.49640
H          8.60590      -12.05380        4.78650
H          9.99470      -11.40090        3.92660
H          8.14200       -8.79430        5.51620
H          6.63430       -7.22740        4.38680
H          7.99060       -7.00820        0.77890
H          8.36670       -6.50820       -1.59800
H          6.05590       -7.13780       -4.21560
H          6.05520       -5.41750       -3.84560
H          7.57560       -6.32070       -3.83100
H          4.18810       -6.91750       -2.35070
H          3.80750       -7.41390        0.03000
H          4.47960       -9.18920        3.52800
H          0.74910       -8.22330        8.48900
H          2.25770      -12.82610        7.01190
H          0.98240      -12.94300       10.20040
H         -0.87870      -14.13530        9.05430
H         -1.48270      -12.71850        6.94180
H         -2.29540      -10.32290        7.75100
H         -2.19140      -10.26330       10.36440
H         -1.51460      -12.71320       11.25020
H         -2.89890      -12.80420       10.13240
H          0.19510      -10.61490       10.98630
