
  xtb     02112223143D
 energy: -274.473379411515 gnorm: 0.000481789914 xtb: 6.4.1 (unknown)
161180  0     0  0            999 V2000
    0.7844   -6.9457   -5.4253 C   0  0  0  0  0  0  0  0  0  0  0  0
   -0.2227   -7.7455   -5.8841 C   0  0  0  0  0  0  0  0  0  0  0  0
   -1.2643   -8.4119   -5.0682 C   0  0  0  0  0  0  0  0  0  0  0  0
   -1.2556   -8.6450   -3.8764 O   0  0  0  0  0  0  0  0  0  0  0  0
   -2.3754   -8.6889   -5.9984 C   0  0  0  0  0  0  0  0  0  0  0  0
   -3.6336   -9.1878   -5.6689 C   0  0  0  0  0  0  0  0  0  0  0  0
   -4.4869   -9.3061   -6.7395 C   0  0  0  0  0  0  0  0  0  0  0  0
   -4.1194   -8.9504   -8.0445 C   0  0  0  0  0  0  0  0  0  0  0  0
   -2.8805   -8.4618   -8.3849 C   0  0  0  0  0  0  0  0  0  0  0  0
   -1.9967   -8.3375   -7.3097 C   0  0  0  0  0  0  0  0  0  0  0  0
   -0.6271   -7.8381   -7.2750 C   0  0  0  0  0  0  0  0  0  0  0  0
    0.1683   -7.5833   -8.3606 C   0  0  0  0  0  0  0  0  0  0  0  0
    1.5258   -7.2054   -8.2816 C   0  0  0  0  0  0  0  0  0  0  0  0
    2.6379   -6.9198   -8.2919 N   0  0  0  0  0  0  0  0  0  0  0  0
   -0.2480   -7.7236   -9.7003 C   0  0  0  0  0  0  0  0  0  0  0  0
   -0.5277   -7.8164  -10.8099 N   0  0  0  0  0  0  0  0  0  0  0  0
   -5.4699   -9.3127   -8.6089 C   0  0  0  0  0  0  0  0  0  0  0  0
   -5.5951  -10.6477   -9.3830 C   0  0  0  0  0  0  0  0  0  0  0  0
   -4.5219  -11.5588   -8.8407 C   0  0  0  0  0  0  0  0  0  0  0  0
   -4.8670  -11.9008   -7.6066 C   0  0  0  0  0  0  0  0  0  0  0  0
   -6.1797  -11.2270   -7.2918 C   0  0  0  0  0  0  0  0  0  0  0  0
   -6.8305  -11.2379   -8.6843 C   0  0  0  0  0  0  0  0  0  0  0  0
   -5.8777   -9.7140   -7.1562 C   0  0  0  0  0  0  0  0  0  0  0  0
    1.2418   -6.7823   -4.0992 C   0  0  0  0  0  0  0  0  0  0  0  0
    1.2220   -7.6278   -3.0095 C   0  0  0  0  0  0  0  0  0  0  0  0
    1.7580   -7.0637   -1.8472 C   0  0  0  0  0  0  0  0  0  0  0  0
    1.8072   -7.8354   -0.2733 S   0  0  0  0  0  0  0  0  0  0  0  0
    0.4121   -9.0194   -0.3559 C   0  0  0  0  0  0  0  0  0  0  0  0
   -0.9322   -8.3405   -0.5210 C   0  0  0  0  0  0  0  0  0  0  0  0
    2.2148   -5.7616   -2.0371 C   0  0  0  0  0  0  0  0  0  0  0  0
    2.0086   -5.2650   -3.6843 S   0  0  0  0  0  0  0  0  0  0  0  0
    2.6783   -4.8275   -1.0656 C   0  0  0  0  0  0  0  0  0  0  0  0
    3.4760   -5.0220    0.0476 C   0  0  0  0  0  0  0  0  0  0  0  0
    4.2630   -6.2242    0.3069 C   0  0  0  0  0  0  0  0  0  0  0  0
    4.8832   -6.9015   -0.7417 C   0  0  0  0  0  0  0  0  0  0  0  0
    5.6507   -8.0195   -0.4821 C   0  0  0  0  0  0  0  0  0  0  0  0
    5.8068   -8.4733    0.8159 C   0  0  0  0  0  0  0  0  0  0  0  0
    5.2041   -7.8053    1.8743 C   0  0  0  0  0  0  0  0  0  0  0  0
    5.3241   -8.3197    3.2795 C   0  0  0  0  0  0  0  0  0  0  0  0
    4.1573   -9.2569    3.5967 C   0  0  0  0  0  0  0  0  0  0  0  0
    4.4394   -6.6807    1.6090 C   0  0  0  0  0  0  0  0  0  0  0  0
    3.5311   -3.8535    0.8391 C   0  0  0  0  0  0  0  0  0  0  0  0
    4.3309   -3.4746    2.3472 S   0  0  0  0  0  0  0  0  0  0  0  0
    3.6765   -1.8732    2.2708 C   0  0  0  0  0  0  0  0  0  0  0  0
    3.6788   -0.6792    3.0076 C   0  0  0  0  0  0  0  0  0  0  0  0
    4.3628   -0.3405    4.1944 C   0  0  0  0  0  0  0  0  0  0  0  0
    4.2325    0.9888    4.7115 C   0  0  0  0  0  0  0  0  0  0  0  0
    4.9466    1.1785    5.8103 N   0  0  0  0  0  0  0  0  0  0  0  0
    5.7171   -0.2018    6.1628 S   0  0  0  0  0  0  0  0  0  0  0  0
    5.1674   -1.0937    4.9282 N   0  0  0  0  0  0  0  0  0  0  0  0
    3.3700    1.8926    4.0554 C   0  0  0  0  0  0  0  0  0  0  0  0
    2.9876    3.1957    4.4060 C   0  0  0  0  0  0  0  0  0  0  0  0
    3.2938    4.3771    5.6346 S   0  0  0  0  0  0  0  0  0  0  0  0
    2.1040    5.4249    4.8923 C   0  0  0  0  0  0  0  0  0  0  0  0
    1.6419    6.7165    5.2074 C   0  0  0  0  0  0  0  0  0  0  0  0
    2.2005    7.5004    6.3097 C   0  0  0  0  0  0  0  0  0  0  0  0
    2.6171    8.8155    6.1151 C   0  0  0  0  0  0  0  0  0  0  0  0
    3.1909    9.5156    7.1584 C   0  0  0  0  0  0  0  0  0  0  0  0
    3.3609    8.9149    8.3946 C   0  0  0  0  0  0  0  0  0  0  0  0
    2.9590    7.6020    8.6034 C   0  0  0  0  0  0  0  0  0  0  0  0
    3.1945    6.9172    9.9183 C   0  0  0  0  0  0  0  0  0  0  0  0
    4.4854    6.0976    9.8611 C   0  0  0  0  0  0  0  0  0  0  0  0
    2.3825    6.9040    7.5525 C   0  0  0  0  0  0  0  0  0  0  0  0
    0.6699    7.1332    4.3077 C   0  0  0  0  0  0  0  0  0  0  0  0
    0.3629    5.9419    3.0510 S   0  0  0  0  0  0  0  0  0  0  0  0
    1.5205    4.8702    3.7497 C   0  0  0  0  0  0  0  0  0  0  0  0
    2.0328    3.5986    3.4714 C   0  0  0  0  0  0  0  0  0  0  0  0
    1.8198    2.6044    2.5582 N   0  0  0  0  0  0  0  0  0  0  0  0
    2.6436    1.5396    2.8778 C   0  0  0  0  0  0  0  0  0  0  0  0
    2.8579    0.2533    2.3054 C   0  0  0  0  0  0  0  0  0  0  0  0
    2.4132   -0.3660    1.1496 N   0  0  0  0  0  0  0  0  0  0  0  0
    2.8927   -1.6459    1.1398 C   0  0  0  0  0  0  0  0  0  0  0  0
    2.8159   -2.7753    0.3155 C   0  0  0  0  0  0  0  0  0  0  0  0
    2.0599   -3.1852   -1.1811 S   0  0  0  0  0  0  0  0  0  0  0  0
    1.7031    0.1120   -0.0129 C   0  0  0  0  0  0  0  0  0  0  0  0
    0.2410   -0.3377   -0.0117 C   0  0  0  0  0  0  0  0  0  0  0  0
    0.7846    2.7991    1.5710 C   0  0  0  0  0  0  0  0  0  0  0  0
    1.2707    3.6568    0.4024 C   0  0  0  0  0  0  0  0  0  0  0  0
   -0.1343    8.3020    4.2950 C   0  0  0  0  0  0  0  0  0  0  0  0
   -0.3754    9.2046    5.3184 C   0  0  0  0  0  0  0  0  0  0  0  0
   -1.2785   10.1911    4.9543 C   0  0  0  0  0  0  0  0  0  0  0  0
   -1.7841   11.4582    6.0764 S   0  0  0  0  0  0  0  0  0  0  0  0
   -3.5204   10.9213    6.3866 C   0  0  0  0  0  0  0  0  0  0  0  0
   -4.2704   12.0279    7.0978 C   0  0  0  0  0  0  0  0  0  0  0  0
   -1.7383   10.0966    3.6305 C   0  0  0  0  0  0  0  0  0  0  0  0
   -1.0494    8.6862    2.8682 S   0  0  0  0  0  0  0  0  0  0  0  0
   -2.5766   11.0469    3.0349 C   0  0  0  0  0  0  0  0  0  0  0  0
   -3.1029   11.0896    1.7700 C   0  0  0  0  0  0  0  0  0  0  0  0
   -2.8891   10.0964    0.6985 C   0  0  0  0  0  0  0  0  0  0  0  0
   -2.2548    9.0575    0.7652 O   0  0  0  0  0  0  0  0  0  0  0  0
   -3.6015   10.6198   -0.4688 C   0  0  0  0  0  0  0  0  0  0  0  0
   -4.2041   11.8142   -0.1302 C   0  0  0  0  0  0  0  0  0  0  0  0
   -5.0853   12.5350   -1.4213 S   0  0  0  0  0  0  0  0  0  0  0  0
   -4.6383   11.1975   -2.4662 C   0  0  0  0  0  0  0  0  0  0  0  0
   -5.0046   11.0432   -3.7937 C   0  0  0  0  0  0  0  0  0  0  0  0
   -4.5630    9.9228   -4.4688 C   0  0  0  0  0  0  0  0  0  0  0  0
   -3.7673    8.9661   -3.8355 C   0  0  0  0  0  0  0  0  0  0  0  0
   -3.3989    9.1109   -2.5177 C   0  0  0  0  0  0  0  0  0  0  0  0
   -3.8332   10.2355   -1.8132 C   0  0  0  0  0  0  0  0  0  0  0  0
   -3.9491   12.1488    1.2498 C   0  0  0  0  0  0  0  0  0  0  0  0
   -4.4657   13.2502    1.8860 C   0  0  0  0  0  0  0  0  0  0  0  0
   -4.3042   13.5784    3.2437 C   0  0  0  0  0  0  0  0  0  0  0  0
   -4.2434   13.9026    4.3442 N   0  0  0  0  0  0  0  0  0  0  0  0
   -5.2733   14.1757    1.1920 C   0  0  0  0  0  0  0  0  0  0  0  0
   -5.9329   14.9382    0.6440 N   0  0  0  0  0  0  0  0  0  0  0  0
    1.2554   -6.2822   -6.1421 H   0  0  0  0  0  0  0  0  0  0  0  0
   -3.8804   -9.4408   -4.6494 H   0  0  0  0  0  0  0  0  0  0  0  0
   -2.6130   -8.1818   -9.3904 H   0  0  0  0  0  0  0  0  0  0  0  0
   -6.0179   -8.5027   -9.0864 H   0  0  0  0  0  0  0  0  0  0  0  0
   -5.6332  -10.5408  -10.4636 H   0  0  0  0  0  0  0  0  0  0  0  0
   -3.6221  -11.8062   -9.3728 H   0  0  0  0  0  0  0  0  0  0  0  0
   -4.3128  -12.4914   -6.9008 H   0  0  0  0  0  0  0  0  0  0  0  0
   -6.7510  -11.6486   -6.4689 H   0  0  0  0  0  0  0  0  0  0  0  0
   -7.7134  -10.6040   -8.7555 H   0  0  0  0  0  0  0  0  0  0  0  0
   -7.0700  -12.2424   -9.0295 H   0  0  0  0  0  0  0  0  0  0  0  0
   -6.6945   -9.1688   -6.6868 H   0  0  0  0  0  0  0  0  0  0  0  0
    0.8329   -8.6255   -3.0687 H   0  0  0  0  0  0  0  0  0  0  0  0
    0.4788   -9.5336    0.6036 H   0  0  0  0  0  0  0  0  0  0  0  0
    0.6081   -9.7359   -1.1516 H   0  0  0  0  0  0  0  0  0  0  0  0
   -1.0302   -7.9095   -1.5139 H   0  0  0  0  0  0  0  0  0  0  0  0
   -1.0556   -7.5556    0.2222 H   0  0  0  0  0  0  0  0  0  0  0  0
   -1.7258   -9.0731   -0.3912 H   0  0  0  0  0  0  0  0  0  0  0  0
    4.7770   -6.5385   -1.7533 H   0  0  0  0  0  0  0  0  0  0  0  0
    6.1324   -8.5393   -1.2973 H   0  0  0  0  0  0  0  0  0  0  0  0
    6.4061   -9.3512    1.0105 H   0  0  0  0  0  0  0  0  0  0  0  0
    6.2651   -8.8598    3.3999 H   0  0  0  0  0  0  0  0  0  0  0  0
    5.3160   -7.4831    3.9806 H   0  0  0  0  0  0  0  0  0  0  0  0
    4.1627  -10.1088    2.9203 H   0  0  0  0  0  0  0  0  0  0  0  0
    3.2116   -8.7333    3.4771 H   0  0  0  0  0  0  0  0  0  0  0  0
    4.2281   -9.6226    4.6185 H   0  0  0  0  0  0  0  0  0  0  0  0
    3.9545   -6.1636    2.4236 H   0  0  0  0  0  0  0  0  0  0  0  0
    2.5001    9.2766    5.1457 H   0  0  0  0  0  0  0  0  0  0  0  0
    3.5119   10.5353    7.0057 H   0  0  0  0  0  0  0  0  0  0  0  0
    3.8125    9.4700    9.2039 H   0  0  0  0  0  0  0  0  0  0  0  0
    3.2699    7.6584   10.7160 H   0  0  0  0  0  0  0  0  0  0  0  0
    2.3578    6.2531   10.1449 H   0  0  0  0  0  0  0  0  0  0  0  0
    5.3332    6.7438    9.6447 H   0  0  0  0  0  0  0  0  0  0  0  0
    4.4218    5.3445    9.0789 H   0  0  0  0  0  0  0  0  0  0  0  0
    4.6616    5.5996   10.8115 H   0  0  0  0  0  0  0  0  0  0  0  0
    2.0569    5.8853    7.7052 H   0  0  0  0  0  0  0  0  0  0  0  0
    2.1960   -0.3176   -0.8919 H   0  0  0  0  0  0  0  0  0  0  0  0
    1.7979    1.1917   -0.0818 H   0  0  0  0  0  0  0  0  0  0  0  0
   -0.2944    0.1424   -0.8261 H   0  0  0  0  0  0  0  0  0  0  0  0
   -0.2507   -0.0956    0.9285 H   0  0  0  0  0  0  0  0  0  0  0  0
    0.1824   -1.4138   -0.1499 H   0  0  0  0  0  0  0  0  0  0  0  0
    0.4041    1.8384    1.2397 H   0  0  0  0  0  0  0  0  0  0  0  0
   -0.0375    3.3259    2.0675 H   0  0  0  0  0  0  0  0  0  0  0  0
    0.4987    3.7138   -0.3597 H   0  0  0  0  0  0  0  0  0  0  0  0
    2.1780    3.2511   -0.0410 H   0  0  0  0  0  0  0  0  0  0  0  0
    1.4875    4.6647    0.7458 H   0  0  0  0  0  0  0  0  0  0  0  0
    0.0593    9.1393    6.2985 H   0  0  0  0  0  0  0  0  0  0  0  0
   -3.4631   10.0176    6.9950 H   0  0  0  0  0  0  0  0  0  0  0  0
   -3.9753   10.6857    5.4254 H   0  0  0  0  0  0  0  0  0  0  0  0
   -3.7741   12.2841    8.0308 H   0  0  0  0  0  0  0  0  0  0  0  0
   -5.2843   11.7001    7.3183 H   0  0  0  0  0  0  0  0  0  0  0  0
   -4.3152   12.9143    6.4702 H   0  0  0  0  0  0  0  0  0  0  0  0
   -2.8094   11.8810    3.6890 H   0  0  0  0  0  0  0  0  0  0  0  0
   -5.6195   11.7836   -4.2809 H   0  0  0  0  0  0  0  0  0  0  0  0
   -4.8377    9.7844   -5.5035 H   0  0  0  0  0  0  0  0  0  0  0  0
   -3.4386    8.1018   -4.3925 H   0  0  0  0  0  0  0  0  0  0  0  0
   -2.7844    8.3813   -2.0137 H   0  0  0  0  0  0  0  0  0  0  0  0
  1  2  2  0  0  0  0
  2  3  1  0  0  0  0
  3  4  2  0  0  0  0
  3  5  1  0  0  0  0
  5  6  2  0  0  0  0
  6  7  1  0  0  0  0
  7  8  2  0  0  0  0
  8  9  1  0  0  0  0
  9 10  2  0  0  0  0
 10 11  1  0  0  0  0
 11 12  2  0  0  0  0
 12 13  1  0  0  0  0
 13 14  3  0  0  0  0
 12 15  1  0  0  0  0
 15 16  3  0  0  0  0
  8 17  1  0  0  0  0
 17 18  1  0  0  0  0
 18 19  1  0  0  0  0
 19 20  2  0  0  0  0
 20 21  1  0  0  0  0
 21 22  1  0  0  0  0
 21 23  1  0  0  0  0
  1 24  1  0  0  0  0
 24 25  2  0  0  0  0
 25 26  1  0  0  0  0
 26 27  1  0  0  0  0
 27 28  1  0  0  0  0
 28 29  1  0  0  0  0
 26 30  2  0  0  0  0
 30 31  1  0  0  0  0
 30 32  1  0  0  0  0
 32 33  2  0  0  0  0
 33 34  1  0  0  0  0
 34 35  2  0  0  0  0
 35 36  1  0  0  0  0
 36 37  2  0  0  0  0
 37 38  1  0  0  0  0
 38 39  1  0  0  0  0
 39 40  1  0  0  0  0
 38 41  2  0  0  0  0
 33 42  1  0  0  0  0
 42 43  1  0  0  0  0
 43 44  1  0  0  0  0
 44 45  1  0  0  0  0
 45 46  1  0  0  0  0
 46 47  1  0  0  0  0
 47 48  2  0  0  0  0
 48 49  1  0  0  0  0
 49 50  1  0  0  0  0
 47 51  1  0  0  0  0
 51 52  1  0  0  0  0
 52 53  1  0  0  0  0
 53 54  1  0  0  0  0
 54 55  1  0  0  0  0
 55 56  1  0  0  0  0
 56 57  2  0  0  0  0
 57 58  1  0  0  0  0
 58 59  2  0  0  0  0
 59 60  1  0  0  0  0
 60 61  1  0  0  0  0
 61 62  1  0  0  0  0
 60 63  2  0  0  0  0
 55 64  2  0  0  0  0
 64 65  1  0  0  0  0
 65 66  1  0  0  0  0
 66 67  1  0  0  0  0
 67 68  1  0  0  0  0
 68 69  1  0  0  0  0
 69 70  1  0  0  0  0
 70 71  1  0  0  0  0
 71 72  1  0  0  0  0
 72 73  1  0  0  0  0
 73 74  1  0  0  0  0
 71 75  1  0  0  0  0
 75 76  1  0  0  0  0
 68 77  1  0  0  0  0
 77 78  1  0  0  0  0
 64 79  1  0  0  0  0
 79 80  2  0  0  0  0
 80 81  1  0  0  0  0
 81 82  1  0  0  0  0
 82 83  1  0  0  0  0
 83 84  1  0  0  0  0
 81 85  2  0  0  0  0
 85 86  1  0  0  0  0
 85 87  1  0  0  0  0
 87 88  2  0  0  0  0
 88 89  1  0  0  0  0
 89 90  2  0  0  0  0
 89 91  1  0  0  0  0
 91 92  2  0  0  0  0
 92 93  1  0  0  0  0
 93 94  1  0  0  0  0
 94 95  2  0  0  0  0
 95 96  1  0  0  0  0
 96 97  2  0  0  0  0
 97 98  1  0  0  0  0
 98 99  2  0  0  0  0
 92100  1  0  0  0  0
100101  2  0  0  0  0
101102  1  0  0  0  0
102103  3  0  0  0  0
101104  1  0  0  0  0
104105  3  0  0  0  0
 11  2  1  0  0  0  0
 23 17  1  0  0  0  0
 31 24  1  0  0  0  0
 74 32  1  0  0  0  0
 86 79  1  0  0  0  0
100 88  1  0  0  0  0
 10  5  1  0  0  0  0
 22 18  1  0  0  0  0
 41 34  1  0  0  0  0
 73 42  2  0  0  0  0
 99 91  1  0  0  0  0
 23  7  1  0  0  0  0
 72 44  2  0  0  0  0
 99 94  1  0  0  0  0
 70 45  2  0  0  0  0
 50 46  2  0  0  0  0
 69 51  2  0  0  0  0
 67 52  2  0  0  0  0
 66 54  2  0  0  0  0
 63 56  1  0  0  0  0
  1106  1  0  0  0  0
  6107  1  0  0  0  0
  9108  1  0  0  0  0
 17109  1  0  0  0  0
 18110  1  0  0  0  0
 19111  1  0  0  0  0
 20112  1  0  0  0  0
 21113  1  0  0  0  0
 22114  1  0  0  0  0
 22115  1  0  0  0  0
 23116  1  0  0  0  0
 25117  1  0  0  0  0
 28118  1  0  0  0  0
 28119  1  0  0  0  0
 29120  1  0  0  0  0
 29121  1  0  0  0  0
 29122  1  0  0  0  0
 35123  1  0  0  0  0
 36124  1  0  0  0  0
 37125  1  0  0  0  0
 39126  1  0  0  0  0
 39127  1  0  0  0  0
 40128  1  0  0  0  0
 40129  1  0  0  0  0
 40130  1  0  0  0  0
 41131  1  0  0  0  0
 57132  1  0  0  0  0
 58133  1  0  0  0  0
 59134  1  0  0  0  0
 61135  1  0  0  0  0
 61136  1  0  0  0  0
 62137  1  0  0  0  0
 62138  1  0  0  0  0
 62139  1  0  0  0  0
 63140  1  0  0  0  0
 75141  1  0  0  0  0
 75142  1  0  0  0  0
 76143  1  0  0  0  0
 76144  1  0  0  0  0
 76145  1  0  0  0  0
 77146  1  0  0  0  0
 77147  1  0  0  0  0
 78148  1  0  0  0  0
 78149  1  0  0  0  0
 78150  1  0  0  0  0
 80151  1  0  0  0  0
 83152  1  0  0  0  0
 83153  1  0  0  0  0
 84154  1  0  0  0  0
 84155  1  0  0  0  0
 84156  1  0  0  0  0
 87157  1  0  0  0  0
 95158  1  0  0  0  0
 96159  1  0  0  0  0
 97160  1  0  0  0  0
 98161  1  0  0  0  0
M  END
