209

C        -11.09670       -6.31290        1.20010
C        -11.80800       -7.04920        2.10180
C        -11.77800       -6.97920        3.58400
O        -11.32650       -6.10820        4.29810
C        -12.40180       -8.23070        4.05360
C        -12.50620       -8.65960        5.37570
C        -13.10730       -9.88640        5.51900
C        -13.57340      -10.63350        4.42820
C        -13.48760      -10.21760        3.12140
C        -12.87740       -8.97000        2.95340
C        -12.60330       -8.21320        1.73690
C        -13.08180       -8.51400        0.48950
C        -12.91090       -7.72470       -0.66890
N        -12.84190       -7.14070       -1.65530
C        -13.86910       -9.64630        0.19110
N        -14.50560      -10.54770       -0.12610
C        -14.03720      -11.77130        5.30330
C        -13.13510      -13.02330        5.33920
C        -13.56030      -13.73950        6.60070
C        -13.12180      -13.03160        7.63390
C        -12.39270      -11.82530        7.08800
C        -11.79980      -12.43190        5.80960
C        -13.52020      -10.93740        6.51920
C        -10.26460       -5.18420        1.38380
C        -10.10780       -4.31440        2.43290
C         -9.15210       -3.30820        2.19470
C         -8.77770       -2.26250        3.06510
C         -9.47580       -2.02700        4.31410
S         -8.60680       -1.79410        5.80200
C        -10.05930       -1.55870        6.70690
C        -10.01760       -1.21300        8.15400
C        -10.00310        0.30700        8.33760
C        -11.14700       -1.64800        5.88990
Cl       -12.76290       -1.45400        6.43050
C        -10.82250       -1.91860        4.53440
Cl       -12.01600       -1.99200        3.30400
C         -7.70880       -1.47770        2.66730
C         -7.03840       -1.64760        1.42910
C         -7.47880       -2.62020        0.50740
C         -6.89520       -2.75180       -0.81110
C         -6.66810       -3.88950       -1.53470
C         -6.12290       -3.64250       -2.80940
C         -5.94630       -2.32020       -3.07850
C         -5.37110       -1.68520       -4.29720
C         -4.00260       -1.06570       -4.00710
S         -6.44330       -1.34470       -1.73680
C         -8.51860       -3.44360        0.93090
S         -9.21430       -4.75720        0.03280
C         -5.93360       -0.77580        1.32040
C         -5.76580        0.05330        2.39680
S         -7.00980       -0.18470        3.60530
C         -4.71240        0.99440        2.55560
C         -4.43650        1.87620        3.58320
C         -5.18500        2.00580        4.84040
C         -5.77180        3.22220        5.17140
C         -6.44960        3.35290        6.36840
C         -6.53650        2.28280        7.24200
C         -5.94300        1.06620        6.93310
C         -5.98380       -0.08490        7.89630
C         -4.68010       -0.16540        8.69260
C         -5.26380        0.94100        5.72990
C         -3.29320        2.64930        3.30430
S         -2.43700        3.86420        4.22500
C         -1.24120        3.93410        2.97280
C          0.00140        4.53900        2.71500
C          0.81770        5.36200        3.52080
C          2.14950        5.66580        3.07760
N          2.82540        6.38220        3.96230
S          1.86740        6.65860        5.23810
N          0.55340        5.86990        4.71430
C          2.55760        5.23680        1.79660
C          3.74190        5.45910        1.07350
S          5.29640        6.18800        1.29110
C          5.70860        5.75970       -0.35230
C          6.87480        5.94520       -1.13850
C          8.07480        6.64940       -0.69250
C          8.49560        6.56460        0.63230
C          9.63650        7.22950        1.04040
C         10.36630        7.98560        0.14030
C          9.95800        8.09020       -1.18420
C         10.71780        8.94650       -2.15660
C         10.19590       10.38410       -2.12240
C          8.81050        7.42420       -1.58630
C          6.70970        5.41880       -2.39520
S          5.12630        4.72210       -2.64410
C          4.67500        5.10800       -1.02040
C          3.55220        4.92120       -0.19910
N          2.30640        4.35850       -0.28870
C          1.68440        4.51220        0.93870
C          0.44360        4.05380        1.45280
N         -0.50300        3.16370        0.96630
C         -1.50590        3.08320        1.89860
C         -2.67920        2.34560        2.08770
S         -3.54490        1.11650        1.24000
C         -0.32790        2.04710        0.06310
C          0.60700        1.00010        0.66510
C          1.73270        4.08560       -1.58700
C          2.23340        2.77130       -2.18450
C          7.66370        5.25420       -3.48990
C          8.79260        4.43900       -3.31020
O          9.04040        3.93690       -2.05760
C         10.31850        4.25680       -1.50800
C         10.40140        3.61770       -0.13310
C          9.57920        4.10410       -4.41810
O         10.60220        3.19090       -4.34900
C         10.25700        1.90640       -3.82620
C         11.34330        0.92960       -4.24480
C          9.35070        4.74280       -5.64590
C          8.29200        5.63110       -5.77890
C          7.41480        5.82430       -4.73230
C         10.23250        4.47120       -6.78120
C         10.32500        3.26690       -7.37040
C          9.45890        2.10830       -7.01150
O          8.47160        2.11770       -6.31040
C         10.02320        0.95350       -7.72960
C          9.60280       -0.37210       -7.63490
C         10.33610       -1.24760       -8.39660
C         11.40830       -0.83620       -9.20250
C         11.82300        0.46790       -9.31870
C         11.09160        1.37900       -8.54720
C         11.25260        2.82120       -8.40640
C         12.10430        3.61070       -9.12600
C         12.21000        5.01280       -8.99430
N         12.34750        6.15150       -8.95310
C         12.97760        3.13960      -10.13070
N         13.70870        2.82670      -10.95810
C         11.70620       -2.24220       -9.65900
C         12.91300       -2.96560       -9.01060
C         13.09750       -2.35390       -7.64390
C         12.08120       -2.74240       -6.88540
C         11.19080       -3.62430       -7.72590
C         12.24260       -4.29380       -8.62450
C         10.51030       -2.69880       -8.76510
H        -11.11770       -6.65950        0.17270
H        -12.13300       -8.05200        6.18520
H        -13.84960      -10.80340        2.29320
H        -15.09700      -12.01180        5.24790
H        -13.13010      -13.60700        4.42280
H        -14.16400      -14.62780        6.61160
H        -13.28630      -13.21050        8.68030
H        -11.71070      -11.31770        7.76500
H        -11.06140      -13.20270        6.02420
H        -11.37320      -11.69930        5.12700
H        -14.23570      -10.62060        7.27550
H        -10.64730       -4.41620        3.35500
H        -10.89670       -1.63230        8.64700
H         -9.12230       -1.64620        8.60230
H        -10.91560        0.74150        7.93790
H         -9.93250        0.55630        9.39330
H         -9.15530        0.74090        7.81220
H         -6.84950       -4.87830       -1.15460
H         -5.87480       -4.42340       -3.50620
H         -5.27600       -2.44450       -5.07610
H         -6.04600       -0.90580       -4.66000
H         -3.31070       -1.82660       -3.65240
H         -3.59340       -0.61550       -4.90800
H         -4.09270       -0.29690       -3.24260
H         -5.25430       -0.77220        0.48740
H         -5.70200        4.05430        4.48670
H         -6.91070        4.29570        6.62320
H         -7.06520        2.39700        8.17790
H         -6.13370       -1.01620        7.34590
H         -6.81790        0.04120        8.58840
H         -4.52450        0.75200        9.25610
H         -3.83360       -0.30170        8.02380
H         -4.71050       -1.00030        9.38890
H         -4.78230        0.00530        5.48390
H          7.93780        5.96780        1.33730
H          9.96010        7.15480        2.06810
H         11.25920        8.50000        0.46550
H         11.77960        8.94320       -1.90140
H         10.60740        8.54610       -3.16690
H         10.74690       11.00580       -2.82410
H         10.30650       10.80280       -1.12470
H          9.14150       10.40920       -2.38840
H          8.47980        7.51220       -2.61130
H         -1.31830        1.61050       -0.08950
H          0.04030        2.37590       -0.90370
H          0.71390        0.15980       -0.01560
H          1.58820        1.42930        0.85800
H          0.20280        0.63430        1.60630
H          2.02740        4.90220       -2.25660
H          0.64540        4.11260       -1.50100
H          3.29460        2.84450       -2.40420
H          1.70670        2.56660       -3.11280
H          2.08710        1.93900       -1.50250
H         11.12730        3.89570       -2.15380
H         10.41170        5.34690       -1.42540
H          9.59200        3.98710        0.48990
H         11.35100        3.86980        0.32980
H         10.31590        2.53650       -0.20960
H         10.18020        1.93430       -2.73420
H          9.28360        1.60340       -4.22830
H         11.38500        0.84370       -5.32820
H         11.13530       -0.04850       -3.81990
H         12.31060        1.27500       -3.88880
H          8.12220        6.11180       -6.73030
H          6.54220        6.44750       -4.86050
H         10.83580        5.30360       -7.12040
H          8.77520       -0.64500       -6.99890
H         12.64740        0.76820       -9.94370
H         11.64180       -2.42110      -10.73020
H         13.79880       -3.01500       -9.63790
H         13.89300       -1.67690       -7.39290
H         11.85830       -2.45370       -5.87480
H         10.50820       -4.27370       -7.18410
H         11.81370       -4.82610       -9.47220
H         12.90760       -4.95620       -8.07250
H          9.66120       -3.17360       -9.25230
