
  xtb     02152214383D
 energy: -266.947840743845 gnorm: 0.000802789503 xtb: 6.4.1 (unknown)
158176  0     0  0            999 V2000
    0.8049    8.5868    5.1100 C   0  0  0  0  0  0  0  0  0  0  0  0
   -0.3278    9.0941    4.5319 C   0  0  0  0  0  0  0  0  0  0  0  0
   -1.3552    8.3096    3.8377 C   0  0  0  0  0  0  0  0  0  0  0  0
   -1.3549    7.1075    3.6306 O   0  0  0  0  0  0  0  0  0  0  0  0
   -2.4044    9.2604    3.4374 C   0  0  0  0  0  0  0  0  0  0  0  0
   -3.5876    8.9686    2.7617 C   0  0  0  0  0  0  0  0  0  0  0  0
   -4.3806   10.0655    2.5248 C   0  0  0  0  0  0  0  0  0  0  0  0
   -4.0206   11.3590    2.9256 C   0  0  0  0  0  0  0  0  0  0  0  0
   -2.8553   11.6606    3.5898 C   0  0  0  0  0  0  0  0  0  0  0  0
   -2.0347   10.5579    3.8465 C   0  0  0  0  0  0  0  0  0  0  0  0
   -0.7391   10.4853    4.5209 C   0  0  0  0  0  0  0  0  0  0  0  0
   -0.0495   11.5565    5.0275 C   0  0  0  0  0  0  0  0  0  0  0  0
   -0.5009   12.8925    4.9833 C   0  0  0  0  0  0  0  0  0  0  0  0
   -0.7995   14.0013    4.9878 N   0  0  0  0  0  0  0  0  0  0  0  0
    1.2110   11.5042    5.6589 C   0  0  0  0  0  0  0  0  0  0  0  0
    2.2328   11.5576    6.1816 N   0  0  0  0  0  0  0  0  0  0  0  0
   -5.2821   11.9698    2.3684 C   0  0  0  0  0  0  0  0  0  0  0  0
   -6.3808   12.3333    3.3894 C   0  0  0  0  0  0  0  0  0  0  0  0
   -7.6331   12.4432    2.5497 C   0  0  0  0  0  0  0  0  0  0  0  0
   -7.9753   11.2177    2.1732 C   0  0  0  0  0  0  0  0  0  0  0  0
   -6.9598   10.2588    2.7519 C   0  0  0  0  0  0  0  0  0  0  0  0
   -6.6353   10.9803    4.0664 C   0  0  0  0  0  0  0  0  0  0  0  0
   -5.6849   10.5271    1.9237 C   0  0  0  0  0  0  0  0  0  0  0  0
    1.2796    7.2656    5.1614 C   0  0  0  0  0  0  0  0  0  0  0  0
    2.4792    6.9314    5.7791 C   0  0  0  0  0  0  0  0  0  0  0  0
    2.8061    5.5813    5.7164 C   0  0  0  0  0  0  0  0  0  0  0  0
    4.3468    5.0206    6.3697 S   0  0  0  0  0  0  0  0  0  0  0  0
    5.0039    3.9896    5.0085 C   0  0  0  0  0  0  0  0  0  0  0  0
    5.0570    4.7355    3.6908 C   0  0  0  0  0  0  0  0  0  0  0  0
    1.8281    4.8336    5.0636 C   0  0  0  0  0  0  0  0  0  0  0  0
    0.5395    5.8425    4.4723 S   0  0  0  0  0  0  0  0  0  0  0  0
    1.7584    3.4324    4.8110 C   0  0  0  0  0  0  0  0  0  0  0  0
    2.1277    2.3665    5.6156 C   0  0  0  0  0  0  0  0  0  0  0  0
    2.5682    2.4816    7.0051 C   0  0  0  0  0  0  0  0  0  0  0  0
    3.6030    1.6826    7.4837 C   0  0  0  0  0  0  0  0  0  0  0  0
    4.0155    1.8054    8.7964 C   0  0  0  0  0  0  0  0  0  0  0  0
    3.4019    2.7144    9.6394 C   0  0  0  0  0  0  0  0  0  0  0  0
    2.3581    3.5097    9.1825 C   0  0  0  0  0  0  0  0  0  0  0  0
    1.6570    4.4649   10.1043 C   0  0  0  0  0  0  0  0  0  0  0  0
    0.4612    3.7837   10.7727 C   0  0  0  0  0  0  0  0  0  0  0  0
    1.9444    3.3784    7.8672 C   0  0  0  0  0  0  0  0  0  0  0  0
    1.9386    1.1387    4.9483 C   0  0  0  0  0  0  0  0  0  0  0  0
    2.2225   -0.5209    5.4172 S   0  0  0  0  0  0  0  0  0  0  0  0
    1.6236   -1.0369    3.8779 C   0  0  0  0  0  0  0  0  0  0  0  0
    1.4021   -2.2308    3.1666 C   0  0  0  0  0  0  0  0  0  0  0  0
    1.4857   -3.5974    3.5175 C   0  0  0  0  0  0  0  0  0  0  0  0
    1.0508   -4.5944    2.5723 C   0  0  0  0  0  0  0  0  0  0  0  0
    1.1206   -5.8198    3.0671 N   0  0  0  0  0  0  0  0  0  0  0  0
    1.6884   -5.7347    4.5807 S   0  0  0  0  0  0  0  0  0  0  0  0
    1.8675   -4.1286    4.6679 N   0  0  0  0  0  0  0  0  0  0  0  0
    0.6915   -4.1946    1.2649 C   0  0  0  0  0  0  0  0  0  0  0  0
    0.3903   -4.9071    0.0897 C   0  0  0  0  0  0  0  0  0  0  0  0
    0.1542   -6.5426   -0.4266 S   0  0  0  0  0  0  0  0  0  0  0  0
   -0.0551   -5.9698   -2.0643 C   0  0  0  0  0  0  0  0  0  0  0  0
   -0.3208   -6.6306   -3.2754 C   0  0  0  0  0  0  0  0  0  0  0  0
   -0.5470   -8.0763   -3.3707 C   0  0  0  0  0  0  0  0  0  0  0  0
   -1.7188   -8.5704   -3.9390 C   0  0  0  0  0  0  0  0  0  0  0  0
   -1.9189   -9.9348   -4.0242 C   0  0  0  0  0  0  0  0  0  0  0  0
   -0.9590  -10.8119   -3.5475 C   0  0  0  0  0  0  0  0  0  0  0  0
    0.2064  -10.3350   -2.9610 C   0  0  0  0  0  0  0  0  0  0  0  0
    1.2665  -11.2839   -2.4818 C   0  0  0  0  0  0  0  0  0  0  0  0
    2.2240  -11.6322   -3.6235 C   0  0  0  0  0  0  0  0  0  0  0  0
    0.3996   -8.9636   -2.8730 C   0  0  0  0  0  0  0  0  0  0  0  0
   -0.3924   -5.7347   -4.3317 C   0  0  0  0  0  0  0  0  0  0  0  0
   -0.1757   -4.0689   -3.8184 S   0  0  0  0  0  0  0  0  0  0  0  0
    0.0493   -4.5805   -2.1842 C   0  0  0  0  0  0  0  0  0  0  0  0
    0.3006   -3.9732   -0.9488 C   0  0  0  0  0  0  0  0  0  0  0  0
    0.5058   -2.7048   -0.4633 N   0  0  0  0  0  0  0  0  0  0  0  0
    0.7196   -2.8247    0.8977 C   0  0  0  0  0  0  0  0  0  0  0  0
    0.9130   -1.8436    1.8931 C   0  0  0  0  0  0  0  0  0  0  0  0
    0.7716   -0.4680    1.8483 N   0  0  0  0  0  0  0  0  0  0  0  0
    1.2192    0.0178    3.0529 C   0  0  0  0  0  0  0  0  0  0  0  0
    1.3961    1.2631    3.6674 C   0  0  0  0  0  0  0  0  0  0  0  0
    1.1197    2.9167    3.2539 S   0  0  0  0  0  0  0  0  0  0  0  0
   -0.2206    0.2624    1.0839 C   0  0  0  0  0  0  0  0  0  0  0  0
   -1.4565    0.5699    1.9290 C   0  0  0  0  0  0  0  0  0  0  0  0
    1.0396   -1.6717   -1.3285 C   0  0  0  0  0  0  0  0  0  0  0  0
    2.3764   -2.0958   -1.9361 C   0  0  0  0  0  0  0  0  0  0  0  0
   -0.5411   -6.0109   -5.7179 C   0  0  0  0  0  0  0  0  0  0  0  0
   -0.3174   -7.2257   -6.3413 C   0  0  0  0  0  0  0  0  0  0  0  0
   -0.5382   -7.1758   -7.7113 C   0  0  0  0  0  0  0  0  0  0  0  0
   -0.4021   -8.5186   -8.8171 S   0  0  0  0  0  0  0  0  0  0  0  0
    0.1076   -9.9119   -7.7484 C   0  0  0  0  0  0  0  0  0  0  0  0
    1.5866   -9.8787   -7.4139 C   0  0  0  0  0  0  0  0  0  0  0  0
   -0.9267   -5.8990   -8.1724 C   0  0  0  0  0  0  0  0  0  0  0  0
   -1.0193   -4.7733   -6.8345 S   0  0  0  0  0  0  0  0  0  0  0  0
   -1.1733   -5.6268   -9.5167 C   0  0  0  0  0  0  0  0  0  0  0  0
   -1.5796   -4.4640  -10.1302 C   0  0  0  0  0  0  0  0  0  0  0  0
   -1.9092   -3.2113   -9.4493 C   0  0  0  0  0  0  0  0  0  0  0  0
   -1.8116   -2.9610   -8.2589 O   0  0  0  0  0  0  0  0  0  0  0  0
   -2.3964   -2.2930  -10.4957 C   0  0  0  0  0  0  0  0  0  0  0  0
   -2.8596   -0.9992  -10.3671 C   0  0  0  0  0  0  0  0  0  0  0  0
   -3.2770   -0.3360  -11.5131 C   0  0  0  0  0  0  0  0  0  0  0  0
   -3.2253   -0.9664  -12.7470 C   0  0  0  0  0  0  0  0  0  0  0  0
   -2.7572   -2.2681  -12.8794 C   0  0  0  0  0  0  0  0  0  0  0  0
   -2.3374   -2.9393  -11.7426 C   0  0  0  0  0  0  0  0  0  0  0  0
   -1.8037   -4.2894  -11.5480 C   0  0  0  0  0  0  0  0  0  0  0  0
   -1.5439   -5.1867  -12.5526 C   0  0  0  0  0  0  0  0  0  0  0  0
   -1.7811   -4.9338  -13.9195 C   0  0  0  0  0  0  0  0  0  0  0  0
   -1.9512   -4.7987  -15.0473 N   0  0  0  0  0  0  0  0  0  0  0  0
   -0.9882   -6.4735  -12.3936 C   0  0  0  0  0  0  0  0  0  0  0  0
   -0.5309   -7.5276  -12.3686 N   0  0  0  0  0  0  0  0  0  0  0  0
    1.4562    9.2858    5.6203 H   0  0  0  0  0  0  0  0  0  0  0  0
   -3.8218    7.9578    2.4667 H   0  0  0  0  0  0  0  0  0  0  0  0
   -2.5945   12.6621    3.8875 H   0  0  0  0  0  0  0  0  0  0  0  0
   -5.1426   12.7313    1.6035 H   0  0  0  0  0  0  0  0  0  0  0  0
   -6.1448   13.1785    4.0300 H   0  0  0  0  0  0  0  0  0  0  0  0
   -8.0940   13.3749    2.2791 H   0  0  0  0  0  0  0  0  0  0  0  0
   -8.7791   10.9212    1.5252 H   0  0  0  0  0  0  0  0  0  0  0  0
   -7.2524    9.2140    2.8125 H   0  0  0  0  0  0  0  0  0  0  0  0
   -5.7717   10.5777    4.5926 H   0  0  0  0  0  0  0  0  0  0  0  0
   -7.4899   11.0117    4.7401 H   0  0  0  0  0  0  0  0  0  0  0  0
   -5.8171   10.3266    0.8621 H   0  0  0  0  0  0  0  0  0  0  0  0
    3.1157    7.6608    6.2480 H   0  0  0  0  0  0  0  0  0  0  0  0
    4.4064    3.0824    4.9369 H   0  0  0  0  0  0  0  0  0  0  0  0
    6.0035    3.7292    5.3552 H   0  0  0  0  0  0  0  0  0  0  0  0
    5.5345    4.1136    2.9361 H   0  0  0  0  0  0  0  0  0  0  0  0
    4.0554    4.9862    3.3463 H   0  0  0  0  0  0  0  0  0  0  0  0
    5.6261    5.6561    3.7972 H   0  0  0  0  0  0  0  0  0  0  0  0
    4.0961    0.9855    6.8227 H   0  0  0  0  0  0  0  0  0  0  0  0
    4.8256    1.1918    9.1617 H   0  0  0  0  0  0  0  0  0  0  0  0
    3.7363    2.8109   10.6622 H   0  0  0  0  0  0  0  0  0  0  0  0
    1.3102    5.3332    9.5403 H   0  0  0  0  0  0  0  0  0  0  0  0
    2.3508    4.8119   10.8721 H   0  0  0  0  0  0  0  0  0  0  0  0
    0.7903    2.9214   11.3484 H   0  0  0  0  0  0  0  0  0  0  0  0
   -0.0459    4.4753   11.4414 H   0  0  0  0  0  0  0  0  0  0  0  0
   -0.2484    3.4425   10.0221 H   0  0  0  0  0  0  0  0  0  0  0  0
    1.1229    3.9799    7.5044 H   0  0  0  0  0  0  0  0  0  0  0  0
   -2.4636   -7.8818   -4.3096 H   0  0  0  0  0  0  0  0  0  0  0  0
   -2.8282  -10.3173   -4.4642 H   0  0  0  0  0  0  0  0  0  0  0  0
   -1.1200  -11.8777   -3.6235 H   0  0  0  0  0  0  0  0  0  0  0  0
    1.8287  -10.8278   -1.6652 H   0  0  0  0  0  0  0  0  0  0  0  0
    0.8030  -12.1994   -2.1097 H   0  0  0  0  0  0  0  0  0  0  0  0
    2.7018  -10.7323   -4.0055 H   0  0  0  0  0  0  0  0  0  0  0  0
    2.9968  -12.3142   -3.2774 H   0  0  0  0  0  0  0  0  0  0  0  0
    1.6829  -12.1081   -4.4389 H   0  0  0  0  0  0  0  0  0  0  0  0
    1.3031   -8.5770   -2.4240 H   0  0  0  0  0  0  0  0  0  0  0  0
    0.2265    1.1963    0.7279 H   0  0  0  0  0  0  0  0  0  0  0  0
   -0.5298   -0.3437    0.2340 H   0  0  0  0  0  0  0  0  0  0  0  0
   -2.2029    1.0631    1.3128 H   0  0  0  0  0  0  0  0  0  0  0  0
   -1.8803   -0.3516    2.3229 H   0  0  0  0  0  0  0  0  0  0  0  0
   -1.2107    1.2247    2.7600 H   0  0  0  0  0  0  0  0  0  0  0  0
    0.3149   -1.4757   -2.1249 H   0  0  0  0  0  0  0  0  0  0  0  0
    1.1994   -0.7652   -0.7484 H   0  0  0  0  0  0  0  0  0  0  0  0
    3.0906   -2.3243   -1.1476 H   0  0  0  0  0  0  0  0  0  0  0  0
    2.7719   -1.2865   -2.5433 H   0  0  0  0  0  0  0  0  0  0  0  0
    2.2582   -2.9728   -2.5659 H   0  0  0  0  0  0  0  0  0  0  0  0
    0.0103   -8.0937   -5.8041 H   0  0  0  0  0  0  0  0  0  0  0  0
   -0.5229   -9.9115   -6.8598 H   0  0  0  0  0  0  0  0  0  0  0  0
   -0.1300  -10.7903   -8.3486 H   0  0  0  0  0  0  0  0  0  0  0  0
    1.8469   -8.9773   -6.8640 H   0  0  0  0  0  0  0  0  0  0  0  0
    1.8446  -10.7425   -6.8046 H   0  0  0  0  0  0  0  0  0  0  0  0
    2.1780   -9.9058   -8.3258 H   0  0  0  0  0  0  0  0  0  0  0  0
   -1.0239   -6.4887  -10.1574 H   0  0  0  0  0  0  0  0  0  0  0  0
   -2.8915   -0.5295   -9.3960 H   0  0  0  0  0  0  0  0  0  0  0  0
   -3.6454    0.6766  -11.4445 H   0  0  0  0  0  0  0  0  0  0  0  0
   -3.5561   -0.4376  -13.6285 H   0  0  0  0  0  0  0  0  0  0  0  0
   -2.7315   -2.7315  -13.8518 H   0  0  0  0  0  0  0  0  0  0  0  0
  1  2  2  0  0  0  0
  2  3  1  0  0  0  0
  3  4  2  0  0  0  0
  3  5  1  0  0  0  0
  5  6  2  0  0  0  0
  6  7  1  0  0  0  0
  7  8  2  0  0  0  0
  8  9  1  0  0  0  0
  9 10  2  0  0  0  0
 10 11  1  0  0  0  0
 11 12  2  0  0  0  0
 12 13  1  0  0  0  0
 13 14  3  0  0  0  0
 12 15  1  0  0  0  0
 15 16  3  0  0  0  0
  8 17  1  0  0  0  0
 17 18  1  0  0  0  0
 18 19  1  0  0  0  0
 19 20  2  0  0  0  0
 20 21  1  0  0  0  0
 21 22  1  0  0  0  0
 21 23  1  0  0  0  0
  1 24  1  0  0  0  0
 24 25  2  0  0  0  0
 25 26  1  0  0  0  0
 26 27  1  0  0  0  0
 27 28  1  0  0  0  0
 28 29  1  0  0  0  0
 26 30  2  0  0  0  0
 30 31  1  0  0  0  0
 30 32  1  0  0  0  0
 32 33  2  0  0  0  0
 33 34  1  0  0  0  0
 34 35  2  0  0  0  0
 35 36  1  0  0  0  0
 36 37  2  0  0  0  0
 37 38  1  0  0  0  0
 38 39  1  0  0  0  0
 39 40  1  0  0  0  0
 38 41  2  0  0  0  0
 33 42  1  0  0  0  0
 42 43  1  0  0  0  0
 43 44  1  0  0  0  0
 44 45  1  0  0  0  0
 45 46  1  0  0  0  0
 46 47  1  0  0  0  0
 47 48  2  0  0  0  0
 48 49  1  0  0  0  0
 49 50  1  0  0  0  0
 47 51  1  0  0  0  0
 51 52  1  0  0  0  0
 52 53  1  0  0  0  0
 53 54  1  0  0  0  0
 54 55  1  0  0  0  0
 55 56  1  0  0  0  0
 56 57  2  0  0  0  0
 57 58  1  0  0  0  0
 58 59  2  0  0  0  0
 59 60  1  0  0  0  0
 60 61  1  0  0  0  0
 61 62  1  0  0  0  0
 60 63  2  0  0  0  0
 55 64  2  0  0  0  0
 64 65  1  0  0  0  0
 65 66  1  0  0  0  0
 66 67  1  0  0  0  0
 67 68  1  0  0  0  0
 68 69  1  0  0  0  0
 69 70  1  0  0  0  0
 70 71  1  0  0  0  0
 71 72  1  0  0  0  0
 72 73  1  0  0  0  0
 73 74  1  0  0  0  0
 71 75  1  0  0  0  0
 75 76  1  0  0  0  0
 68 77  1  0  0  0  0
 77 78  1  0  0  0  0
 64 79  1  0  0  0  0
 79 80  2  0  0  0  0
 80 81  1  0  0  0  0
 81 82  1  0  0  0  0
 82 83  1  0  0  0  0
 83 84  1  0  0  0  0
 81 85  2  0  0  0  0
 85 86  1  0  0  0  0
 85 87  1  0  0  0  0
 87 88  2  0  0  0  0
 88 89  1  0  0  0  0
 89 90  2  0  0  0  0
 89 91  1  0  0  0  0
 91 92  2  0  0  0  0
 92 93  1  0  0  0  0
 93 94  2  0  0  0  0
 94 95  1  0  0  0  0
 95 96  2  0  0  0  0
 96 97  1  0  0  0  0
 97 98  2  0  0  0  0
 98 99  1  0  0  0  0
 99100  3  0  0  0  0
 98101  1  0  0  0  0
101102  3  0  0  0  0
 11  2  1  0  0  0  0
 23 17  1  0  0  0  0
 31 24  1  0  0  0  0
 74 32  1  0  0  0  0
 86 79  1  0  0  0  0
 97 88  1  0  0  0  0
 10  5  1  0  0  0  0
 22 18  1  0  0  0  0
 41 34  1  0  0  0  0
 73 42  2  0  0  0  0
 96 91  1  0  0  0  0
 23  7  1  0  0  0  0
 72 44  2  0  0  0  0
 70 45  2  0  0  0  0
 50 46  2  0  0  0  0
 69 51  2  0  0  0  0
 67 52  2  0  0  0  0
 66 54  2  0  0  0  0
 63 56  1  0  0  0  0
  1103  1  0  0  0  0
  6104  1  0  0  0  0
  9105  1  0  0  0  0
 17106  1  0  0  0  0
 18107  1  0  0  0  0
 19108  1  0  0  0  0
 20109  1  0  0  0  0
 21110  1  0  0  0  0
 22111  1  0  0  0  0
 22112  1  0  0  0  0
 23113  1  0  0  0  0
 25114  1  0  0  0  0
 28115  1  0  0  0  0
 28116  1  0  0  0  0
 29117  1  0  0  0  0
 29118  1  0  0  0  0
 29119  1  0  0  0  0
 35120  1  0  0  0  0
 36121  1  0  0  0  0
 37122  1  0  0  0  0
 39123  1  0  0  0  0
 39124  1  0  0  0  0
 40125  1  0  0  0  0
 40126  1  0  0  0  0
 40127  1  0  0  0  0
 41128  1  0  0  0  0
 57129  1  0  0  0  0
 58130  1  0  0  0  0
 59131  1  0  0  0  0
 61132  1  0  0  0  0
 61133  1  0  0  0  0
 62134  1  0  0  0  0
 62135  1  0  0  0  0
 62136  1  0  0  0  0
 63137  1  0  0  0  0
 75138  1  0  0  0  0
 75139  1  0  0  0  0
 76140  1  0  0  0  0
 76141  1  0  0  0  0
 76142  1  0  0  0  0
 77143  1  0  0  0  0
 77144  1  0  0  0  0
 78145  1  0  0  0  0
 78146  1  0  0  0  0
 78147  1  0  0  0  0
 80148  1  0  0  0  0
 83149  1  0  0  0  0
 83150  1  0  0  0  0
 84151  1  0  0  0  0
 84152  1  0  0  0  0
 84153  1  0  0  0  0
 87154  1  0  0  0  0
 92155  1  0  0  0  0
 93156  1  0  0  0  0
 94157  1  0  0  0  0
 95158  1  0  0  0  0
M  END
