
  xtb     02122221293D
 energy: -239.144306779048 gnorm: 0.000853014651 xtb: 6.4.1 (unknown)
144161  0     0  0            999 V2000
    1.4863   -8.9784    3.0203 C   0  0  0  0  0  0  0  0  0  0  0  0
    1.8018   -9.4577    1.7783 C   0  0  0  0  0  0  0  0  0  0  0  0
    1.8037   -8.6742    0.5361 C   0  0  0  0  0  0  0  0  0  0  0  0
    1.6113   -7.4766    0.4175 O   0  0  0  0  0  0  0  0  0  0  0  0
    2.0777   -9.6242   -0.5532 C   0  0  0  0  0  0  0  0  0  0  0  0
    2.1408   -9.3408   -1.9154 C   0  0  0  0  0  0  0  0  0  0  0  0
    2.4088  -10.4353   -2.7015 C   0  0  0  0  0  0  0  0  0  0  0  0
    2.5949  -11.7191   -2.1715 C   0  0  0  0  0  0  0  0  0  0  0  0
    2.5320  -12.0121   -0.8298 C   0  0  0  0  0  0  0  0  0  0  0  0
    2.2669  -10.9114   -0.0101 C   0  0  0  0  0  0  0  0  0  0  0  0
    2.1335  -10.8307    1.4435 C   0  0  0  0  0  0  0  0  0  0  0  0
    2.3263  -11.8697    2.3163 C   0  0  0  0  0  0  0  0  0  0  0  0
    2.6668  -13.1841    1.9324 C   0  0  0  0  0  0  0  0  0  0  0  0
    2.9442  -14.2738    1.7013 N   0  0  0  0  0  0  0  0  0  0  0  0
    2.2397  -11.7916    3.7223 C   0  0  0  0  0  0  0  0  0  0  0  0
    2.1989  -11.8183    4.8700 N   0  0  0  0  0  0  0  0  0  0  0  0
    2.8333  -12.3315   -3.5286 C   0  0  0  0  0  0  0  0  0  0  0  0
    4.2946  -12.6574   -3.9248 C   0  0  0  0  0  0  0  0  0  0  0  0
    5.1719  -11.7066   -3.1489 C   0  0  0  0  0  0  0  0  0  0  0  0
    4.9960  -10.4919   -3.6512 C   0  0  0  0  0  0  0  0  0  0  0  0
    3.9959  -10.5995   -4.7757 C   0  0  0  0  0  0  0  0  0  0  0  0
    4.3410  -11.9977   -5.3124 C   0  0  0  0  0  0  0  0  0  0  0  0
    2.6258  -10.9012   -4.1192 C   0  0  0  0  0  0  0  0  0  0  0  0
    1.1487   -7.6755    3.4268 C   0  0  0  0  0  0  0  0  0  0  0  0
    0.8252   -7.3699    4.7454 C   0  0  0  0  0  0  0  0  0  0  0  0
    0.5282   -6.0320    4.9633 C   0  0  0  0  0  0  0  0  0  0  0  0
    0.1264   -5.4307    6.5807 S   0  0  0  0  0  0  0  0  0  0  0  0
    1.5785   -4.3555    6.8829 C   0  0  0  0  0  0  0  0  0  0  0  0
    2.8651   -5.1530    6.9384 C   0  0  0  0  0  0  0  0  0  0  0  0
    0.6086   -5.2722    3.7974 C   0  0  0  0  0  0  0  0  0  0  0  0
    1.0844   -6.2375    2.4393 S   0  0  0  0  0  0  0  0  0  0  0  0
    0.3262   -3.8898    3.6107 C   0  0  0  0  0  0  0  0  0  0  0  0
    0.8374   -3.0905    2.1372 S   0  0  0  0  0  0  0  0  0  0  0  0
    0.0984   -1.6110    2.6526 C   0  0  0  0  0  0  0  0  0  0  0  0
    0.0436   -0.4230    1.8974 C   0  0  0  0  0  0  0  0  0  0  0  0
   -0.6719    0.6645    2.4602 C   0  0  0  0  0  0  0  0  0  0  0  0
   -1.2256    0.5515    3.7474 C   0  0  0  0  0  0  0  0  0  0  0  0
   -1.1348   -0.6025    4.4964 C   0  0  0  0  0  0  0  0  0  0  0  0
   -1.6773   -0.6383    5.8383 C   0  0  0  0  0  0  0  0  0  0  0  0
   -2.7724    0.0262    6.3196 C   0  0  0  0  0  0  0  0  0  0  0  0
   -3.0059   -0.1961    7.6903 C   0  0  0  0  0  0  0  0  0  0  0  0
   -2.0824   -1.0094    8.2732 C   0  0  0  0  0  0  0  0  0  0  0  0
   -2.0194   -1.5009    9.6774 C   0  0  0  0  0  0  0  0  0  0  0  0
   -2.3435   -2.9947    9.7546 C   0  0  0  0  0  0  0  0  0  0  0  0
   -0.9039   -1.5310    7.1188 S   0  0  0  0  0  0  0  0  0  0  0  0
   -0.4880   -1.7320    3.9190 C   0  0  0  0  0  0  0  0  0  0  0  0
   -0.3617   -3.0403    4.4360 C   0  0  0  0  0  0  0  0  0  0  0  0
   -0.7901    1.8413    1.6669 C   0  0  0  0  0  0  0  0  0  0  0  0
   -1.5234    3.0121    1.9643 C   0  0  0  0  0  0  0  0  0  0  0  0
   -1.4964    3.9417    0.9599 C   0  0  0  0  0  0  0  0  0  0  0  0
   -0.5275    3.4053   -0.3897 S   0  0  0  0  0  0  0  0  0  0  0  0
   -0.1729    1.9068    0.4072 C   0  0  0  0  0  0  0  0  0  0  0  0
    0.5863    0.8397   -0.1235 C   0  0  0  0  0  0  0  0  0  0  0  0
    1.2554    0.9123   -1.4027 C   0  0  0  0  0  0  0  0  0  0  0  0
    1.6380    2.0027   -2.1361 C   0  0  0  0  0  0  0  0  0  0  0  0
    2.2986    1.6679   -3.3330 C   0  0  0  0  0  0  0  0  0  0  0  0
    2.4222    0.3263   -3.5298 C   0  0  0  0  0  0  0  0  0  0  0  0
    3.0917   -0.3881   -4.6522 C   0  0  0  0  0  0  0  0  0  0  0  0
    4.4523   -0.9409   -4.2216 C   0  0  0  0  0  0  0  0  0  0  0  0
    1.7266   -0.5580   -2.2152 S   0  0  0  0  0  0  0  0  0  0  0  0
    0.6559   -0.3096    0.6386 C   0  0  0  0  0  0  0  0  0  0  0  0
   -2.1502    5.2056    0.9097 C   0  0  0  0  0  0  0  0  0  0  0  0
   -2.7891    5.8828    1.9236 C   0  0  0  0  0  0  0  0  0  0  0  0
   -3.3329    7.1044    1.5122 C   0  0  0  0  0  0  0  0  0  0  0  0
   -4.1951    8.1636    2.6178 S   0  0  0  0  0  0  0  0  0  0  0  0
   -3.2781    9.7438    2.4363 C   0  0  0  0  0  0  0  0  0  0  0  0
   -1.8578    9.6220    2.9462 C   0  0  0  0  0  0  0  0  0  0  0  0
   -3.1325    7.3820    0.1641 C   0  0  0  0  0  0  0  0  0  0  0  0
   -2.2076    6.0988   -0.5768 S   0  0  0  0  0  0  0  0  0  0  0  0
   -3.7356    8.4202   -0.5780 C   0  0  0  0  0  0  0  0  0  0  0  0
   -3.4555    8.8397   -1.8416 C   0  0  0  0  0  0  0  0  0  0  0  0
   -4.4893    9.5484   -2.6418 C   0  0  0  0  0  0  0  0  0  0  0  0
   -5.4933   10.0790   -2.2235 O   0  0  0  0  0  0  0  0  0  0  0  0
   -4.0490    9.4101   -4.0448 C   0  0  0  0  0  0  0  0  0  0  0  0
   -4.7548    9.7701   -5.1914 C   0  0  0  0  0  0  0  0  0  0  0  0
   -4.1012    9.4807   -6.3654 C   0  0  0  0  0  0  0  0  0  0  0  0
   -2.8395    8.8709   -6.4040 C   0  0  0  0  0  0  0  0  0  0  0  0
   -2.1279    8.5152   -5.2831 C   0  0  0  0  0  0  0  0  0  0  0  0
   -2.7729    8.8083   -4.0790 C   0  0  0  0  0  0  0  0  0  0  0  0
   -2.3211    8.6040   -2.7064 C   0  0  0  0  0  0  0  0  0  0  0  0
   -1.0171    8.4832   -2.3006 C   0  0  0  0  0  0  0  0  0  0  0  0
    0.0762    8.3462   -3.1774 C   0  0  0  0  0  0  0  0  0  0  0  0
    0.9986    8.2207   -3.8493 N   0  0  0  0  0  0  0  0  0  0  0  0
   -0.6311    8.5926   -0.9499 C   0  0  0  0  0  0  0  0  0  0  0  0
   -0.2855    8.7360    0.1358 N   0  0  0  0  0  0  0  0  0  0  0  0
   -2.7977    8.8688   -7.9115 C   0  0  0  0  0  0  0  0  0  0  0  0
   -1.9135    9.9442   -8.5778 C   0  0  0  0  0  0  0  0  0  0  0  0
   -2.4338   10.0114   -9.9955 C   0  0  0  0  0  0  0  0  0  0  0  0
   -3.6267   10.5913   -9.9604 C   0  0  0  0  0  0  0  0  0  0  0  0
   -3.9329   10.9262   -8.5183 C   0  0  0  0  0  0  0  0  0  0  0  0
   -2.5178   11.2365   -8.0135 C   0  0  0  0  0  0  0  0  0  0  0  0
   -4.2022    9.5520   -7.8691 C   0  0  0  0  0  0  0  0  0  0  0  0
    1.4699   -9.6905    3.8366 H   0  0  0  0  0  0  0  0  0  0  0  0
    1.9859   -8.3373   -2.2798 H   0  0  0  0  0  0  0  0  0  0  0  0
    2.6725  -13.0069   -0.4414 H   0  0  0  0  0  0  0  0  0  0  0  0
    2.1382  -13.1132   -3.8281 H   0  0  0  0  0  0  0  0  0  0  0  0
    4.5548  -13.7103   -3.8614 H   0  0  0  0  0  0  0  0  0  0  0  0
    5.7681  -11.9970   -2.3038 H   0  0  0  0  0  0  0  0  0  0  0  0
    5.4154   -9.5639   -3.3095 H   0  0  0  0  0  0  0  0  0  0  0  0
    3.9841   -9.7787   -5.4880 H   0  0  0  0  0  0  0  0  0  0  0  0
    5.3294  -12.0421   -5.7670 H   0  0  0  0  0  0  0  0  0  0  0  0
    3.5991  -12.3920   -6.0054 H   0  0  0  0  0  0  0  0  0  0  0  0
    1.7944  -10.7483   -4.8046 H   0  0  0  0  0  0  0  0  0  0  0  0
    0.8125   -8.1074    5.5285 H   0  0  0  0  0  0  0  0  0  0  0  0
    1.6035   -3.5959    6.1024 H   0  0  0  0  0  0  0  0  0  0  0  0
    1.3635   -3.8781    7.8379 H   0  0  0  0  0  0  0  0  0  0  0  0
    3.6978   -4.4931    7.1732 H   0  0  0  0  0  0  0  0  0  0  0  0
    3.0631   -5.6315    5.9807 H   0  0  0  0  0  0  0  0  0  0  0  0
    2.8031   -5.9235    7.7035 H   0  0  0  0  0  0  0  0  0  0  0  0
   -1.7147    1.4097    4.1795 H   0  0  0  0  0  0  0  0  0  0  0  0
   -3.4148    0.6271    5.7007 H   0  0  0  0  0  0  0  0  0  0  0  0
   -3.8319    0.2353    8.2278 H   0  0  0  0  0  0  0  0  0  0  0  0
   -1.0184   -1.3305   10.0829 H   0  0  0  0  0  0  0  0  0  0  0  0
   -2.7329   -0.9356   10.2806 H   0  0  0  0  0  0  0  0  0  0  0  0
   -2.2904   -3.3392   10.7841 H   0  0  0  0  0  0  0  0  0  0  0  0
   -3.3451   -3.1841    9.3754 H   0  0  0  0  0  0  0  0  0  0  0  0
   -1.6370   -3.5684    9.1582 H   0  0  0  0  0  0  0  0  0  0  0  0
   -0.8063   -3.3696    5.3562 H   0  0  0  0  0  0  0  0  0  0  0  0
   -2.0760    3.1605    2.8732 H   0  0  0  0  0  0  0  0  0  0  0  0
    1.4858    3.0198   -1.8252 H   0  0  0  0  0  0  0  0  0  0  0  0
    2.6686    2.4019   -4.0268 H   0  0  0  0  0  0  0  0  0  0  0  0
    2.4615   -1.2138   -4.9917 H   0  0  0  0  0  0  0  0  0  0  0  0
    3.2237    0.3083   -5.4829 H   0  0  0  0  0  0  0  0  0  0  0  0
    5.0999   -0.1333   -3.8881 H   0  0  0  0  0  0  0  0  0  0  0  0
    4.3297   -1.6465   -3.4030 H   0  0  0  0  0  0  0  0  0  0  0  0
    4.9320   -1.4513   -5.0530 H   0  0  0  0  0  0  0  0  0  0  0  0
    1.2055   -1.1610    0.2630 H   0  0  0  0  0  0  0  0  0  0  0  0
   -2.8552    5.5267    2.9347 H   0  0  0  0  0  0  0  0  0  0  0  0
   -3.3056   10.0495    1.3926 H   0  0  0  0  0  0  0  0  0  0  0  0
   -3.8605   10.4445    3.0343 H   0  0  0  0  0  0  0  0  0  0  0  0
   -1.8474    9.2358    3.9632 H   0  0  0  0  0  0  0  0  0  0  0  0
   -1.3848   10.6017    2.9397 H   0  0  0  0  0  0  0  0  0  0  0  0
   -1.2759    8.9603    2.3084 H   0  0  0  0  0  0  0  0  0  0  0  0
   -4.6234    8.8547   -0.1247 H   0  0  0  0  0  0  0  0  0  0  0  0
   -5.7280   10.2301   -5.1223 H   0  0  0  0  0  0  0  0  0  0  0  0
   -1.1642    8.0338   -5.3185 H   0  0  0  0  0  0  0  0  0  0  0  0
   -2.7074    7.8917   -8.3824 H   0  0  0  0  0  0  0  0  0  0  0  0
   -0.8445    9.7949   -8.4540 H   0  0  0  0  0  0  0  0  0  0  0  0
   -1.9223    9.5938  -10.8429 H   0  0  0  0  0  0  0  0  0  0  0  0
   -4.3108   10.7547  -10.7725 H   0  0  0  0  0  0  0  0  0  0  0  0
   -4.7032   11.6721   -8.3423 H   0  0  0  0  0  0  0  0  0  0  0  0
   -2.4418   11.3263   -6.9315 H   0  0  0  0  0  0  0  0  0  0  0  0
   -2.0994   12.1253   -8.4827 H   0  0  0  0  0  0  0  0  0  0  0  0
   -5.0488    9.0307   -8.3123 H   0  0  0  0  0  0  0  0  0  0  0  0
  1  2  2  0  0  0  0
  2  3  1  0  0  0  0
  3  4  2  0  0  0  0
  3  5  1  0  0  0  0
  5  6  2  0  0  0  0
  6  7  1  0  0  0  0
  7  8  2  0  0  0  0
  8  9  1  0  0  0  0
  9 10  2  0  0  0  0
 10 11  1  0  0  0  0
 11 12  2  0  0  0  0
 12 13  1  0  0  0  0
 13 14  3  0  0  0  0
 12 15  1  0  0  0  0
 15 16  3  0  0  0  0
  8 17  1  0  0  0  0
 17 18  1  0  0  0  0
 18 19  1  0  0  0  0
 19 20  2  0  0  0  0
 20 21  1  0  0  0  0
 21 22  1  0  0  0  0
 21 23  1  0  0  0  0
  1 24  1  0  0  0  0
 24 25  2  0  0  0  0
 25 26  1  0  0  0  0
 26 27  1  0  0  0  0
 27 28  1  0  0  0  0
 28 29  1  0  0  0  0
 26 30  2  0  0  0  0
 30 31  1  0  0  0  0
 30 32  1  0  0  0  0
 32 33  1  0  0  0  0
 33 34  1  0  0  0  0
 34 35  2  0  0  0  0
 35 36  1  0  0  0  0
 36 37  2  0  0  0  0
 37 38  1  0  0  0  0
 38 39  1  0  0  0  0
 39 40  2  0  0  0  0
 40 41  1  0  0  0  0
 41 42  2  0  0  0  0
 42 43  1  0  0  0  0
 43 44  1  0  0  0  0
 42 45  1  0  0  0  0
 38 46  2  0  0  0  0
 46 47  1  0  0  0  0
 36 48  1  0  0  0  0
 48 49  1  0  0  0  0
 49 50  2  0  0  0  0
 50 51  1  0  0  0  0
 51 52  1  0  0  0  0
 52 53  1  0  0  0  0
 53 54  1  0  0  0  0
 54 55  2  0  0  0  0
 55 56  1  0  0  0  0
 56 57  2  0  0  0  0
 57 58  1  0  0  0  0
 58 59  1  0  0  0  0
 57 60  1  0  0  0  0
 53 61  2  0  0  0  0
 50 62  1  0  0  0  0
 62 63  2  0  0  0  0
 63 64  1  0  0  0  0
 64 65  1  0  0  0  0
 65 66  1  0  0  0  0
 66 67  1  0  0  0  0
 64 68  2  0  0  0  0
 68 69  1  0  0  0  0
 68 70  1  0  0  0  0
 70 71  2  0  0  0  0
 71 72  1  0  0  0  0
 72 73  2  0  0  0  0
 72 74  1  0  0  0  0
 74 75  2  0  0  0  0
 75 76  1  0  0  0  0
 76 77  2  0  0  0  0
 77 78  1  0  0  0  0
 78 79  2  0  0  0  0
 79 80  1  0  0  0  0
 80 81  2  0  0  0  0
 81 82  1  0  0  0  0
 82 83  3  0  0  0  0
 81 84  1  0  0  0  0
 84 85  3  0  0  0  0
 77 86  1  0  0  0  0
 86 87  1  0  0  0  0
 87 88  1  0  0  0  0
 88 89  2  0  0  0  0
 89 90  1  0  0  0  0
 90 91  1  0  0  0  0
 90 92  1  0  0  0  0
 11  2  1  0  0  0  0
 23 17  1  0  0  0  0
 31 24  1  0  0  0  0
 47 32  2  0  0  0  0
 52 48  2  0  0  0  0
 60 54  1  0  0  0  0
 69 62  1  0  0  0  0
 80 71  1  0  0  0  0
 92 86  1  0  0  0  0
 10  5  1  0  0  0  0
 22 18  1  0  0  0  0
 46 34  1  0  0  0  0
 79 74  1  0  0  0  0
 91 87  1  0  0  0  0
 23  7  1  0  0  0  0
 61 35  1  0  0  0  0
 92 76  1  0  0  0  0
 45 39  1  0  0  0  0
  1 93  1  0  0  0  0
  6 94  1  0  0  0  0
  9 95  1  0  0  0  0
 17 96  1  0  0  0  0
 18 97  1  0  0  0  0
 19 98  1  0  0  0  0
 20 99  1  0  0  0  0
 21100  1  0  0  0  0
 22101  1  0  0  0  0
 22102  1  0  0  0  0
 23103  1  0  0  0  0
 25104  1  0  0  0  0
 28105  1  0  0  0  0
 28106  1  0  0  0  0
 29107  1  0  0  0  0
 29108  1  0  0  0  0
 29109  1  0  0  0  0
 37110  1  0  0  0  0
 40111  1  0  0  0  0
 41112  1  0  0  0  0
 43113  1  0  0  0  0
 43114  1  0  0  0  0
 44115  1  0  0  0  0
 44116  1  0  0  0  0
 44117  1  0  0  0  0
 47118  1  0  0  0  0
 49119  1  0  0  0  0
 55120  1  0  0  0  0
 56121  1  0  0  0  0
 58122  1  0  0  0  0
 58123  1  0  0  0  0
 59124  1  0  0  0  0
 59125  1  0  0  0  0
 59126  1  0  0  0  0
 61127  1  0  0  0  0
 63128  1  0  0  0  0
 66129  1  0  0  0  0
 66130  1  0  0  0  0
 67131  1  0  0  0  0
 67132  1  0  0  0  0
 67133  1  0  0  0  0
 70134  1  0  0  0  0
 75135  1  0  0  0  0
 78136  1  0  0  0  0
 86137  1  0  0  0  0
 87138  1  0  0  0  0
 88139  1  0  0  0  0
 89140  1  0  0  0  0
 90141  1  0  0  0  0
 91142  1  0  0  0  0
 91143  1  0  0  0  0
 92144  1  0  0  0  0
M  END
