
  xtb     02142220533D
 energy: -322.122264093653 gnorm: 0.000358392760 xtb: 6.4.1 (unknown)
196216  0     0  0            999 V2000
    2.0121    1.8227   11.6975 C   0  0  0  0  0  0  0  0  0  0  0  0
    0.8290    2.4874   11.8950 C   0  0  0  0  0  0  0  0  0  0  0  0
    0.0166    3.1083   10.8449 C   0  0  0  0  0  0  0  0  0  0  0  0
    0.2827    3.1984    9.6576 O   0  0  0  0  0  0  0  0  0  0  0  0
   -1.2020    3.6071   11.5029 C   0  0  0  0  0  0  0  0  0  0  0  0
   -2.2832    4.2403   10.8958 C   0  0  0  0  0  0  0  0  0  0  0  0
   -3.2920    4.5793   11.7653 C   0  0  0  0  0  0  0  0  0  0  0  0
   -3.2308    4.3051   13.1377 C   0  0  0  0  0  0  0  0  0  0  0  0
   -2.1686    3.6811   13.7488 C   0  0  0  0  0  0  0  0  0  0  0  0
   -1.1288    3.3311   12.8834 C   0  0  0  0  0  0  0  0  0  0  0  0
    0.1405    2.6572   13.1582 C   0  0  0  0  0  0  0  0  0  0  0  0
    0.5823    2.2766   14.4005 C   0  0  0  0  0  0  0  0  0  0  0  0
   -0.1310    2.4786   15.6002 C   0  0  0  0  0  0  0  0  0  0  0  0
   -0.6479    2.6060   16.6178 N   0  0  0  0  0  0  0  0  0  0  0  0
    1.8105    1.6427   14.6792 C   0  0  0  0  0  0  0  0  0  0  0  0
    2.7877    1.1281   14.9974 N   0  0  0  0  0  0  0  0  0  0  0  0
   -4.5838    4.9174   13.4014 C   0  0  0  0  0  0  0  0  0  0  0  0
   -4.6269    6.3279   14.0391 C   0  0  0  0  0  0  0  0  0  0  0  0
   -3.3383    7.0111   13.6539 C   0  0  0  0  0  0  0  0  0  0  0  0
   -3.3919    7.2735   12.3549 C   0  0  0  0  0  0  0  0  0  0  0  0
   -4.7182    6.7730   11.8383 C   0  0  0  0  0  0  0  0  0  0  0  0
   -5.6005    7.0207   13.0722 C   0  0  0  0  0  0  0  0  0  0  0  0
   -4.6500    5.2261   11.8723 C   0  0  0  0  0  0  0  0  0  0  0  0
    2.7199    1.5755   10.5122 C   0  0  0  0  0  0  0  0  0  0  0  0
    3.8682    0.7862   10.4897 C   0  0  0  0  0  0  0  0  0  0  0  0
    4.4258    0.6188    9.2292 C   0  0  0  0  0  0  0  0  0  0  0  0
    5.7407   -0.4735    8.8213 S   0  0  0  0  0  0  0  0  0  0  0  0
    6.5681   -0.7504   10.4264 C   0  0  0  0  0  0  0  0  0  0  0  0
    7.2563    0.4979   10.9406 C   0  0  0  0  0  0  0  0  0  0  0  0
    3.7115    1.3140    8.2486 C   0  0  0  0  0  0  0  0  0  0  0  0
    2.3258    2.1254    8.9050 S   0  0  0  0  0  0  0  0  0  0  0  0
    3.9386    1.3667    6.8447 C   0  0  0  0  0  0  0  0  0  0  0  0
    5.1220    1.3995    6.1268 C   0  0  0  0  0  0  0  0  0  0  0  0
    6.4544    1.5934    6.6941 C   0  0  0  0  0  0  0  0  0  0  0  0
    6.6616    2.5267    7.7074 C   0  0  0  0  0  0  0  0  0  0  0  0
    7.9349    2.7354    8.1994 C   0  0  0  0  0  0  0  0  0  0  0  0
    9.0074    2.0217    7.6903 C   0  0  0  0  0  0  0  0  0  0  0  0
    8.8183    1.0898    6.6782 C   0  0  0  0  0  0  0  0  0  0  0  0
    9.9762    0.3445    6.0802 C   0  0  0  0  0  0  0  0  0  0  0  0
   10.4194    1.0127    4.7772 C   0  0  0  0  0  0  0  0  0  0  0  0
    7.5386    0.8892    6.1839 C   0  0  0  0  0  0  0  0  0  0  0  0
    4.8761    1.3619    4.7398 C   0  0  0  0  0  0  0  0  0  0  0  0
    5.9375    1.3519    3.3511 S   0  0  0  0  0  0  0  0  0  0  0  0
    4.5492    1.3226    2.3183 C   0  0  0  0  0  0  0  0  0  0  0  0
    4.2393    1.2325    0.9513 C   0  0  0  0  0  0  0  0  0  0  0  0
    5.0662    1.0281   -0.1745 C   0  0  0  0  0  0  0  0  0  0  0  0
    4.4530    0.8029   -1.4525 C   0  0  0  0  0  0  0  0  0  0  0  0
    5.3397    0.5501   -2.4025 N   0  0  0  0  0  0  0  0  0  0  0  0
    6.8203    0.6009   -1.7473 S   0  0  0  0  0  0  0  0  0  0  0  0
    6.3863    0.9422   -0.2248 N   0  0  0  0  0  0  0  0  0  0  0  0
    3.0518    0.9246   -1.5656 C   0  0  0  0  0  0  0  0  0  0  0  0
    2.2093    0.8956   -2.6885 C   0  0  0  0  0  0  0  0  0  0  0  0
    2.3094    0.6190   -4.3931 S   0  0  0  0  0  0  0  0  0  0  0  0
    0.5920    0.9219   -4.5241 C   0  0  0  0  0  0  0  0  0  0  0  0
   -0.3104    0.8927   -5.6130 C   0  0  0  0  0  0  0  0  0  0  0  0
    0.0728    0.6642   -7.0054 C   0  0  0  0  0  0  0  0  0  0  0  0
   -0.5805    1.3325   -8.0402 C   0  0  0  0  0  0  0  0  0  0  0  0
   -0.2114    1.1020   -9.3492 C   0  0  0  0  0  0  0  0  0  0  0  0
    0.8196    0.2269   -9.6493 C   0  0  0  0  0  0  0  0  0  0  0  0
    1.5045   -0.4265   -8.6338 C   0  0  0  0  0  0  0  0  0  0  0  0
    2.6700   -1.3415   -8.8983 C   0  0  0  0  0  0  0  0  0  0  0  0
    2.6374   -2.0393  -10.2535 C   0  0  0  0  0  0  0  0  0  0  0  0
    1.1174   -0.1968   -7.3208 C   0  0  0  0  0  0  0  0  0  0  0  0
   -1.5930    1.1837   -5.1965 C   0  0  0  0  0  0  0  0  0  0  0  0
   -1.6909    1.5473   -3.4869 S   0  0  0  0  0  0  0  0  0  0  0  0
    0.0006    1.2436   -3.3018 C   0  0  0  0  0  0  0  0  0  0  0  0
    0.9256    1.2180   -2.2472 C   0  0  0  0  0  0  0  0  0  0  0  0
    0.9373    1.4279   -0.8932 N   0  0  0  0  0  0  0  0  0  0  0  0
    2.2310    1.2286   -0.4438 C   0  0  0  0  0  0  0  0  0  0  0  0
    2.8200    1.2525    0.8479 C   0  0  0  0  0  0  0  0  0  0  0  0
    2.2869    1.3162    2.1275 N   0  0  0  0  0  0  0  0  0  0  0  0
    3.3369    1.3412    3.0095 C   0  0  0  0  0  0  0  0  0  0  0  0
    3.5222    1.3516    4.3977 C   0  0  0  0  0  0  0  0  0  0  0  0
    2.5201    1.3661    5.8038 S   0  0  0  0  0  0  0  0  0  0  0  0
    1.0039    0.8521    2.6091 C   0  0  0  0  0  0  0  0  0  0  0  0
    0.8808   -0.6629    2.4593 C   0  0  0  0  0  0  0  0  0  0  0  0
   -0.1696    2.1107   -0.2633 C   0  0  0  0  0  0  0  0  0  0  0  0
   -1.3412    1.1740    0.0284 C   0  0  0  0  0  0  0  0  0  0  0  0
   -2.8257    1.0752   -5.9474 C   0  0  0  0  0  0  0  0  0  0  0  0
   -3.8335    2.0156   -5.8908 C   0  0  0  0  0  0  0  0  0  0  0  0
   -5.0108    1.8653   -6.6261 C   0  0  0  0  0  0  0  0  0  0  0  0
   -5.2580    0.7337   -7.3747 C   0  0  0  0  0  0  0  0  0  0  0  0
   -4.2574   -0.2814   -7.4213 C   0  0  0  0  0  0  0  0  0  0  0  0
   -4.4687   -1.4188   -8.0995 N   0  0  0  0  0  0  0  0  0  0  0  0
   -3.5403   -2.3465   -8.1349 C   0  0  0  0  0  0  0  0  0  0  0  0
   -3.9308   -3.6030   -8.7834 C   0  0  0  0  0  0  0  0  0  0  0  0
   -4.8006   -3.5635   -9.8742 C   0  0  0  0  0  0  0  0  0  0  0  0
   -5.2232   -4.7415  -10.4532 C   0  0  0  0  0  0  0  0  0  0  0  0
   -4.8176   -5.9690   -9.9535 C   0  0  0  0  0  0  0  0  0  0  0  0
   -3.9683   -6.0185   -8.8515 C   0  0  0  0  0  0  0  0  0  0  0  0
   -3.5225   -7.1539   -8.2590 O   0  0  0  0  0  0  0  0  0  0  0  0
   -3.9725   -8.4052   -8.7431 C   0  0  0  0  0  0  0  0  0  0  0  0
   -3.3632   -9.4845   -7.8625 C   0  0  0  0  0  0  0  0  0  0  0  0
   -3.5243   -4.8285   -8.2760 C   0  0  0  0  0  0  0  0  0  0  0  0
   -2.2721   -2.1153   -7.5127 C   0  0  0  0  0  0  0  0  0  0  0  0
   -2.0772   -1.0231   -6.8135 N   0  0  0  0  0  0  0  0  0  0  0  0
   -3.0360   -0.0930   -6.7343 C   0  0  0  0  0  0  0  0  0  0  0  0
   -1.0981   -2.9877   -7.6182 C   0  0  0  0  0  0  0  0  0  0  0  0
   -0.7731   -3.6684   -8.7854 C   0  0  0  0  0  0  0  0  0  0  0  0
    0.3864   -4.4240   -8.8275 C   0  0  0  0  0  0  0  0  0  0  0  0
    1.2323   -4.4836   -7.7391 C   0  0  0  0  0  0  0  0  0  0  0  0
    0.9326   -3.7722   -6.5736 C   0  0  0  0  0  0  0  0  0  0  0  0
    1.8479   -3.8456   -5.5748 O   0  0  0  0  0  0  0  0  0  0  0  0
    1.6345   -3.0961   -4.3921 C   0  0  0  0  0  0  0  0  0  0  0  0
    2.9140   -3.1344   -3.5722 C   0  0  0  0  0  0  0  0  0  0  0  0
   -0.2444   -3.0403   -6.5177 C   0  0  0  0  0  0  0  0  0  0  0  0
   -6.4469    0.5393   -8.1689 C   0  0  0  0  0  0  0  0  0  0  0  0
   -7.1459   -0.6204   -8.2119 C   0  0  0  0  0  0  0  0  0  0  0  0
   -7.0132   -1.6427   -7.1679 C   0  0  0  0  0  0  0  0  0  0  0  0
   -6.5043   -1.4491   -6.0843 O   0  0  0  0  0  0  0  0  0  0  0  0
   -7.6222   -2.8579   -7.4525 N   0  0  0  0  0  0  0  0  0  0  0  0
   -7.5862   -3.8681   -6.4013 C   0  0  0  0  0  0  0  0  0  0  0  0
   -6.3395   -4.7355   -6.4718 C   0  0  0  0  0  0  0  0  0  0  0  0
   -8.2376   -3.1458   -8.6372 C   0  0  0  0  0  0  0  0  0  0  0  0
   -8.6493   -4.6973   -9.0154 S   0  0  0  0  0  0  0  0  0  0  0  0
   -8.5520   -2.1133   -9.4768 N   0  0  0  0  0  0  0  0  0  0  0  0
   -9.3748   -2.3687  -10.6540 C   0  0  0  0  0  0  0  0  0  0  0  0
   -8.5293   -2.7888  -11.8482 C   0  0  0  0  0  0  0  0  0  0  0  0
   -8.1152   -0.8085   -9.2969 C   0  0  0  0  0  0  0  0  0  0  0  0
   -8.4764    0.0805  -10.0389 O   0  0  0  0  0  0  0  0  0  0  0  0
    2.4845    1.3904   12.5711 H   0  0  0  0  0  0  0  0  0  0  0  0
   -2.2907    4.4267    9.8332 H   0  0  0  0  0  0  0  0  0  0  0  0
   -2.1411    3.4743   14.8055 H   0  0  0  0  0  0  0  0  0  0  0  0
   -5.3347    4.2498   13.8194 H   0  0  0  0  0  0  0  0  0  0  0  0
   -4.8783    6.3377   15.0963 H   0  0  0  0  0  0  0  0  0  0  0  0
   -2.5223    7.1760   14.3328 H   0  0  0  0  0  0  0  0  0  0  0  0
   -2.6290    7.7014   11.7312 H   0  0  0  0  0  0  0  0  0  0  0  0
   -5.0527    7.1894   10.8916 H   0  0  0  0  0  0  0  0  0  0  0  0
   -6.5737    6.5350   13.0142 H   0  0  0  0  0  0  0  0  0  0  0  0
   -5.7302    8.0793   13.2917 H   0  0  0  0  0  0  0  0  0  0  0  0
   -5.4466    4.7632   11.2928 H   0  0  0  0  0  0  0  0  0  0  0  0
    4.2445    0.3332   11.3891 H   0  0  0  0  0  0  0  0  0  0  0  0
    5.8375   -1.1450   11.1311 H   0  0  0  0  0  0  0  0  0  0  0  0
    7.2946   -1.5316   10.2028 H   0  0  0  0  0  0  0  0  0  0  0  0
    7.9889    0.8464   10.2161 H   0  0  0  0  0  0  0  0  0  0  0  0
    7.7620    0.2795   11.8790 H   0  0  0  0  0  0  0  0  0  0  0  0
    6.5376    1.2966   11.1115 H   0  0  0  0  0  0  0  0  0  0  0  0
    5.8266    3.0920    8.0948 H   0  0  0  0  0  0  0  0  0  0  0  0
    8.0947    3.4622    8.9830 H   0  0  0  0  0  0  0  0  0  0  0  0
   10.0004    2.1911    8.0826 H   0  0  0  0  0  0  0  0  0  0  0  0
    9.6817   -0.6862    5.8725 H   0  0  0  0  0  0  0  0  0  0  0  0
   10.8120    0.3274    6.7824 H   0  0  0  0  0  0  0  0  0  0  0  0
   10.7305    2.0380    4.9655 H   0  0  0  0  0  0  0  0  0  0  0  0
   11.2538    0.4718    4.3371 H   0  0  0  0  0  0  0  0  0  0  0  0
    9.5995    1.0302    4.0630 H   0  0  0  0  0  0  0  0  0  0  0  0
    7.3769    0.1564    5.4075 H   0  0  0  0  0  0  0  0  0  0  0  0
   -1.3682    2.0367   -7.8160 H   0  0  0  0  0  0  0  0  0  0  0  0
   -0.7261    1.6167  -10.1481 H   0  0  0  0  0  0  0  0  0  0  0  0
    1.0913    0.0685  -10.6809 H   0  0  0  0  0  0  0  0  0  0  0  0
    3.5910   -0.7541   -8.8194 H   0  0  0  0  0  0  0  0  0  0  0  0
    2.7016   -2.0967   -8.1102 H   0  0  0  0  0  0  0  0  0  0  0  0
    3.4206   -2.7926  -10.2984 H   0  0  0  0  0  0  0  0  0  0  0  0
    2.8020   -1.3366  -11.0666 H   0  0  0  0  0  0  0  0  0  0  0  0
    1.6783   -2.5303  -10.4005 H   0  0  0  0  0  0  0  0  0  0  0  0
    1.6414   -0.7122   -6.5309 H   0  0  0  0  0  0  0  0  0  0  0  0
    0.1863    1.3508    2.0978 H   0  0  0  0  0  0  0  0  0  0  0  0
    0.9502    1.1224    3.6667 H   0  0  0  0  0  0  0  0  0  0  0  0
    0.9673   -0.9522    1.4136 H   0  0  0  0  0  0  0  0  0  0  0  0
   -0.0793   -0.9979    2.8422 H   0  0  0  0  0  0  0  0  0  0  0  0
    1.6697   -1.1604    3.0187 H   0  0  0  0  0  0  0  0  0  0  0  0
   -0.5133    2.8888   -0.9548 H   0  0  0  0  0  0  0  0  0  0  0  0
    0.1929    2.6118    0.6354 H   0  0  0  0  0  0  0  0  0  0  0  0
   -2.1098    1.7080    0.5807 H   0  0  0  0  0  0  0  0  0  0  0  0
   -1.7742    0.8211   -0.9034 H   0  0  0  0  0  0  0  0  0  0  0  0
   -1.0276    0.3083    0.6046 H   0  0  0  0  0  0  0  0  0  0  0  0
   -3.6990    2.8983   -5.2818 H   0  0  0  0  0  0  0  0  0  0  0  0
   -5.7671    2.6343   -6.5703 H   0  0  0  0  0  0  0  0  0  0  0  0
   -5.1245   -2.6066  -10.2535 H   0  0  0  0  0  0  0  0  0  0  0  0
   -5.8843   -4.7173  -11.3064 H   0  0  0  0  0  0  0  0  0  0  0  0
   -5.1773   -6.8711  -10.4216 H   0  0  0  0  0  0  0  0  0  0  0  0
   -5.0693   -8.4532   -8.6993 H   0  0  0  0  0  0  0  0  0  0  0  0
   -3.6549   -8.5427   -9.7861 H   0  0  0  0  0  0  0  0  0  0  0  0
   -2.2790   -9.4259   -7.9017 H   0  0  0  0  0  0  0  0  0  0  0  0
   -3.6799   -9.3447   -6.8327 H   0  0  0  0  0  0  0  0  0  0  0  0
   -3.6819  -10.4647   -8.2048 H   0  0  0  0  0  0  0  0  0  0  0  0
   -2.8820   -4.8923   -7.4123 H   0  0  0  0  0  0  0  0  0  0  0  0
   -1.4094   -3.5968   -9.6538 H   0  0  0  0  0  0  0  0  0  0  0  0
    0.6377   -4.9680   -9.7259 H   0  0  0  0  0  0  0  0  0  0  0  0
    2.1416   -5.0629   -7.7686 H   0  0  0  0  0  0  0  0  0  0  0  0
    0.7980   -3.5283   -3.8245 H   0  0  0  0  0  0  0  0  0  0  0  0
    1.3867   -2.0569   -4.6403 H   0  0  0  0  0  0  0  0  0  0  0  0
    2.7723   -2.5875   -2.6440 H   0  0  0  0  0  0  0  0  0  0  0  0
    3.7257   -2.6738   -4.1287 H   0  0  0  0  0  0  0  0  0  0  0  0
    3.1839   -4.1623   -3.3462 H   0  0  0  0  0  0  0  0  0  0  0  0
   -0.5305   -2.4891   -5.6371 H   0  0  0  0  0  0  0  0  0  0  0  0
   -6.7400    1.3284   -8.8525 H   0  0  0  0  0  0  0  0  0  0  0  0
   -8.4836   -4.4825   -6.4956 H   0  0  0  0  0  0  0  0  0  0  0  0
   -7.6066   -3.3247   -5.4538 H   0  0  0  0  0  0  0  0  0  0  0  0
   -6.2976   -5.2639   -7.4204 H   0  0  0  0  0  0  0  0  0  0  0  0
   -5.4505   -4.1190   -6.3721 H   0  0  0  0  0  0  0  0  0  0  0  0
   -6.3569   -5.4618   -5.6643 H   0  0  0  0  0  0  0  0  0  0  0  0
   -9.8968   -1.4354  -10.8737 H   0  0  0  0  0  0  0  0  0  0  0  0
  -10.0966   -3.1482  -10.4048 H   0  0  0  0  0  0  0  0  0  0  0  0
   -9.1685   -2.9194  -12.7166 H   0  0  0  0  0  0  0  0  0  0  0  0
   -8.0265   -3.7295  -11.6397 H   0  0  0  0  0  0  0  0  0  0  0  0
   -7.7869   -2.0261  -12.0706 H   0  0  0  0  0  0  0  0  0  0  0  0
  1  2  2  0  0  0  0
  2  3  1  0  0  0  0
  3  4  2  0  0  0  0
  3  5  1  0  0  0  0
  5  6  2  0  0  0  0
  6  7  1  0  0  0  0
  7  8  2  0  0  0  0
  8  9  1  0  0  0  0
  9 10  2  0  0  0  0
 10 11  1  0  0  0  0
 11 12  2  0  0  0  0
 12 13  1  0  0  0  0
 13 14  3  0  0  0  0
 12 15  1  0  0  0  0
 15 16  3  0  0  0  0
  8 17  1  0  0  0  0
 17 18  1  0  0  0  0
 18 19  1  0  0  0  0
 19 20  2  0  0  0  0
 20 21  1  0  0  0  0
 21 22  1  0  0  0  0
 21 23  1  0  0  0  0
  1 24  1  0  0  0  0
 24 25  2  0  0  0  0
 25 26  1  0  0  0  0
 26 27  1  0  0  0  0
 27 28  1  0  0  0  0
 28 29  1  0  0  0  0
 26 30  2  0  0  0  0
 30 31  1  0  0  0  0
 30 32  1  0  0  0  0
 32 33  2  0  0  0  0
 33 34  1  0  0  0  0
 34 35  2  0  0  0  0
 35 36  1  0  0  0  0
 36 37  2  0  0  0  0
 37 38  1  0  0  0  0
 38 39  1  0  0  0  0
 39 40  1  0  0  0  0
 38 41  2  0  0  0  0
 33 42  1  0  0  0  0
 42 43  1  0  0  0  0
 43 44  1  0  0  0  0
 44 45  1  0  0  0  0
 45 46  1  0  0  0  0
 46 47  1  0  0  0  0
 47 48  2  0  0  0  0
 48 49  1  0  0  0  0
 49 50  1  0  0  0  0
 47 51  1  0  0  0  0
 51 52  1  0  0  0  0
 52 53  1  0  0  0  0
 53 54  1  0  0  0  0
 54 55  1  0  0  0  0
 55 56  1  0  0  0  0
 56 57  2  0  0  0  0
 57 58  1  0  0  0  0
 58 59  2  0  0  0  0
 59 60  1  0  0  0  0
 60 61  1  0  0  0  0
 61 62  1  0  0  0  0
 60 63  2  0  0  0  0
 55 64  2  0  0  0  0
 64 65  1  0  0  0  0
 65 66  1  0  0  0  0
 66 67  1  0  0  0  0
 67 68  1  0  0  0  0
 68 69  1  0  0  0  0
 69 70  1  0  0  0  0
 70 71  1  0  0  0  0
 71 72  1  0  0  0  0
 72 73  1  0  0  0  0
 73 74  1  0  0  0  0
 71 75  1  0  0  0  0
 75 76  1  0  0  0  0
 68 77  1  0  0  0  0
 77 78  1  0  0  0  0
 64 79  1  0  0  0  0
 79 80  2  0  0  0  0
 80 81  1  0  0  0  0
 81 82  2  0  0  0  0
 82 83  1  0  0  0  0
 83 84  2  0  0  0  0
 84 85  1  0  0  0  0
 85 86  1  0  0  0  0
 86 87  2  0  0  0  0
 87 88  1  0  0  0  0
 88 89  2  0  0  0  0
 89 90  1  0  0  0  0
 90 91  1  0  0  0  0
 91 92  1  0  0  0  0
 92 93  1  0  0  0  0
 90 94  2  0  0  0  0
 85 95  2  0  0  0  0
 95 96  1  0  0  0  0
 96 97  2  0  0  0  0
 95 98  1  0  0  0  0
 98 99  2  0  0  0  0
 99100  1  0  0  0  0
100101  2  0  0  0  0
101102  1  0  0  0  0
102103  1  0  0  0  0
103104  1  0  0  0  0
104105  1  0  0  0  0
102106  2  0  0  0  0
 82107  1  0  0  0  0
107108  2  0  0  0  0
108109  1  0  0  0  0
109110  2  0  0  0  0
109111  1  0  0  0  0
111112  1  0  0  0  0
112113  1  0  0  0  0
111114  1  0  0  0  0
114115  2  0  0  0  0
114116  1  0  0  0  0
116117  1  0  0  0  0
117118  1  0  0  0  0
116119  1  0  0  0  0
119120  2  0  0  0  0
 11  2  1  0  0  0  0
 23 17  1  0  0  0  0
 31 24  1  0  0  0  0
 74 32  1  0  0  0  0
 97 79  1  0  0  0  0
106 98  1  0  0  0  0
119108  1  0  0  0  0
 10  5  1  0  0  0  0
 22 18  1  0  0  0  0
 41 34  1  0  0  0  0
 73 42  2  0  0  0  0
 97 83  1  0  0  0  0
 23  7  1  0  0  0  0
 72 44  2  0  0  0  0
 94 86  1  0  0  0  0
 70 45  2  0  0  0  0
 50 46  2  0  0  0  0
 69 51  2  0  0  0  0
 67 52  2  0  0  0  0
 66 54  2  0  0  0  0
 63 56  1  0  0  0  0
  1121  1  0  0  0  0
  6122  1  0  0  0  0
  9123  1  0  0  0  0
 17124  1  0  0  0  0
 18125  1  0  0  0  0
 19126  1  0  0  0  0
 20127  1  0  0  0  0
 21128  1  0  0  0  0
 22129  1  0  0  0  0
 22130  1  0  0  0  0
 23131  1  0  0  0  0
 25132  1  0  0  0  0
 28133  1  0  0  0  0
 28134  1  0  0  0  0
 29135  1  0  0  0  0
 29136  1  0  0  0  0
 29137  1  0  0  0  0
 35138  1  0  0  0  0
 36139  1  0  0  0  0
 37140  1  0  0  0  0
 39141  1  0  0  0  0
 39142  1  0  0  0  0
 40143  1  0  0  0  0
 40144  1  0  0  0  0
 40145  1  0  0  0  0
 41146  1  0  0  0  0
 57147  1  0  0  0  0
 58148  1  0  0  0  0
 59149  1  0  0  0  0
 61150  1  0  0  0  0
 61151  1  0  0  0  0
 62152  1  0  0  0  0
 62153  1  0  0  0  0
 62154  1  0  0  0  0
 63155  1  0  0  0  0
 75156  1  0  0  0  0
 75157  1  0  0  0  0
 76158  1  0  0  0  0
 76159  1  0  0  0  0
 76160  1  0  0  0  0
 77161  1  0  0  0  0
 77162  1  0  0  0  0
 78163  1  0  0  0  0
 78164  1  0  0  0  0
 78165  1  0  0  0  0
 80166  1  0  0  0  0
 81167  1  0  0  0  0
 87168  1  0  0  0  0
 88169  1  0  0  0  0
 89170  1  0  0  0  0
 92171  1  0  0  0  0
 92172  1  0  0  0  0
 93173  1  0  0  0  0
 93174  1  0  0  0  0
 93175  1  0  0  0  0
 94176  1  0  0  0  0
 99177  1  0  0  0  0
100178  1  0  0  0  0
101179  1  0  0  0  0
104180  1  0  0  0  0
104181  1  0  0  0  0
105182  1  0  0  0  0
105183  1  0  0  0  0
105184  1  0  0  0  0
106185  1  0  0  0  0
107186  1  0  0  0  0
112187  1  0  0  0  0
112188  1  0  0  0  0
113189  1  0  0  0  0
113190  1  0  0  0  0
113191  1  0  0  0  0
117192  1  0  0  0  0
117193  1  0  0  0  0
118194  1  0  0  0  0
118195  1  0  0  0  0
118196  1  0  0  0  0
M  END
