
  xtb     02172222033D
 energy: -256.998711502134 gnorm: 0.000283398181 xtb: 6.4.1 (unknown)
153170  0     0  0            999 V2000
    1.8448    9.0922   -1.0772 C   0  0  0  0  0  0  0  0  0  0  0  0
    2.5121    9.9028   -0.1998 C   0  0  0  0  0  0  0  0  0  0  0  0
    2.9599    9.5492    1.1661 C   0  0  0  0  0  0  0  0  0  0  0  0
    2.6582    8.5801    1.8343 O   0  0  0  0  0  0  0  0  0  0  0  0
    3.9323   10.5895    1.5495 C   0  0  0  0  0  0  0  0  0  0  0  0
    4.6779   10.6375    2.7260 C   0  0  0  0  0  0  0  0  0  0  0  0
    5.5234   11.7173    2.8085 C   0  0  0  0  0  0  0  0  0  0  0  0
    5.6274   12.6763    1.7919 C   0  0  0  0  0  0  0  0  0  0  0  0
    4.9003   12.6399    0.6260 C   0  0  0  0  0  0  0  0  0  0  0  0
    4.0274   11.5521    0.5254 C   0  0  0  0  0  0  0  0  0  0  0  0
    3.1095   11.1781   -0.5463 C   0  0  0  0  0  0  0  0  0  0  0  0
    2.8056   11.9439   -1.6422 C   0  0  0  0  0  0  0  0  0  0  0  0
    1.8387   11.6171   -2.6165 C   0  0  0  0  0  0  0  0  0  0  0  0
    1.0558   11.4368   -3.4374 N   0  0  0  0  0  0  0  0  0  0  0  0
    3.3880   13.1966   -1.9246 C   0  0  0  0  0  0  0  0  0  0  0  0
    3.8235   14.2182   -2.2171 N   0  0  0  0  0  0  0  0  0  0  0  0
    6.6663   13.4736    2.5403 C   0  0  0  0  0  0  0  0  0  0  0  0
    6.1771   14.7633    3.2328 C   0  0  0  0  0  0  0  0  0  0  0  0
    7.2544   15.0569    4.2517 C   0  0  0  0  0  0  0  0  0  0  0  0
    7.1562   14.1500    5.2154 C   0  0  0  0  0  0  0  0  0  0  0  0
    6.0106   13.2283    4.8641 C   0  0  0  0  0  0  0  0  0  0  0  0
    5.0794   14.2222    4.1580 C   0  0  0  0  0  0  0  0  0  0  0  0
    6.5493   12.4054    3.6746 C   0  0  0  0  0  0  0  0  0  0  0  0
    1.1795    7.8780   -0.8198 C   0  0  0  0  0  0  0  0  0  0  0  0
    0.6337    7.3521    0.3352 C   0  0  0  0  0  0  0  0  0  0  0  0
    0.0555    6.1001    0.1528 C   0  0  0  0  0  0  0  0  0  0  0  0
   -0.7013    5.1965    1.4705 S   0  0  0  0  0  0  0  0  0  0  0  0
    0.7938    4.5307    2.3037 C   0  0  0  0  0  0  0  0  0  0  0  0
    1.5071    5.5555    3.1600 C   0  0  0  0  0  0  0  0  0  0  0  0
    0.1076    5.6337   -1.1603 C   0  0  0  0  0  0  0  0  0  0  0  0
    0.8905    6.8013   -2.1773 S   0  0  0  0  0  0  0  0  0  0  0  0
   -0.2925    4.3676   -1.6519 C   0  0  0  0  0  0  0  0  0  0  0  0
   -0.3199    3.9291   -2.9702 C   0  0  0  0  0  0  0  0  0  0  0  0
   -0.1829    4.7716   -4.1605 C   0  0  0  0  0  0  0  0  0  0  0  0
   -1.0094    5.8783   -4.3418 C   0  0  0  0  0  0  0  0  0  0  0  0
   -0.9052    6.6296   -5.4958 C   0  0  0  0  0  0  0  0  0  0  0  0
    0.0100    6.2818   -6.4748 C   0  0  0  0  0  0  0  0  0  0  0  0
    0.8319    5.1739   -6.3149 C   0  0  0  0  0  0  0  0  0  0  0  0
    1.7799    4.7489   -7.3984 C   0  0  0  0  0  0  0  0  0  0  0  0
    1.1372    3.6653   -8.2667 C   0  0  0  0  0  0  0  0  0  0  0  0
    0.7238    4.4230   -5.1537 C   0  0  0  0  0  0  0  0  0  0  0  0
   -0.5576    2.5489   -3.0472 C   0  0  0  0  0  0  0  0  0  0  0  0
   -0.6522    1.4453   -4.4005 S   0  0  0  0  0  0  0  0  0  0  0  0
   -0.9349    0.1505   -3.2870 C   0  0  0  0  0  0  0  0  0  0  0  0
   -1.0580   -1.2475   -3.2952 C   0  0  0  0  0  0  0  0  0  0  0  0
   -0.8855   -2.1973   -4.3268 C   0  0  0  0  0  0  0  0  0  0  0  0
   -0.8252   -3.5921   -3.9856 C   0  0  0  0  0  0  0  0  0  0  0  0
   -0.5701   -4.3577   -5.0347 N   0  0  0  0  0  0  0  0  0  0  0  0
   -0.4285   -3.4104   -6.3403 S   0  0  0  0  0  0  0  0  0  0  0  0
   -0.6800   -1.9838   -5.6166 N   0  0  0  0  0  0  0  0  0  0  0  0
   -1.0817   -3.9824   -2.6527 C   0  0  0  0  0  0  0  0  0  0  0  0
   -1.1739   -5.2460   -2.0438 C   0  0  0  0  0  0  0  0  0  0  0  0
   -0.9396   -6.9156   -2.4379 S   0  0  0  0  0  0  0  0  0  0  0  0
   -1.4099   -7.3416   -0.8088 C   0  0  0  0  0  0  0  0  0  0  0  0
   -1.5500   -8.5781   -0.1507 C   0  0  0  0  0  0  0  0  0  0  0  0
   -1.3331   -9.8617   -0.8232 C   0  0  0  0  0  0  0  0  0  0  0  0
   -2.2933  -10.8698   -0.7703 C   0  0  0  0  0  0  0  0  0  0  0  0
   -2.0746  -12.0621   -1.4325 C   0  0  0  0  0  0  0  0  0  0  0  0
   -0.9096  -12.2578   -2.1562 C   0  0  0  0  0  0  0  0  0  0  0  0
    0.0502  -11.2574   -2.2323 C   0  0  0  0  0  0  0  0  0  0  0  0
    1.2852  -11.4285   -3.0681 C   0  0  0  0  0  0  0  0  0  0  0  0
    1.0763  -10.8036   -4.4490 C   0  0  0  0  0  0  0  0  0  0  0  0
   -0.1744  -10.0624   -1.5634 C   0  0  0  0  0  0  0  0  0  0  0  0
   -1.9684   -8.4028    1.1583 C   0  0  0  0  0  0  0  0  0  0  0  0
   -2.2196   -6.7144    1.5677 S   0  0  0  0  0  0  0  0  0  0  0  0
   -1.7372   -6.2361   -0.0205 C   0  0  0  0  0  0  0  0  0  0  0  0
   -1.5903   -5.0364   -0.7271 C   0  0  0  0  0  0  0  0  0  0  0  0
   -1.7372   -3.6943   -0.4839 N   0  0  0  0  0  0  0  0  0  0  0  0
   -1.4010   -3.0260   -1.6505 C   0  0  0  0  0  0  0  0  0  0  0  0
   -1.2413   -1.6485   -1.9420 C   0  0  0  0  0  0  0  0  0  0  0  0
   -1.1773   -0.5280   -1.1373 N   0  0  0  0  0  0  0  0  0  0  0  0
   -0.9863    0.5588   -1.9491 C   0  0  0  0  0  0  0  0  0  0  0  0
   -0.7506    1.9303   -1.8086 C   0  0  0  0  0  0  0  0  0  0  0  0
   -0.6386    3.0687   -0.5131 S   0  0  0  0  0  0  0  0  0  0  0  0
   -0.9516   -0.4217    0.2868 C   0  0  0  0  0  0  0  0  0  0  0  0
   -2.1168    0.2568    1.0078 C   0  0  0  0  0  0  0  0  0  0  0  0
   -2.6554   -3.2765    0.5542 C   0  0  0  0  0  0  0  0  0  0  0  0
   -4.0860   -3.7058    0.2292 C   0  0  0  0  0  0  0  0  0  0  0  0
   -2.1535   -9.3839    2.1729 C   0  0  0  0  0  0  0  0  0  0  0  0
   -1.5922  -10.6449    2.2150 C   0  0  0  0  0  0  0  0  0  0  0  0
   -1.9849  -11.3692    3.3371 C   0  0  0  0  0  0  0  0  0  0  0  0
   -1.4900  -13.0071    3.6966 S   0  0  0  0  0  0  0  0  0  0  0  0
   -0.7058  -13.5312    2.1235 C   0  0  0  0  0  0  0  0  0  0  0  0
   -0.4376  -15.0227    2.1784 C   0  0  0  0  0  0  0  0  0  0  0  0
   -2.8405  -10.6584    4.1942 C   0  0  0  0  0  0  0  0  0  0  0  0
   -3.1460   -9.0605    3.5587 S   0  0  0  0  0  0  0  0  0  0  0  0
   -3.3692  -11.1947    5.3763 C   0  0  0  0  0  0  0  0  0  0  0  0
   -4.1943  -10.6312    6.3048 C   0  0  0  0  0  0  0  0  0  0  0  0
   -4.7419  -11.5361    7.7115 S   0  0  0  0  0  0  0  0  0  0  0  0
   -5.6882  -10.1471    8.3091 C   0  0  0  0  0  0  0  0  0  0  0  0
   -6.3434  -10.1495    9.3118 O   0  0  0  0  0  0  0  0  0  0  0  0
   -5.5442   -9.1082    7.4338 N   0  0  0  0  0  0  0  0  0  0  0  0
   -6.1869   -7.8308    7.6921 C   0  0  0  0  0  0  0  0  0  0  0  0
   -5.3354   -6.9631    8.6095 C   0  0  0  0  0  0  0  0  0  0  0  0
   -4.7400   -9.2929    6.3228 C   0  0  0  0  0  0  0  0  0  0  0  0
   -4.5577   -8.4143    5.4979 O   0  0  0  0  0  0  0  0  0  0  0  0
    1.8612    9.3734   -2.1240 H   0  0  0  0  0  0  0  0  0  0  0  0
    4.5726    9.8728    3.4798 H   0  0  0  0  0  0  0  0  0  0  0  0
    5.0005   13.3779   -0.1521 H   0  0  0  0  0  0  0  0  0  0  0  0
    7.6234   13.5973    2.0373 H   0  0  0  0  0  0  0  0  0  0  0  0
    5.9099   15.5697    2.5556 H   0  0  0  0  0  0  0  0  0  0  0  0
    7.9880   15.8340    4.1423 H   0  0  0  0  0  0  0  0  0  0  0  0
    7.7914   14.0182    6.0717 H   0  0  0  0  0  0  0  0  0  0  0  0
    5.5919   12.6376    5.6745 H   0  0  0  0  0  0  0  0  0  0  0  0
    4.2474   13.7556    3.6339 H   0  0  0  0  0  0  0  0  0  0  0  0
    4.7006   14.9847    4.8366 H   0  0  0  0  0  0  0  0  0  0  0  0
    7.4288   11.8162    3.9280 H   0  0  0  0  0  0  0  0  0  0  0  0
    0.6304    7.8662    1.2767 H   0  0  0  0  0  0  0  0  0  0  0  0
    0.4073    3.7103    2.9082 H   0  0  0  0  0  0  0  0  0  0  0  0
    1.4407    4.1270    1.5253 H   0  0  0  0  0  0  0  0  0  0  0  0
    0.8219    5.9798    3.8901 H   0  0  0  0  0  0  0  0  0  0  0  0
    1.9178    6.3617    2.5577 H   0  0  0  0  0  0  0  0  0  0  0  0
    2.3263    5.0743    3.6914 H   0  0  0  0  0  0  0  0  0  0  0  0
   -1.7354    6.1351   -3.5841 H   0  0  0  0  0  0  0  0  0  0  0  0
   -1.5441    7.4886   -5.6355 H   0  0  0  0  0  0  0  0  0  0  0  0
    0.0844    6.8753   -7.3744 H   0  0  0  0  0  0  0  0  0  0  0  0
    2.0404    5.6062   -8.0217 H   0  0  0  0  0  0  0  0  0  0  0  0
    2.6972    4.3565   -6.9546 H   0  0  0  0  0  0  0  0  0  0  0  0
    1.8210    3.3519   -9.0520 H   0  0  0  0  0  0  0  0  0  0  0  0
    0.2273    4.0421   -8.7282 H   0  0  0  0  0  0  0  0  0  0  0  0
    0.8792    2.7987   -7.6623 H   0  0  0  0  0  0  0  0  0  0  0  0
    1.3605    3.5614   -5.0121 H   0  0  0  0  0  0  0  0  0  0  0  0
   -3.2057  -10.7099   -0.2152 H   0  0  0  0  0  0  0  0  0  0  0  0
   -2.8203  -12.8429   -1.3917 H   0  0  0  0  0  0  0  0  0  0  0  0
   -0.7480  -13.1936   -2.6717 H   0  0  0  0  0  0  0  0  0  0  0  0
    1.5154  -12.4898   -3.1810 H   0  0  0  0  0  0  0  0  0  0  0  0
    2.1330  -10.9435   -2.5797 H   0  0  0  0  0  0  0  0  0  0  0  0
    0.2435  -11.2834   -4.9584 H   0  0  0  0  0  0  0  0  0  0  0  0
    1.9698  -10.9200   -5.0577 H   0  0  0  0  0  0  0  0  0  0  0  0
    0.8535   -9.7433   -4.3549 H   0  0  0  0  0  0  0  0  0  0  0  0
    0.5682   -9.2790   -1.6077 H   0  0  0  0  0  0  0  0  0  0  0  0
   -0.7468   -1.4153    0.6873 H   0  0  0  0  0  0  0  0  0  0  0  0
   -0.0522    0.1872    0.4355 H   0  0  0  0  0  0  0  0  0  0  0  0
   -1.9721    0.1910    2.0825 H   0  0  0  0  0  0  0  0  0  0  0  0
   -3.0699   -0.2011    0.7521 H   0  0  0  0  0  0  0  0  0  0  0  0
   -2.1675    1.3068    0.7334 H   0  0  0  0  0  0  0  0  0  0  0  0
   -2.6308   -2.1980    0.6543 H   0  0  0  0  0  0  0  0  0  0  0  0
   -2.3349   -3.7366    1.4940 H   0  0  0  0  0  0  0  0  0  0  0  0
   -4.7566   -3.3615    1.0116 H   0  0  0  0  0  0  0  0  0  0  0  0
   -4.1613   -4.7877    0.1629 H   0  0  0  0  0  0  0  0  0  0  0  0
   -4.4018   -3.2757   -0.7192 H   0  0  0  0  0  0  0  0  0  0  0  0
   -0.9090  -10.9981    1.4668 H   0  0  0  0  0  0  0  0  0  0  0  0
    0.2229  -12.9721    2.0082 H   0  0  0  0  0  0  0  0  0  0  0  0
   -1.3928  -13.2835    1.3145 H   0  0  0  0  0  0  0  0  0  0  0  0
   -1.3659  -15.5724    2.3139 H   0  0  0  0  0  0  0  0  0  0  0  0
    0.2279  -15.2613    3.0048 H   0  0  0  0  0  0  0  0  0  0  0  0
    0.0284  -15.3447    1.2498 H   0  0  0  0  0  0  0  0  0  0  0  0
   -3.0692  -12.2197    5.5670 H   0  0  0  0  0  0  0  0  0  0  0  0
   -6.3213   -7.3476    6.7215 H   0  0  0  0  0  0  0  0  0  0  0  0
   -7.1573   -8.0345    8.1502 H   0  0  0  0  0  0  0  0  0  0  0  0
   -5.1894   -7.4594    9.5661 H   0  0  0  0  0  0  0  0  0  0  0  0
   -5.8340   -6.0134    8.7809 H   0  0  0  0  0  0  0  0  0  0  0  0
   -4.3659   -6.7733    8.1543 H   0  0  0  0  0  0  0  0  0  0  0  0
  1  2  2  0  0  0  0
  2  3  1  0  0  0  0
  3  4  2  0  0  0  0
  3  5  1  0  0  0  0
  5  6  2  0  0  0  0
  6  7  1  0  0  0  0
  7  8  2  0  0  0  0
  8  9  1  0  0  0  0
  9 10  2  0  0  0  0
 10 11  1  0  0  0  0
 11 12  2  0  0  0  0
 12 13  1  0  0  0  0
 13 14  3  0  0  0  0
 12 15  1  0  0  0  0
 15 16  3  0  0  0  0
  8 17  1  0  0  0  0
 17 18  1  0  0  0  0
 18 19  1  0  0  0  0
 19 20  2  0  0  0  0
 20 21  1  0  0  0  0
 21 22  1  0  0  0  0
 21 23  1  0  0  0  0
  1 24  1  0  0  0  0
 24 25  2  0  0  0  0
 25 26  1  0  0  0  0
 26 27  1  0  0  0  0
 27 28  1  0  0  0  0
 28 29  1  0  0  0  0
 26 30  2  0  0  0  0
 30 31  1  0  0  0  0
 30 32  1  0  0  0  0
 32 33  2  0  0  0  0
 33 34  1  0  0  0  0
 34 35  2  0  0  0  0
 35 36  1  0  0  0  0
 36 37  2  0  0  0  0
 37 38  1  0  0  0  0
 38 39  1  0  0  0  0
 39 40  1  0  0  0  0
 38 41  2  0  0  0  0
 33 42  1  0  0  0  0
 42 43  1  0  0  0  0
 43 44  1  0  0  0  0
 44 45  1  0  0  0  0
 45 46  1  0  0  0  0
 46 47  1  0  0  0  0
 47 48  2  0  0  0  0
 48 49  1  0  0  0  0
 49 50  1  0  0  0  0
 47 51  1  0  0  0  0
 51 52  1  0  0  0  0
 52 53  1  0  0  0  0
 53 54  1  0  0  0  0
 54 55  1  0  0  0  0
 55 56  1  0  0  0  0
 56 57  2  0  0  0  0
 57 58  1  0  0  0  0
 58 59  2  0  0  0  0
 59 60  1  0  0  0  0
 60 61  1  0  0  0  0
 61 62  1  0  0  0  0
 60 63  2  0  0  0  0
 55 64  2  0  0  0  0
 64 65  1  0  0  0  0
 65 66  1  0  0  0  0
 66 67  1  0  0  0  0
 67 68  1  0  0  0  0
 68 69  1  0  0  0  0
 69 70  1  0  0  0  0
 70 71  1  0  0  0  0
 71 72  1  0  0  0  0
 72 73  1  0  0  0  0
 73 74  1  0  0  0  0
 71 75  1  0  0  0  0
 75 76  1  0  0  0  0
 68 77  1  0  0  0  0
 77 78  1  0  0  0  0
 64 79  1  0  0  0  0
 79 80  2  0  0  0  0
 80 81  1  0  0  0  0
 81 82  1  0  0  0  0
 82 83  1  0  0  0  0
 83 84  1  0  0  0  0
 81 85  2  0  0  0  0
 85 86  1  0  0  0  0
 85 87  1  0  0  0  0
 87 88  2  0  0  0  0
 88 89  1  0  0  0  0
 89 90  1  0  0  0  0
 90 91  2  0  0  0  0
 90 92  1  0  0  0  0
 92 93  1  0  0  0  0
 93 94  1  0  0  0  0
 92 95  1  0  0  0  0
 95 96  2  0  0  0  0
 11  2  1  0  0  0  0
 23 17  1  0  0  0  0
 31 24  1  0  0  0  0
 74 32  1  0  0  0  0
 86 79  1  0  0  0  0
 95 88  1  0  0  0  0
 10  5  1  0  0  0  0
 22 18  1  0  0  0  0
 41 34  1  0  0  0  0
 73 42  2  0  0  0  0
 23  7  1  0  0  0  0
 72 44  2  0  0  0  0
 70 45  2  0  0  0  0
 50 46  2  0  0  0  0
 69 51  2  0  0  0  0
 67 52  2  0  0  0  0
 66 54  2  0  0  0  0
 63 56  1  0  0  0  0
  1 97  1  0  0  0  0
  6 98  1  0  0  0  0
  9 99  1  0  0  0  0
 17100  1  0  0  0  0
 18101  1  0  0  0  0
 19102  1  0  0  0  0
 20103  1  0  0  0  0
 21104  1  0  0  0  0
 22105  1  0  0  0  0
 22106  1  0  0  0  0
 23107  1  0  0  0  0
 25108  1  0  0  0  0
 28109  1  0  0  0  0
 28110  1  0  0  0  0
 29111  1  0  0  0  0
 29112  1  0  0  0  0
 29113  1  0  0  0  0
 35114  1  0  0  0  0
 36115  1  0  0  0  0
 37116  1  0  0  0  0
 39117  1  0  0  0  0
 39118  1  0  0  0  0
 40119  1  0  0  0  0
 40120  1  0  0  0  0
 40121  1  0  0  0  0
 41122  1  0  0  0  0
 57123  1  0  0  0  0
 58124  1  0  0  0  0
 59125  1  0  0  0  0
 61126  1  0  0  0  0
 61127  1  0  0  0  0
 62128  1  0  0  0  0
 62129  1  0  0  0  0
 62130  1  0  0  0  0
 63131  1  0  0  0  0
 75132  1  0  0  0  0
 75133  1  0  0  0  0
 76134  1  0  0  0  0
 76135  1  0  0  0  0
 76136  1  0  0  0  0
 77137  1  0  0  0  0
 77138  1  0  0  0  0
 78139  1  0  0  0  0
 78140  1  0  0  0  0
 78141  1  0  0  0  0
 80142  1  0  0  0  0
 83143  1  0  0  0  0
 83144  1  0  0  0  0
 84145  1  0  0  0  0
 84146  1  0  0  0  0
 84147  1  0  0  0  0
 87148  1  0  0  0  0
 93149  1  0  0  0  0
 93150  1  0  0  0  0
 94151  1  0  0  0  0
 94152  1  0  0  0  0
 94153  1  0  0  0  0
M  END
