155

C         -4.07990        6.81050       -5.70910
C         -3.69630        7.39660       -4.54550
C         -3.43850        8.86180       -4.48420
O         -3.79780        9.69590       -5.28290
C         -2.59830        9.05300       -3.28500
C         -1.97430       10.22800       -2.87100
C         -1.22580       10.09260       -1.72650
C         -1.10310        8.87800       -1.03670
C         -1.72010        7.71340       -1.42550
C         -2.48500        7.83020       -2.58860
C         -3.30110        6.83140       -3.26930
C         -3.80750        5.69340       -2.69820
C         -3.40330        5.17200       -1.45430
N         -3.08740        4.66400       -0.47370
C         -4.83500        4.92050       -3.28160
N         -5.70420        4.29010       -3.68830
C         -0.18820        9.46980        0.00520
C          1.32590        9.16350       -0.10710
C          1.60300        8.89640       -1.56590
C          1.48660       10.04600       -2.21710
C          1.12870       11.11120       -1.21060
C          1.88860       10.58810        0.01890
C         -0.32560       10.82290       -0.76120
C         -3.97620        5.43700       -6.05070
C         -4.72680        4.72650       -6.95750
C         -4.44060        3.35270       -6.99070
S         -5.42030        2.27120       -7.97770
C         -5.97540        1.05100       -6.72290
C         -6.90840        0.05970       -7.38770
C         -3.39400        2.99660       -6.15510
S         -2.79590        4.39390       -5.30340
C         -2.81660        1.74900       -5.78130
C         -2.59580        0.57660       -6.48500
C         -2.81310        0.39070       -7.91770
C         -2.48130        1.39070       -8.82830
C         -2.67450        1.18090      -10.17930
C         -3.19750       -0.01750      -10.63320
C         -3.53240       -1.02630       -9.73930
C         -4.04870       -2.35160      -10.21970
C         -2.90020       -3.35720      -10.32350
C         -3.33180       -0.81260       -8.38470
C         -2.04970       -0.41920       -5.64640
S         -1.51910       -2.05980       -5.94230
C         -1.01020       -2.17380       -4.29090
C         -0.35390       -3.07060       -3.43350
C          0.27310       -4.31120       -3.68370
C          1.04670       -4.92040       -2.63920
N          1.63930       -6.03590       -3.03440
S          1.25210       -6.30230       -4.58370
N          0.31520       -5.00170       -4.81210
C          1.04250       -4.33390       -1.35400
C          1.58090       -4.77050       -0.13410
S          2.57250       -6.04740        0.48180
C          2.37700       -5.38530        2.09070
C          2.84010       -5.80160        3.34710
C          3.60230       -7.04240        3.50630
C          3.19810       -8.01970        4.41390
C          3.89230       -9.21100        4.49300
C          4.98380       -9.44100        3.67170
C          5.39590       -8.48040        2.75750
C          6.53800       -8.73800        1.81860
C          6.00860       -9.20500        0.46110
C          4.69400       -7.28610        2.68100
C          2.39880       -4.94740        4.35480
S          1.36150       -3.66810        3.74170
C          1.57550       -4.23750        2.12690
C          1.13260       -3.88250        0.84970
N          0.37280       -2.89130        0.28410
C          0.31400       -3.14150       -1.07790
C         -0.27100       -2.43590       -2.16010
N         -0.81290       -1.16990       -2.26770
C         -1.25850       -1.01490       -3.55080
C         -1.83610       -0.00610       -4.32980
S         -2.31590        1.63290       -4.09590
C         -0.67830       -0.01090       -1.41350
C         -2.00730        0.40170       -0.78320
C         -0.57400       -2.18930        1.12530
C         -1.93120       -2.88930        1.12020
C          2.72970       -4.92490        5.74070
C          3.80860       -5.60390        6.30090
C          4.09660       -5.51620        7.65440
F          5.17660       -6.18900        8.09150
C          3.40080       -4.73160        8.57550
C          2.27170       -4.05810        8.04010
C          1.95490       -4.14190        6.64290
N          0.85760       -3.45460        6.33990
S          0.27090       -2.79080        7.68250
N          1.37000       -3.34720        8.71050
C          3.77440       -4.67090        9.95060
C          3.63260       -3.57690       10.75190
C          3.48160       -2.18670       10.25750
O          3.46060       -1.79240        9.11300
C          3.51910       -1.33610       11.46960
C          3.40690        0.03780       11.54970
C          3.49630        0.61890       12.80410
F          3.38320        1.94750       12.92940
C          3.70440       -0.16660       13.93820
F          3.79490        0.42270       15.13610
C          3.82290       -1.54590       13.85730
C          3.72590       -2.13530       12.60590
C          3.78830       -3.53610       12.19240
C          3.88320       -4.61220       13.03370
C          4.01520       -4.51170       14.43510
N          4.13160       -4.49560       15.57660
C          3.83330       -5.96380       12.62870
N          3.77500       -7.08440       12.38690
H         -4.44980        7.47470       -6.48320
H         -2.09390       11.14470       -3.42680
H         -1.61740        6.78110       -0.89440
H         -0.54530        9.42620        1.03210
H          1.68850        8.41750        0.59510
H          1.79270        7.91950       -1.97070
H          1.56000       10.22110       -3.27450
H          1.31250       12.13870       -1.51300
H          1.60790       11.08500        0.94650
H          2.96950       10.62660       -0.10650
H         -0.77150       11.66410       -0.23450
H         -5.52450        5.16130       -7.53220
H         -5.09610        0.55020       -6.32220
H         -6.47420        1.61200       -5.93300
H         -7.24800       -0.67320       -6.65910
H         -7.77480        0.56960       -7.80190
H         -6.39270       -0.45680       -8.19480
H         -2.06210        2.32090       -8.47460
H         -2.41730        1.95810      -10.88330
H         -3.34850       -0.17130      -11.69190
H         -4.52010       -2.23560      -11.19720
H         -4.79670       -2.73410       -9.52180
H         -3.26800       -4.32050      -10.66840
H         -2.42630       -3.49170       -9.35380
H         -2.14890       -3.00060      -11.02440
H         -3.60190       -1.58590       -7.67970
H          2.33810       -7.84260        5.04290
H          3.57800       -9.96790        5.19600
H          5.51910      -10.37670        3.74040
H          7.11780       -7.82290        1.68220
H          7.19700       -9.50230        2.23420
H          6.83200       -9.38410       -0.22600
H          5.44280      -10.12700        0.57340
H          5.35200       -8.45250        0.03030
H          5.00880       -6.52650        1.98010
H          0.09220       -0.20990       -0.66780
H         -0.32150        0.81600       -2.03820
H         -2.45830       -0.41410       -0.22530
H         -2.70580        0.70810       -1.55720
H         -1.85350        1.24640       -0.11780
H         -0.68350       -1.15350        0.81920
H         -0.15900       -2.19800        2.13610
H         -2.34410       -2.91790        0.11370
H         -2.62240       -2.36120        1.77120
H         -1.82940       -3.91100        1.47850
H          4.46210       -6.19840        5.68400
H          4.22520       -5.56980       10.35350
H          3.25130        0.64130       10.66990
H          3.98880       -2.10740       14.76200
