
  xtb     02192209543D
 energy: -304.232010153420 gnorm: 0.000306673010 xtb: 6.4.1 (unknown)
181201  0     0  0            999 V2000
    7.4144    3.6969   -7.8713 C   0  0  0  0  0  0  0  0  0  0  0  0
    8.2113    4.8027   -7.7236 C   0  0  0  0  0  0  0  0  0  0  0  0
    7.9499    5.9333   -6.8253 C   0  0  0  0  0  0  0  0  0  0  0  0
    7.0081    6.0771   -6.0638 O   0  0  0  0  0  0  0  0  0  0  0  0
    9.0618    6.8790   -7.0146 C   0  0  0  0  0  0  0  0  0  0  0  0
    9.2393    8.1015   -6.3704 C   0  0  0  0  0  0  0  0  0  0  0  0
   10.3802    8.7694   -6.7454 C   0  0  0  0  0  0  0  0  0  0  0  0
   11.2750    8.2606   -7.6960 C   0  0  0  0  0  0  0  0  0  0  0  0
   11.1089    7.0581   -8.3416 C   0  0  0  0  0  0  0  0  0  0  0  0
    9.9570    6.3578   -7.9702 C   0  0  0  0  0  0  0  0  0  0  0  0
    9.4551    5.0602   -8.4220 C   0  0  0  0  0  0  0  0  0  0  0  0
   10.0797    4.2449   -9.3318 C   0  0  0  0  0  0  0  0  0  0  0  0
   11.2978    4.5485   -9.9750 C   0  0  0  0  0  0  0  0  0  0  0  0
   12.2848    4.7207  -10.5363 N   0  0  0  0  0  0  0  0  0  0  0  0
    9.6224    2.9816   -9.7603 C   0  0  0  0  0  0  0  0  0  0  0  0
    9.3318    1.9438  -10.1597 N   0  0  0  0  0  0  0  0  0  0  0  0
   12.1999    9.4464   -7.5785 C   0  0  0  0  0  0  0  0  0  0  0  0
   13.4893    9.2345   -6.7572 C   0  0  0  0  0  0  0  0  0  0  0  0
   13.9341   10.6379   -6.4141 C   0  0  0  0  0  0  0  0  0  0  0  0
   13.0876   11.1206   -5.5135 C   0  0  0  0  0  0  0  0  0  0  0  0
   12.0565   10.0513   -5.2325 C   0  0  0  0  0  0  0  0  0  0  0  0
   12.9249    8.7976   -5.3992 C   0  0  0  0  0  0  0  0  0  0  0  0
   11.2026   10.0137   -6.5179 C   0  0  0  0  0  0  0  0  0  0  0  0
    6.2144    3.3578   -7.2287 C   0  0  0  0  0  0  0  0  0  0  0  0
    5.5286    2.1779   -7.5048 C   0  0  0  0  0  0  0  0  0  0  0  0
    4.3802    2.0056   -6.7498 C   0  0  0  0  0  0  0  0  0  0  0  0
    3.3191    0.6008   -6.9037 S   0  0  0  0  0  0  0  0  0  0  0  0
    4.5059   -0.7309   -6.4867 C   0  0  0  0  0  0  0  0  0  0  0  0
    4.9719   -0.6385   -5.0480 C   0  0  0  0  0  0  0  0  0  0  0  0
    4.1320    3.0733   -5.8845 C   0  0  0  0  0  0  0  0  0  0  0  0
    5.3663    4.2892   -6.0159 S   0  0  0  0  0  0  0  0  0  0  0  0
    3.1069    3.1851   -4.9150 C   0  0  0  0  0  0  0  0  0  0  0  0
    2.7949    4.3000   -4.1479 C   0  0  0  0  0  0  0  0  0  0  0  0
    3.2951    5.6587   -4.3743 C   0  0  0  0  0  0  0  0  0  0  0  0
    3.1253    6.2772   -5.6104 C   0  0  0  0  0  0  0  0  0  0  0  0
    3.5732    7.5694   -5.7965 C   0  0  0  0  0  0  0  0  0  0  0  0
    4.1828    8.2531   -4.7586 C   0  0  0  0  0  0  0  0  0  0  0  0
    4.3455    7.6556   -3.5167 C   0  0  0  0  0  0  0  0  0  0  0  0
    4.9434    8.4111   -2.3654 C   0  0  0  0  0  0  0  0  0  0  0  0
    3.8370    9.0340   -1.5115 C   0  0  0  0  0  0  0  0  0  0  0  0
    3.8916    6.3579   -3.3337 C   0  0  0  0  0  0  0  0  0  0  0  0
    1.8854    3.9858   -3.1275 C   0  0  0  0  0  0  0  0  0  0  0  0
    1.1766    4.9443   -1.8482 S   0  0  0  0  0  0  0  0  0  0  0  0
    0.3436    3.5313   -1.2947 C   0  0  0  0  0  0  0  0  0  0  0  0
   -0.4863    3.1340   -0.2366 C   0  0  0  0  0  0  0  0  0  0  0  0
   -0.9320    3.8480    0.8964 C   0  0  0  0  0  0  0  0  0  0  0  0
   -1.6476    3.1433    1.9184 C   0  0  0  0  0  0  0  0  0  0  0  0
   -1.9526    3.9163    2.9491 N   0  0  0  0  0  0  0  0  0  0  0  0
   -1.3922    5.4065    2.6537 S   0  0  0  0  0  0  0  0  0  0  0  0
   -0.7346    5.1210    1.2018 N   0  0  0  0  0  0  0  0  0  0  0  0
   -1.9662    1.7841    1.7116 C   0  0  0  0  0  0  0  0  0  0  0  0
   -2.7006    0.8880    2.5025 C   0  0  0  0  0  0  0  0  0  0  0  0
   -3.4810    0.8420    4.0468 S   0  0  0  0  0  0  0  0  0  0  0  0
   -3.9425   -0.8109    3.7278 C   0  0  0  0  0  0  0  0  0  0  0  0
   -4.6557   -1.7555    4.4856 C   0  0  0  0  0  0  0  0  0  0  0  0
   -5.2532   -1.4770    5.7970 C   0  0  0  0  0  0  0  0  0  0  0  0
   -6.6333   -1.5486    5.9593 C   0  0  0  0  0  0  0  0  0  0  0  0
   -7.1932   -1.2874    7.1949 C   0  0  0  0  0  0  0  0  0  0  0  0
   -6.3842   -0.9677    8.2704 C   0  0  0  0  0  0  0  0  0  0  0  0
   -5.0052   -0.8866    8.1218 C   0  0  0  0  0  0  0  0  0  0  0  0
   -4.1296   -0.6087    9.3092 C   0  0  0  0  0  0  0  0  0  0  0  0
   -3.8808   -1.9051   10.0829 C   0  0  0  0  0  0  0  0  0  0  0  0
   -4.4492   -1.1323    6.8756 C   0  0  0  0  0  0  0  0  0  0  0  0
   -4.7615   -2.9621    3.8228 C   0  0  0  0  0  0  0  0  0  0  0  0
   -4.0070   -2.9218    2.2334 S   0  0  0  0  0  0  0  0  0  0  0  0
   -3.5181   -1.2810    2.4823 C   0  0  0  0  0  0  0  0  0  0  0  0
   -2.8002   -0.3037    1.7810 C   0  0  0  0  0  0  0  0  0  0  0  0
   -2.1371   -0.1885    0.5883 N   0  0  0  0  0  0  0  0  0  0  0  0
   -1.5986    1.0891    0.5240 C   0  0  0  0  0  0  0  0  0  0  0  0
   -0.7631    1.7474   -0.4186 C   0  0  0  0  0  0  0  0  0  0  0  0
   -0.0948    1.3227   -1.5560 N   0  0  0  0  0  0  0  0  0  0  0  0
    0.5837    2.3942   -2.0706 C   0  0  0  0  0  0  0  0  0  0  0  0
    1.4736    2.6504   -3.1200 C   0  0  0  0  0  0  0  0  0  0  0  0
    2.2059    1.7579   -4.4065 S   0  0  0  0  0  0  0  0  0  0  0  0
    0.2379   -0.0068   -2.0130 C   0  0  0  0  0  0  0  0  0  0  0  0
    1.0789   -0.7586   -0.9838 C   0  0  0  0  0  0  0  0  0  0  0  0
   -2.4115   -1.1403   -0.4650 C   0  0  0  0  0  0  0  0  0  0  0  0
   -3.2607   -0.5206   -1.5722 C   0  0  0  0  0  0  0  0  0  0  0  0
   -5.2851   -4.1927    4.3100 C   0  0  0  0  0  0  0  0  0  0  0  0
   -5.5892   -5.3115    3.5847 C   0  0  0  0  0  0  0  0  0  0  0  0
   -6.0154   -6.4039    4.3751 C   0  0  0  0  0  0  0  0  0  0  0  0
   -6.4468   -7.6720    3.9446 C   0  0  0  0  0  0  0  0  0  0  0  0
   -6.4386   -8.0531    2.5269 C   0  0  0  0  0  0  0  0  0  0  0  0
   -7.5736   -8.5996    1.9283 C   0  0  0  0  0  0  0  0  0  0  0  0
   -7.5601   -8.9657    0.6025 C   0  0  0  0  0  0  0  0  0  0  0  0
   -6.4070   -8.8084   -0.1713 C   0  0  0  0  0  0  0  0  0  0  0  0
   -6.5227   -9.1858   -1.4700 O   0  0  0  0  0  0  0  0  0  0  0  0
   -5.3890   -9.1855   -2.3137 C   0  0  0  0  0  0  0  0  0  0  0  0
   -4.4591  -10.3656   -2.0476 C   0  0  0  0  0  0  0  0  0  0  0  0
   -5.2695   -8.2695    0.4234 C   0  0  0  0  0  0  0  0  0  0  0  0
   -5.2939   -7.8951    1.7543 C   0  0  0  0  0  0  0  0  0  0  0  0
   -6.8701   -8.5458    4.9323 C   0  0  0  0  0  0  0  0  0  0  0  0
   -6.8688   -8.2240    6.3170 C   0  0  0  0  0  0  0  0  0  0  0  0
   -6.4442   -6.9496    6.7474 C   0  0  0  0  0  0  0  0  0  0  0  0
   -6.4622   -6.5558    8.1588 C   0  0  0  0  0  0  0  0  0  0  0  0
   -7.6064   -6.7303    8.9386 C   0  0  0  0  0  0  0  0  0  0  0  0
   -7.6270   -6.3270   10.2534 C   0  0  0  0  0  0  0  0  0  0  0  0
   -6.5001   -5.7442   10.8418 C   0  0  0  0  0  0  0  0  0  0  0  0
   -6.6479   -5.3706   12.1369 O   0  0  0  0  0  0  0  0  0  0  0  0
   -5.5421   -4.8709   12.8637 C   0  0  0  0  0  0  0  0  0  0  0  0
   -4.5782   -5.9719   13.2951 C   0  0  0  0  0  0  0  0  0  0  0  0
   -5.3542   -5.5740   10.0698 C   0  0  0  0  0  0  0  0  0  0  0  0
   -5.3463   -5.9690    8.7457 C   0  0  0  0  0  0  0  0  0  0  0  0
   -6.0207   -6.0814    5.7574 C   0  0  0  0  0  0  0  0  0  0  0  0
   -5.5015   -4.4385    6.0321 S   0  0  0  0  0  0  0  0  0  0  0  0
   -7.2694   -9.3139    7.1108 C   0  0  0  0  0  0  0  0  0  0  0  0
   -7.5918  -10.4360    6.3805 C   0  0  0  0  0  0  0  0  0  0  0  0
   -7.4028  -10.1828    4.6548 S   0  0  0  0  0  0  0  0  0  0  0  0
   -8.0303  -11.6702    6.9390 C   0  0  0  0  0  0  0  0  0  0  0  0
   -8.3766  -12.8148    6.2560 C   0  0  0  0  0  0  0  0  0  0  0  0
   -8.7943  -13.9692    6.9532 C   0  0  0  0  0  0  0  0  0  0  0  0
   -9.1346  -14.9158    7.5036 N   0  0  0  0  0  0  0  0  0  0  0  0
   -8.3586  -12.9589    4.8558 C   0  0  0  0  0  0  0  0  0  0  0  0
   -8.3685  -13.1439    3.7229 N   0  0  0  0  0  0  0  0  0  0  0  0
   -8.1186  -11.7144    8.3557 C   0  0  0  0  0  0  0  0  0  0  0  0
   -8.1901  -11.7434    9.4984 N   0  0  0  0  0  0  0  0  0  0  0  0
    7.7397    2.9480   -8.5830 H   0  0  0  0  0  0  0  0  0  0  0  0
    8.5197    8.4541   -5.6480 H   0  0  0  0  0  0  0  0  0  0  0  0
   11.8060    6.6865   -9.0735 H   0  0  0  0  0  0  0  0  0  0  0  0
   12.3661   10.0120   -8.4933 H   0  0  0  0  0  0  0  0  0  0  0  0
   14.2260    8.5878   -7.2258 H   0  0  0  0  0  0  0  0  0  0  0  0
   14.7585   11.1384   -6.8871 H   0  0  0  0  0  0  0  0  0  0  0  0
   13.0635   12.1050   -5.0840 H   0  0  0  0  0  0  0  0  0  0  0  0
   11.4889   10.1490   -4.3109 H   0  0  0  0  0  0  0  0  0  0  0  0
   12.3604    7.8675   -5.4312 H   0  0  0  0  0  0  0  0  0  0  0  0
   13.6979    8.7281   -4.6356 H   0  0  0  0  0  0  0  0  0  0  0  0
   10.7035   10.9584   -6.7253 H   0  0  0  0  0  0  0  0  0  0  0  0
    5.8701    1.4729   -8.2426 H   0  0  0  0  0  0  0  0  0  0  0  0
    3.9509   -1.6503   -6.6672 H   0  0  0  0  0  0  0  0  0  0  0  0
    5.3391   -0.6707   -7.1851 H   0  0  0  0  0  0  0  0  0  0  0  0
    5.5032    0.2962   -4.8770 H   0  0  0  0  0  0  0  0  0  0  0  0
    4.1219   -0.6816   -4.3708 H   0  0  0  0  0  0  0  0  0  0  0  0
    5.6440   -1.4641   -4.8231 H   0  0  0  0  0  0  0  0  0  0  0  0
    2.6412    5.7420   -6.4146 H   0  0  0  0  0  0  0  0  0  0  0  0
    3.4447    8.0483   -6.7561 H   0  0  0  0  0  0  0  0  0  0  0  0
    4.5341    9.2630   -4.9150 H   0  0  0  0  0  0  0  0  0  0  0  0
    5.6005    9.1989   -2.7384 H   0  0  0  0  0  0  0  0  0  0  0  0
    5.5370    7.7341   -1.7477 H   0  0  0  0  0  0  0  0  0  0  0  0
    3.2450    9.7257   -2.1068 H   0  0  0  0  0  0  0  0  0  0  0  0
    4.2635    9.5762   -0.6706 H   0  0  0  0  0  0  0  0  0  0  0  0
    3.1742    8.2614   -1.1282 H   0  0  0  0  0  0  0  0  0  0  0  0
    4.0184    5.8760   -2.3747 H   0  0  0  0  0  0  0  0  0  0  0  0
   -7.2579   -1.8062    5.1162 H   0  0  0  0  0  0  0  0  0  0  0  0
   -8.2644   -1.3390    7.3210 H   0  0  0  0  0  0  0  0  0  0  0  0
   -6.8273   -0.7757    9.2369 H   0  0  0  0  0  0  0  0  0  0  0  0
   -4.6138    0.1161    9.9668 H   0  0  0  0  0  0  0  0  0  0  0  0
   -3.1761   -0.1911    8.9817 H   0  0  0  0  0  0  0  0  0  0  0  0
   -3.3852   -2.6337    9.4447 H   0  0  0  0  0  0  0  0  0  0  0  0
   -3.2555   -1.7174   10.9532 H   0  0  0  0  0  0  0  0  0  0  0  0
   -4.8272   -2.3293   10.4126 H   0  0  0  0  0  0  0  0  0  0  0  0
   -3.3785   -1.0736    6.7410 H   0  0  0  0  0  0  0  0  0  0  0  0
    0.8186    0.1186   -2.9304 H   0  0  0  0  0  0  0  0  0  0  0  0
   -0.6633   -0.5588   -2.2791 H   0  0  0  0  0  0  0  0  0  0  0  0
    2.0182   -0.2352   -0.8209 H   0  0  0  0  0  0  0  0  0  0  0  0
    0.5618   -0.8303   -0.0297 H   0  0  0  0  0  0  0  0  0  0  0  0
    1.2987   -1.7605   -1.3430 H   0  0  0  0  0  0  0  0  0  0  0  0
   -2.9663   -1.9607   -0.0027 H   0  0  0  0  0  0  0  0  0  0  0  0
   -1.4855   -1.5624   -0.8561 H   0  0  0  0  0  0  0  0  0  0  0  0
   -3.4403   -1.2513   -2.3562 H   0  0  0  0  0  0  0  0  0  0  0  0
   -2.7705    0.3484   -2.0049 H   0  0  0  0  0  0  0  0  0  0  0  0
   -4.2194   -0.2019   -1.1695 H   0  0  0  0  0  0  0  0  0  0  0  0
   -5.5329   -5.3405    2.5109 H   0  0  0  0  0  0  0  0  0  0  0  0
   -8.4797   -8.7174    2.5035 H   0  0  0  0  0  0  0  0  0  0  0  0
   -8.4367   -9.3821    0.1330 H   0  0  0  0  0  0  0  0  0  0  0  0
   -4.8475   -8.2340   -2.2366 H   0  0  0  0  0  0  0  0  0  0  0  0
   -5.8046   -9.2617   -3.3224 H   0  0  0  0  0  0  0  0  0  0  0  0
   -3.6371  -10.3525   -2.7582 H   0  0  0  0  0  0  0  0  0  0  0  0
   -4.0561  -10.3245   -1.0386 H   0  0  0  0  0  0  0  0  0  0  0  0
   -5.0081  -11.2971   -2.1584 H   0  0  0  0  0  0  0  0  0  0  0  0
   -4.3556   -8.1349   -0.1339 H   0  0  0  0  0  0  0  0  0  0  0  0
   -4.3964   -7.4985    2.2069 H   0  0  0  0  0  0  0  0  0  0  0  0
   -8.4943   -7.1579    8.4967 H   0  0  0  0  0  0  0  0  0  0  0  0
   -8.5121   -6.4482   10.8575 H   0  0  0  0  0  0  0  0  0  0  0  0
   -5.9895   -4.4039   13.7455 H   0  0  0  0  0  0  0  0  0  0  0  0
   -5.0187   -4.0953   12.2911 H   0  0  0  0  0  0  0  0  0  0  0  0
   -3.7806   -5.5449   13.8968 H   0  0  0  0  0  0  0  0  0  0  0  0
   -4.1426   -6.4689   12.4317 H   0  0  0  0  0  0  0  0  0  0  0  0
   -5.1085   -6.7143   13.8860 H   0  0  0  0  0  0  0  0  0  0  0  0
   -4.4605   -5.1338   10.4823 H   0  0  0  0  0  0  0  0  0  0  0  0
   -4.4432   -5.8437    8.1669 H   0  0  0  0  0  0  0  0  0  0  0  0
   -7.3043   -9.2869    8.1860 H   0  0  0  0  0  0  0  0  0  0  0  0
  1  2  2  0  0  0  0
  2  3  1  0  0  0  0
  3  4  2  0  0  0  0
  3  5  1  0  0  0  0
  5  6  2  0  0  0  0
  6  7  1  0  0  0  0
  7  8  2  0  0  0  0
  8  9  1  0  0  0  0
  9 10  2  0  0  0  0
 10 11  1  0  0  0  0
 11 12  2  0  0  0  0
 12 13  1  0  0  0  0
 13 14  3  0  0  0  0
 12 15  1  0  0  0  0
 15 16  3  0  0  0  0
  8 17  1  0  0  0  0
 17 18  1  0  0  0  0
 18 19  1  0  0  0  0
 19 20  2  0  0  0  0
 20 21  1  0  0  0  0
 21 22  1  0  0  0  0
 21 23  1  0  0  0  0
  1 24  1  0  0  0  0
 24 25  2  0  0  0  0
 25 26  1  0  0  0  0
 26 27  1  0  0  0  0
 27 28  1  0  0  0  0
 28 29  1  0  0  0  0
 26 30  2  0  0  0  0
 30 31  1  0  0  0  0
 30 32  1  0  0  0  0
 32 33  2  0  0  0  0
 33 34  1  0  0  0  0
 34 35  2  0  0  0  0
 35 36  1  0  0  0  0
 36 37  2  0  0  0  0
 37 38  1  0  0  0  0
 38 39  1  0  0  0  0
 39 40  1  0  0  0  0
 38 41  2  0  0  0  0
 33 42  1  0  0  0  0
 42 43  1  0  0  0  0
 43 44  1  0  0  0  0
 44 45  1  0  0  0  0
 45 46  1  0  0  0  0
 46 47  1  0  0  0  0
 47 48  2  0  0  0  0
 48 49  1  0  0  0  0
 49 50  1  0  0  0  0
 47 51  1  0  0  0  0
 51 52  1  0  0  0  0
 52 53  1  0  0  0  0
 53 54  1  0  0  0  0
 54 55  1  0  0  0  0
 55 56  1  0  0  0  0
 56 57  2  0  0  0  0
 57 58  1  0  0  0  0
 58 59  2  0  0  0  0
 59 60  1  0  0  0  0
 60 61  1  0  0  0  0
 61 62  1  0  0  0  0
 60 63  2  0  0  0  0
 55 64  2  0  0  0  0
 64 65  1  0  0  0  0
 65 66  1  0  0  0  0
 66 67  1  0  0  0  0
 67 68  1  0  0  0  0
 68 69  1  0  0  0  0
 69 70  1  0  0  0  0
 70 71  1  0  0  0  0
 71 72  1  0  0  0  0
 72 73  1  0  0  0  0
 73 74  1  0  0  0  0
 71 75  1  0  0  0  0
 75 76  1  0  0  0  0
 68 77  1  0  0  0  0
 77 78  1  0  0  0  0
 64 79  1  0  0  0  0
 79 80  2  0  0  0  0
 80 81  1  0  0  0  0
 81 82  2  0  0  0  0
 82 83  1  0  0  0  0
 83 84  2  0  0  0  0
 84 85  1  0  0  0  0
 85 86  2  0  0  0  0
 86 87  1  0  0  0  0
 87 88  1  0  0  0  0
 88 89  1  0  0  0  0
 86 90  1  0  0  0  0
 90 91  2  0  0  0  0
 82 92  1  0  0  0  0
 92 93  2  0  0  0  0
 93 94  1  0  0  0  0
 94 95  1  0  0  0  0
 95 96  2  0  0  0  0
 96 97  1  0  0  0  0
 97 98  2  0  0  0  0
 98 99  1  0  0  0  0
 99100  1  0  0  0  0
100101  1  0  0  0  0
 98102  1  0  0  0  0
102103  2  0  0  0  0
 94104  2  0  0  0  0
104105  1  0  0  0  0
 93106  1  0  0  0  0
106107  2  0  0  0  0
107108  1  0  0  0  0
107109  1  0  0  0  0
109110  2  0  0  0  0
110111  1  0  0  0  0
111112  3  0  0  0  0
110113  1  0  0  0  0
113114  3  0  0  0  0
109115  1  0  0  0  0
115116  3  0  0  0  0
 11  2  1  0  0  0  0
 23 17  1  0  0  0  0
 31 24  1  0  0  0  0
 74 32  1  0  0  0  0
105 79  1  0  0  0  0
 10  5  1  0  0  0  0
 22 18  1  0  0  0  0
 41 34  1  0  0  0  0
 73 42  2  0  0  0  0
104 81  1  0  0  0  0
 23  7  1  0  0  0  0
 72 44  2  0  0  0  0
 91 83  1  0  0  0  0
108 92  1  0  0  0  0
 70 45  2  0  0  0  0
103 95  1  0  0  0  0
 50 46  2  0  0  0  0
 69 51  2  0  0  0  0
 67 52  2  0  0  0  0
 66 54  2  0  0  0  0
 63 56  1  0  0  0  0
  1117  1  0  0  0  0
  6118  1  0  0  0  0
  9119  1  0  0  0  0
 17120  1  0  0  0  0
 18121  1  0  0  0  0
 19122  1  0  0  0  0
 20123  1  0  0  0  0
 21124  1  0  0  0  0
 22125  1  0  0  0  0
 22126  1  0  0  0  0
 23127  1  0  0  0  0
 25128  1  0  0  0  0
 28129  1  0  0  0  0
 28130  1  0  0  0  0
 29131  1  0  0  0  0
 29132  1  0  0  0  0
 29133  1  0  0  0  0
 35134  1  0  0  0  0
 36135  1  0  0  0  0
 37136  1  0  0  0  0
 39137  1  0  0  0  0
 39138  1  0  0  0  0
 40139  1  0  0  0  0
 40140  1  0  0  0  0
 40141  1  0  0  0  0
 41142  1  0  0  0  0
 57143  1  0  0  0  0
 58144  1  0  0  0  0
 59145  1  0  0  0  0
 61146  1  0  0  0  0
 61147  1  0  0  0  0
 62148  1  0  0  0  0
 62149  1  0  0  0  0
 62150  1  0  0  0  0
 63151  1  0  0  0  0
 75152  1  0  0  0  0
 75153  1  0  0  0  0
 76154  1  0  0  0  0
 76155  1  0  0  0  0
 76156  1  0  0  0  0
 77157  1  0  0  0  0
 77158  1  0  0  0  0
 78159  1  0  0  0  0
 78160  1  0  0  0  0
 78161  1  0  0  0  0
 80162  1  0  0  0  0
 84163  1  0  0  0  0
 85164  1  0  0  0  0
 88165  1  0  0  0  0
 88166  1  0  0  0  0
 89167  1  0  0  0  0
 89168  1  0  0  0  0
 89169  1  0  0  0  0
 90170  1  0  0  0  0
 91171  1  0  0  0  0
 96172  1  0  0  0  0
 97173  1  0  0  0  0
100174  1  0  0  0  0
100175  1  0  0  0  0
101176  1  0  0  0  0
101177  1  0  0  0  0
101178  1  0  0  0  0
102179  1  0  0  0  0
103180  1  0  0  0  0
106181  1  0  0  0  0
M  END
