
  xtb     02192223533D
 energy: -347.449231715931 gnorm: 0.000458814048 xtb: 6.4.1 (unknown)
209233  0     0  0            999 V2000
   -5.4304   11.9637    2.2708 C   0  0  0  0  0  0  0  0  0  0  0  0
   -6.0854   12.4496    3.3733 C   0  0  0  0  0  0  0  0  0  0  0  0
   -6.6491   11.6412    4.4605 C   0  0  0  0  0  0  0  0  0  0  0  0
   -6.6705   10.4249    4.5507 O   0  0  0  0  0  0  0  0  0  0  0  0
   -7.1879   12.5908    5.4476 C   0  0  0  0  0  0  0  0  0  0  0  0
   -7.8049   12.2803    6.6568 C   0  0  0  0  0  0  0  0  0  0  0  0
   -8.1974   13.3796    7.3820 C   0  0  0  0  0  0  0  0  0  0  0  0
   -7.9942   14.6913    6.9334 C   0  0  0  0  0  0  0  0  0  0  0  0
   -7.3912   15.0103    5.7396 C   0  0  0  0  0  0  0  0  0  0  0  0
   -6.9798   13.9065    4.9876 C   0  0  0  0  0  0  0  0  0  0  0  0
   -6.3090   13.8466    3.6889 C   0  0  0  0  0  0  0  0  0  0  0  0
   -5.9777   14.9339    2.9206 C   0  0  0  0  0  0  0  0  0  0  0  0
   -6.2202   16.2749    3.2846 C   0  0  0  0  0  0  0  0  0  0  0  0
   -6.3808   17.3900    3.5075 N   0  0  0  0  0  0  0  0  0  0  0  0
   -5.3595   14.8941    1.6537 C   0  0  0  0  0  0  0  0  0  0  0  0
   -4.8687   14.9594    0.6167 N   0  0  0  0  0  0  0  0  0  0  0  0
   -8.6188   15.2951    8.1660 C   0  0  0  0  0  0  0  0  0  0  0  0
   -7.6701   15.8829    9.2397 C   0  0  0  0  0  0  0  0  0  0  0  0
   -6.3618   15.1435    9.1075 C   0  0  0  0  0  0  0  0  0  0  0  0
   -6.5536   13.9020    9.5329 C   0  0  0  0  0  0  0  0  0  0  0  0
   -7.9953   13.7795    9.9605 C   0  0  0  0  0  0  0  0  0  0  0  0
   -8.2414   15.2003   10.4927 C   0  0  0  0  0  0  0  0  0  0  0  0
   -8.8450   13.8335    8.6665 C   0  0  0  0  0  0  0  0  0  0  0  0
   -5.1646   10.6401    1.8909 C   0  0  0  0  0  0  0  0  0  0  0  0
   -4.4742   10.3194    0.7240 C   0  0  0  0  0  0  0  0  0  0  0  0
   -4.3221    8.9593    0.5192 C   0  0  0  0  0  0  0  0  0  0  0  0
   -3.5023    8.2894   -0.8993 S   0  0  0  0  0  0  0  0  0  0  0  0
   -4.9707    7.6997   -1.8269 C   0  0  0  0  0  0  0  0  0  0  0  0
   -5.8572    8.8442   -2.2721 C   0  0  0  0  0  0  0  0  0  0  0  0
   -4.8918    8.1849    1.5319 C   0  0  0  0  0  0  0  0  0  0  0  0
   -5.6391    9.1847    2.7393 S   0  0  0  0  0  0  0  0  0  0  0  0
   -4.8367    6.7785    1.6779 C   0  0  0  0  0  0  0  0  0  0  0  0
   -5.5172    6.0025    2.6072 C   0  0  0  0  0  0  0  0  0  0  0  0
   -6.5769    6.4954    3.4947 C   0  0  0  0  0  0  0  0  0  0  0  0
   -7.7592    7.0036    2.9645 C   0  0  0  0  0  0  0  0  0  0  0  0
   -8.7491    7.4595    3.8119 C   0  0  0  0  0  0  0  0  0  0  0  0
   -8.5676    7.4138    5.1829 C   0  0  0  0  0  0  0  0  0  0  0  0
   -7.3991    6.8991    5.7264 C   0  0  0  0  0  0  0  0  0  0  0  0
   -7.2194    6.7962    7.2132 C   0  0  0  0  0  0  0  0  0  0  0  0
   -7.6774    5.4233    7.7093 C   0  0  0  0  0  0  0  0  0  0  0  0
   -6.4125    6.4310    4.8713 C   0  0  0  0  0  0  0  0  0  0  0  0
   -5.0893    4.6690    2.5790 C   0  0  0  0  0  0  0  0  0  0  0  0
   -5.5636    3.2581    3.4985 S   0  0  0  0  0  0  0  0  0  0  0  0
   -4.4109    2.3259    2.6023 C   0  0  0  0  0  0  0  0  0  0  0  0
   -3.9049    1.0199    2.5524 C   0  0  0  0  0  0  0  0  0  0  0  0
   -4.2183   -0.1021    3.3482 C   0  0  0  0  0  0  0  0  0  0  0  0
   -3.4838   -1.3140    3.1484 C   0  0  0  0  0  0  0  0  0  0  0  0
   -3.8559   -2.2768    3.9779 N   0  0  0  0  0  0  0  0  0  0  0  0
   -5.0349   -1.7025    4.9286 S   0  0  0  0  0  0  0  0  0  0  0  0
   -5.1132   -0.2041    4.3186 N   0  0  0  0  0  0  0  0  0  0  0  0
   -2.5091   -1.3567    2.1297 C   0  0  0  0  0  0  0  0  0  0  0  0
   -1.6872   -2.4143    1.7153 C   0  0  0  0  0  0  0  0  0  0  0  0
   -1.3514   -4.0604    2.1346 S   0  0  0  0  0  0  0  0  0  0  0  0
   -0.1875   -4.1241    0.8326 C   0  0  0  0  0  0  0  0  0  0  0  0
    0.7008   -5.1314    0.4058 C   0  0  0  0  0  0  0  0  0  0  0  0
    0.8289   -6.4093    1.1114 C   0  0  0  0  0  0  0  0  0  0  0  0
    2.0661   -6.8318    1.5898 C   0  0  0  0  0  0  0  0  0  0  0  0
    2.1522   -7.9875    2.3408 C   0  0  0  0  0  0  0  0  0  0  0  0
    1.0170   -8.7337    2.6084 C   0  0  0  0  0  0  0  0  0  0  0  0
   -0.2205   -8.3372    2.1204 C   0  0  0  0  0  0  0  0  0  0  0  0
   -1.4598   -9.1214    2.4388 C   0  0  0  0  0  0  0  0  0  0  0  0
   -2.1148   -8.5819    3.7120 C   0  0  0  0  0  0  0  0  0  0  0  0
   -0.3045   -7.1652    1.3835 C   0  0  0  0  0  0  0  0  0  0  0  0
    1.4664   -4.7022   -0.6609 C   0  0  0  0  0  0  0  0  0  0  0  0
    1.1097   -3.0464   -1.1242 S   0  0  0  0  0  0  0  0  0  0  0  0
   -0.0839   -2.9285    0.1201 C   0  0  0  0  0  0  0  0  0  0  0  0
   -0.9442   -1.9469    0.6316 C   0  0  0  0  0  0  0  0  0  0  0  0
   -1.2785   -0.6493    0.3602 N   0  0  0  0  0  0  0  0  0  0  0  0
   -2.2258   -0.2411    1.2856 C   0  0  0  0  0  0  0  0  0  0  0  0
   -2.9007    0.9890    1.5366 C   0  0  0  0  0  0  0  0  0  0  0  0
   -2.7983    2.2666    1.0137 N   0  0  0  0  0  0  0  0  0  0  0  0
   -3.7123    3.0642    1.6452 C   0  0  0  0  0  0  0  0  0  0  0  0
   -4.0974    4.4088    1.6278 C   0  0  0  0  0  0  0  0  0  0  0  0
   -3.6861    5.8302    0.7351 S   0  0  0  0  0  0  0  0  0  0  0  0
   -1.9230    2.8784    0.0426 C   0  0  0  0  0  0  0  0  0  0  0  0
   -2.5967    3.0037   -1.3242 C   0  0  0  0  0  0  0  0  0  0  0  0
   -0.6956   -0.0240   -0.8031 C   0  0  0  0  0  0  0  0  0  0  0  0
    0.7074    0.5123   -0.5152 C   0  0  0  0  0  0  0  0  0  0  0  0
    2.4208   -5.4364   -1.4258 C   0  0  0  0  0  0  0  0  0  0  0  0
    2.5245   -6.7899   -1.5752 C   0  0  0  0  0  0  0  0  0  0  0  0
    3.5845   -7.1843   -2.4262 C   0  0  0  0  0  0  0  0  0  0  0  0
    3.9239   -8.4875   -2.8250 C   0  0  0  0  0  0  0  0  0  0  0  0
    3.1987   -9.6655   -2.3287 C   0  0  0  0  0  0  0  0  0  0  0  0
    2.6407  -10.5745   -3.2550 C   0  0  0  0  0  0  0  0  0  0  0  0
    1.9637  -11.6782   -2.8290 C   0  0  0  0  0  0  0  0  0  0  0  0
    1.8227  -11.9550   -1.4510 C   0  0  0  0  0  0  0  0  0  0  0  0
    1.1440  -13.0889   -0.9815 C   0  0  0  0  0  0  0  0  0  0  0  0
    1.0352  -13.3494    0.3683 C   0  0  0  0  0  0  0  0  0  0  0  0
    0.3549  -14.4750    0.7114 O   0  0  0  0  0  0  0  0  0  0  0  0
    0.2341  -14.8284    2.0747 C   0  0  0  0  0  0  0  0  0  0  0  0
   -0.5342  -16.1389    2.1425 C   0  0  0  0  0  0  0  0  0  0  0  0
    1.6233  -12.4625    1.2932 C   0  0  0  0  0  0  0  0  0  0  0  0
    2.2876  -11.3510    0.8550 C   0  0  0  0  0  0  0  0  0  0  0  0
    2.3994  -11.0545   -0.5162 C   0  0  0  0  0  0  0  0  0  0  0  0
    3.0694   -9.9082   -0.9832 C   0  0  0  0  0  0  0  0  0  0  0  0
    4.9795   -8.6091   -3.7140 C   0  0  0  0  0  0  0  0  0  0  0  0
    5.7066   -7.4959   -4.2182 C   0  0  0  0  0  0  0  0  0  0  0  0
    5.3483   -6.1849   -3.8381 C   0  0  0  0  0  0  0  0  0  0  0  0
    6.0314   -5.0104   -4.3885 C   0  0  0  0  0  0  0  0  0  0  0  0
    6.4575   -3.9930   -3.5675 C   0  0  0  0  0  0  0  0  0  0  0  0
    7.0927   -2.8529   -4.0915 C   0  0  0  0  0  0  0  0  0  0  0  0
    7.5322   -1.7950   -3.2727 C   0  0  0  0  0  0  0  0  0  0  0  0
    8.1431   -0.6913   -3.7991 C   0  0  0  0  0  0  0  0  0  0  0  0
    8.3521   -0.5892   -5.1901 C   0  0  0  0  0  0  0  0  0  0  0  0
    8.9286    0.4742   -5.8154 O   0  0  0  0  0  0  0  0  0  0  0  0
    9.4948    1.5256   -5.0610 C   0  0  0  0  0  0  0  0  0  0  0  0
   10.8431    1.1536   -4.4500 C   0  0  0  0  0  0  0  0  0  0  0  0
    7.9300   -1.6133   -6.0121 C   0  0  0  0  0  0  0  0  0  0  0  0
    7.2981   -2.7524   -5.4931 C   0  0  0  0  0  0  0  0  0  0  0  0
    6.8493   -3.8093   -6.3167 C   0  0  0  0  0  0  0  0  0  0  0  0
    6.2353   -4.9029   -5.7838 C   0  0  0  0  0  0  0  0  0  0  0  0
    4.3015   -6.0719   -2.9402 C   0  0  0  0  0  0  0  0  0  0  0  0
    3.6390   -4.5712   -2.3443 S   0  0  0  0  0  0  0  0  0  0  0  0
    6.7748   -7.8867   -5.0477 C   0  0  0  0  0  0  0  0  0  0  0  0
    6.8766   -9.2472   -5.2168 C   0  0  0  0  0  0  0  0  0  0  0  0
    5.6304  -10.1073   -4.3074 S   0  0  0  0  0  0  0  0  0  0  0  0
    7.7990  -10.0484   -5.9248 C   0  0  0  0  0  0  0  0  0  0  0  0
    8.7658   -9.7187   -6.8335 C   0  0  0  0  0  0  0  0  0  0  0  0
    9.0024   -8.4137   -7.5011 C   0  0  0  0  0  0  0  0  0  0  0  0
    8.4997   -7.3343   -7.2644 O   0  0  0  0  0  0  0  0  0  0  0  0
    9.9750   -8.6895   -8.5728 C   0  0  0  0  0  0  0  0  0  0  0  0
   10.4882   -7.8212   -9.5174 C   0  0  0  0  0  0  0  0  0  0  0  0
   11.3953   -8.3150  -10.4402 C   0  0  0  0  0  0  0  0  0  0  0  0
   11.7835   -9.6538  -10.4286 C   0  0  0  0  0  0  0  0  0  0  0  0
   12.7440  -10.1654  -11.4548 C   0  0  0  0  0  0  0  0  0  0  0  0
   11.2610  -10.5220   -9.4717 C   0  0  0  0  0  0  0  0  0  0  0  0
   10.3585  -10.0399   -8.5388 C   0  0  0  0  0  0  0  0  0  0  0  0
    9.6695  -10.6915   -7.4281 C   0  0  0  0  0  0  0  0  0  0  0  0
    9.9116  -11.9677   -6.9925 C   0  0  0  0  0  0  0  0  0  0  0  0
    9.3425  -12.5814   -5.8556 C   0  0  0  0  0  0  0  0  0  0  0  0
    8.9544  -13.1570   -4.9404 N   0  0  0  0  0  0  0  0  0  0  0  0
   10.8211  -12.8532   -7.6088 C   0  0  0  0  0  0  0  0  0  0  0  0
   11.5384  -13.6270   -8.0618 N   0  0  0  0  0  0  0  0  0  0  0  0
   -5.0376   12.6914    1.5709 H   0  0  0  0  0  0  0  0  0  0  0  0
   -7.9402   11.2536    6.9595 H   0  0  0  0  0  0  0  0  0  0  0  0
   -7.2446   16.0259    5.4125 H   0  0  0  0  0  0  0  0  0  0  0  0
   -9.4948   15.9191    8.0003 H   0  0  0  0  0  0  0  0  0  0  0  0
   -7.6098   16.9679    9.2431 H   0  0  0  0  0  0  0  0  0  0  0  0
   -5.4741   15.5695    8.6780 H   0  0  0  0  0  0  0  0  0  0  0  0
   -5.8582   13.0831    9.5291 H   0  0  0  0  0  0  0  0  0  0  0  0
   -8.2313   12.9495   10.6215 H   0  0  0  0  0  0  0  0  0  0  0  0
   -9.2934   15.4227   10.6665 H   0  0  0  0  0  0  0  0  0  0  0  0
   -7.6658   15.4190   11.3909 H   0  0  0  0  0  0  0  0  0  0  0  0
   -9.8693   13.5033    8.8285 H   0  0  0  0  0  0  0  0  0  0  0  0
   -4.0954   11.0625    0.0446 H   0  0  0  0  0  0  0  0  0  0  0  0
   -5.5084    6.9983   -1.1889 H   0  0  0  0  0  0  0  0  0  0  0  0
   -4.5538    7.1641   -2.6785 H   0  0  0  0  0  0  0  0  0  0  0  0
   -6.6935    8.4593   -2.8524 H   0  0  0  0  0  0  0  0  0  0  0  0
   -5.2954    9.5417   -2.8886 H   0  0  0  0  0  0  0  0  0  0  0  0
   -6.2515    9.3827   -1.4121 H   0  0  0  0  0  0  0  0  0  0  0  0
   -7.8933    7.0400    1.8928 H   0  0  0  0  0  0  0  0  0  0  0  0
   -9.6662    7.8560    3.4015 H   0  0  0  0  0  0  0  0  0  0  0  0
   -9.3427    7.7839    5.8387 H   0  0  0  0  0  0  0  0  0  0  0  0
   -6.1678    6.9401    7.4687 H   0  0  0  0  0  0  0  0  0  0  0  0
   -7.8016    7.5740    7.7111 H   0  0  0  0  0  0  0  0  0  0  0  0
   -7.1053    4.6357    7.2242 H   0  0  0  0  0  0  0  0  0  0  0  0
   -8.7296    5.2703    7.4798 H   0  0  0  0  0  0  0  0  0  0  0  0
   -7.5406    5.3413    8.7853 H   0  0  0  0  0  0  0  0  0  0  0  0
   -5.4941    6.0306    5.2769 H   0  0  0  0  0  0  0  0  0  0  0  0
    2.9476   -6.2414    1.3876 H   0  0  0  0  0  0  0  0  0  0  0  0
    3.1105   -8.3013    2.7300 H   0  0  0  0  0  0  0  0  0  0  0  0
    1.0884   -9.6316    3.2047 H   0  0  0  0  0  0  0  0  0  0  0  0
   -2.1670   -9.0466    1.6105 H   0  0  0  0  0  0  0  0  0  0  0  0
   -1.2056  -10.1744    2.5763 H   0  0  0  0  0  0  0  0  0  0  0  0
   -2.3764   -7.5336    3.5866 H   0  0  0  0  0  0  0  0  0  0  0  0
   -3.0182   -9.1418    3.9422 H   0  0  0  0  0  0  0  0  0  0  0  0
   -1.4305   -8.6641    4.5535 H   0  0  0  0  0  0  0  0  0  0  0  0
   -1.2631   -6.8368    1.0080 H   0  0  0  0  0  0  0  0  0  0  0  0
   -0.9872    2.3315   -0.0129 H   0  0  0  0  0  0  0  0  0  0  0  0
   -1.6939    3.8854    0.4073 H   0  0  0  0  0  0  0  0  0  0  0  0
   -2.9720    2.0434   -1.6732 H   0  0  0  0  0  0  0  0  0  0  0  0
   -1.8898    3.3943   -2.0507 H   0  0  0  0  0  0  0  0  0  0  0  0
   -3.4369    3.6902   -1.2598 H   0  0  0  0  0  0  0  0  0  0  0  0
   -0.6184   -0.7956   -1.5767 H   0  0  0  0  0  0  0  0  0  0  0  0
   -1.3596    0.7487   -1.1797 H   0  0  0  0  0  0  0  0  0  0  0  0
    1.3864   -0.3130   -0.3182 H   0  0  0  0  0  0  0  0  0  0  0  0
    1.0776    1.0626   -1.3758 H   0  0  0  0  0  0  0  0  0  0  0  0
    0.7136    1.1661    0.3547 H   0  0  0  0  0  0  0  0  0  0  0  0
    1.8456   -7.4861   -1.1179 H   0  0  0  0  0  0  0  0  0  0  0  0
    2.7406  -10.3690   -4.3108 H   0  0  0  0  0  0  0  0  0  0  0  0
    1.5278  -12.3618   -3.5428 H   0  0  0  0  0  0  0  0  0  0  0  0
    0.7005  -13.7800   -1.6815 H   0  0  0  0  0  0  0  0  0  0  0  0
   -0.3073  -14.0444    2.6234 H   0  0  0  0  0  0  0  0  0  0  0  0
    1.2292  -14.9511    2.5247 H   0  0  0  0  0  0  0  0  0  0  0  0
    0.0026  -16.9107    1.5979 H   0  0  0  0  0  0  0  0  0  0  0  0
   -1.5154  -16.0170    1.6921 H   0  0  0  0  0  0  0  0  0  0  0  0
   -0.6510  -16.4468    3.1777 H   0  0  0  0  0  0  0  0  0  0  0  0
    1.5587  -12.6591    2.3523 H   0  0  0  0  0  0  0  0  0  0  0  0
    2.7453  -10.6806    1.5661 H   0  0  0  0  0  0  0  0  0  0  0  0
    3.5046   -9.2292   -0.2633 H   0  0  0  0  0  0  0  0  0  0  0  0
    6.3330   -4.0683   -2.4966 H   0  0  0  0  0  0  0  0  0  0  0  0
    7.3743   -1.8640   -2.2057 H   0  0  0  0  0  0  0  0  0  0  0  0
    8.4573    0.1002   -3.1366 H   0  0  0  0  0  0  0  0  0  0  0  0
    9.6284    2.3338   -5.7859 H   0  0  0  0  0  0  0  0  0  0  0  0
    8.7971    1.8722   -4.2883 H   0  0  0  0  0  0  0  0  0  0  0  0
   11.5299    0.8472   -5.2350 H   0  0  0  0  0  0  0  0  0  0  0  0
   10.7389    0.3310   -3.7465 H   0  0  0  0  0  0  0  0  0  0  0  0
   11.2597    2.0125   -3.9309 H   0  0  0  0  0  0  0  0  0  0  0  0
    8.0910   -1.5244   -7.0755 H   0  0  0  0  0  0  0  0  0  0  0  0
    6.9990   -3.7358   -7.3835 H   0  0  0  0  0  0  0  0  0  0  0  0
    5.8772   -5.6918   -6.4275 H   0  0  0  0  0  0  0  0  0  0  0  0
    7.4626   -7.1938   -5.4946 H   0  0  0  0  0  0  0  0  0  0  0  0
    7.6874  -11.1054   -5.7102 H   0  0  0  0  0  0  0  0  0  0  0  0
   10.1832   -6.7860   -9.5220 H   0  0  0  0  0  0  0  0  0  0  0  0
   11.8129   -7.6546  -11.1862 H   0  0  0  0  0  0  0  0  0  0  0  0
   12.2104  -10.3922  -12.3783 H   0  0  0  0  0  0  0  0  0  0  0  0
   13.2297  -11.0758  -11.1134 H   0  0  0  0  0  0  0  0  0  0  0  0
   13.5022   -9.4195  -11.6825 H   0  0  0  0  0  0  0  0  0  0  0  0
   11.5648  -11.5563   -9.4760 H   0  0  0  0  0  0  0  0  0  0  0  0
  1  2  2  0  0  0  0
  2  3  1  0  0  0  0
  3  4  2  0  0  0  0
  3  5  1  0  0  0  0
  5  6  2  0  0  0  0
  6  7  1  0  0  0  0
  7  8  2  0  0  0  0
  8  9  1  0  0  0  0
  9 10  2  0  0  0  0
 10 11  1  0  0  0  0
 11 12  2  0  0  0  0
 12 13  1  0  0  0  0
 13 14  3  0  0  0  0
 12 15  1  0  0  0  0
 15 16  3  0  0  0  0
  8 17  1  0  0  0  0
 17 18  1  0  0  0  0
 18 19  1  0  0  0  0
 19 20  2  0  0  0  0
 20 21  1  0  0  0  0
 21 22  1  0  0  0  0
 21 23  1  0  0  0  0
  1 24  1  0  0  0  0
 24 25  2  0  0  0  0
 25 26  1  0  0  0  0
 26 27  1  0  0  0  0
 27 28  1  0  0  0  0
 28 29  1  0  0  0  0
 26 30  2  0  0  0  0
 30 31  1  0  0  0  0
 30 32  1  0  0  0  0
 32 33  2  0  0  0  0
 33 34  1  0  0  0  0
 34 35  2  0  0  0  0
 35 36  1  0  0  0  0
 36 37  2  0  0  0  0
 37 38  1  0  0  0  0
 38 39  1  0  0  0  0
 39 40  1  0  0  0  0
 38 41  2  0  0  0  0
 33 42  1  0  0  0  0
 42 43  1  0  0  0  0
 43 44  1  0  0  0  0
 44 45  1  0  0  0  0
 45 46  1  0  0  0  0
 46 47  1  0  0  0  0
 47 48  2  0  0  0  0
 48 49  1  0  0  0  0
 49 50  1  0  0  0  0
 47 51  1  0  0  0  0
 51 52  1  0  0  0  0
 52 53  1  0  0  0  0
 53 54  1  0  0  0  0
 54 55  1  0  0  0  0
 55 56  1  0  0  0  0
 56 57  2  0  0  0  0
 57 58  1  0  0  0  0
 58 59  2  0  0  0  0
 59 60  1  0  0  0  0
 60 61  1  0  0  0  0
 61 62  1  0  0  0  0
 60 63  2  0  0  0  0
 55 64  2  0  0  0  0
 64 65  1  0  0  0  0
 65 66  1  0  0  0  0
 66 67  1  0  0  0  0
 67 68  1  0  0  0  0
 68 69  1  0  0  0  0
 69 70  1  0  0  0  0
 70 71  1  0  0  0  0
 71 72  1  0  0  0  0
 72 73  1  0  0  0  0
 73 74  1  0  0  0  0
 71 75  1  0  0  0  0
 75 76  1  0  0  0  0
 68 77  1  0  0  0  0
 77 78  1  0  0  0  0
 64 79  1  0  0  0  0
 79 80  2  0  0  0  0
 80 81  1  0  0  0  0
 81 82  2  0  0  0  0
 82 83  1  0  0  0  0
 83 84  2  0  0  0  0
 84 85  1  0  0  0  0
 85 86  2  0  0  0  0
 86 87  1  0  0  0  0
 87 88  2  0  0  0  0
 88 89  1  0  0  0  0
 89 90  1  0  0  0  0
 90 91  1  0  0  0  0
 88 92  1  0  0  0  0
 92 93  2  0  0  0  0
 93 94  1  0  0  0  0
 94 95  2  0  0  0  0
 82 96  1  0  0  0  0
 96 97  2  0  0  0  0
 97 98  1  0  0  0  0
 98 99  1  0  0  0  0
 99100  2  0  0  0  0
100101  1  0  0  0  0
101102  2  0  0  0  0
102103  1  0  0  0  0
103104  2  0  0  0  0
104105  1  0  0  0  0
105106  1  0  0  0  0
106107  1  0  0  0  0
104108  1  0  0  0  0
108109  2  0  0  0  0
109110  1  0  0  0  0
110111  2  0  0  0  0
 98112  2  0  0  0  0
112113  1  0  0  0  0
 97114  1  0  0  0  0
114115  2  0  0  0  0
115116  1  0  0  0  0
115117  1  0  0  0  0
117118  2  0  0  0  0
118119  1  0  0  0  0
119120  2  0  0  0  0
119121  1  0  0  0  0
121122  2  0  0  0  0
122123  1  0  0  0  0
123124  2  0  0  0  0
124125  1  0  0  0  0
124126  1  0  0  0  0
126127  2  0  0  0  0
127128  1  0  0  0  0
128129  2  0  0  0  0
129130  1  0  0  0  0
130131  3  0  0  0  0
129132  1  0  0  0  0
132133  3  0  0  0  0
 11  2  1  0  0  0  0
 23 17  1  0  0  0  0
 31 24  1  0  0  0  0
 74 32  1  0  0  0  0
113 79  1  0  0  0  0
128118  1  0  0  0  0
 10  5  1  0  0  0  0
 22 18  1  0  0  0  0
 41 34  1  0  0  0  0
 73 42  2  0  0  0  0
112 81  1  0  0  0  0
127121  1  0  0  0  0
 23  7  1  0  0  0  0
 72 44  2  0  0  0  0
 95 83  1  0  0  0  0
116 96  1  0  0  0  0
 70 45  2  0  0  0  0
 94 86  1  0  0  0  0
111 99  1  0  0  0  0
 50 46  2  0  0  0  0
 69 51  2  0  0  0  0
109101  1  0  0  0  0
 67 52  2  0  0  0  0
 66 54  2  0  0  0  0
 63 56  1  0  0  0  0
  1134  1  0  0  0  0
  6135  1  0  0  0  0
  9136  1  0  0  0  0
 17137  1  0  0  0  0
 18138  1  0  0  0  0
 19139  1  0  0  0  0
 20140  1  0  0  0  0
 21141  1  0  0  0  0
 22142  1  0  0  0  0
 22143  1  0  0  0  0
 23144  1  0  0  0  0
 25145  1  0  0  0  0
 28146  1  0  0  0  0
 28147  1  0  0  0  0
 29148  1  0  0  0  0
 29149  1  0  0  0  0
 29150  1  0  0  0  0
 35151  1  0  0  0  0
 36152  1  0  0  0  0
 37153  1  0  0  0  0
 39154  1  0  0  0  0
 39155  1  0  0  0  0
 40156  1  0  0  0  0
 40157  1  0  0  0  0
 40158  1  0  0  0  0
 41159  1  0  0  0  0
 57160  1  0  0  0  0
 58161  1  0  0  0  0
 59162  1  0  0  0  0
 61163  1  0  0  0  0
 61164  1  0  0  0  0
 62165  1  0  0  0  0
 62166  1  0  0  0  0
 62167  1  0  0  0  0
 63168  1  0  0  0  0
 75169  1  0  0  0  0
 75170  1  0  0  0  0
 76171  1  0  0  0  0
 76172  1  0  0  0  0
 76173  1  0  0  0  0
 77174  1  0  0  0  0
 77175  1  0  0  0  0
 78176  1  0  0  0  0
 78177  1  0  0  0  0
 78178  1  0  0  0  0
 80179  1  0  0  0  0
 84180  1  0  0  0  0
 85181  1  0  0  0  0
 87182  1  0  0  0  0
 90183  1  0  0  0  0
 90184  1  0  0  0  0
 91185  1  0  0  0  0
 91186  1  0  0  0  0
 91187  1  0  0  0  0
 92188  1  0  0  0  0
 93189  1  0  0  0  0
 95190  1  0  0  0  0
100191  1  0  0  0  0
102192  1  0  0  0  0
103193  1  0  0  0  0
106194  1  0  0  0  0
106195  1  0  0  0  0
107196  1  0  0  0  0
107197  1  0  0  0  0
107198  1  0  0  0  0
108199  1  0  0  0  0
110200  1  0  0  0  0
111201  1  0  0  0  0
114202  1  0  0  0  0
117203  1  0  0  0  0
122204  1  0  0  0  0
123205  1  0  0  0  0
125206  1  0  0  0  0
125207  1  0  0  0  0
125208  1  0  0  0  0
126209  1  0  0  0  0
M  END
