152

C         -0.00610        4.25310        8.57340
C          1.04470        5.04090        8.96710
C          2.10230        5.56020        8.09190
O          2.27350        5.32280        6.90790
C          2.93090        6.44710        8.92460
C          4.03640        7.18790        8.51470
C          4.60800        7.93850        9.51380
C          4.11760        7.94600       10.82630
C          3.03160        7.21400       11.24490
C          2.43150        6.44710       10.24260
C          1.27220        5.55710       10.30240
C          0.56280        5.25780       11.43770
C         -0.53050        4.37030       11.51730
N         -1.41500        3.65430       11.67770
C          0.83750        5.78700       12.71600
N          0.99600        6.17390       13.78560
C          5.16340        8.92520       11.29680
C          4.73320       10.39980       11.49470
C          3.56820       10.63600       10.56590
C          4.03300       10.62990        9.32370
C          5.52090       10.38920        9.39020
C          5.85190       11.10380       10.71020
C          5.71010        8.91740        9.83440
C         -0.30820        3.71770        7.31270
C         -1.46260        2.97760        7.06940
C         -1.57700        2.53030        5.76490
S         -2.95360        1.56180        5.21300
C         -2.29800       -0.11770        5.55500
C         -2.15230       -0.39380        7.03670
C         -0.51220        2.92630        4.95080
S          0.64440        3.85750        5.85190
C         -0.31610        2.63270        3.58120
C          0.75090        3.01080        2.77520
C          1.85770        3.89260        3.17090
C          3.15030        3.38990        3.24820
C          4.18890        4.22680        3.61200
C          3.94570        5.55890        3.88980
C          2.66130        6.08010        3.79910
C          2.40380        7.53620        4.05430
C          2.58690        8.34750        2.77040
C          1.62500        5.23910        3.42780
C          0.65730        2.44970        1.49530
S          1.69890        2.54360        0.09320
C          0.59380        1.51480       -0.75500
C          0.47600        0.87700       -1.99850
C          1.37390        0.80470       -3.08570
C          1.06080       -0.06090       -4.18460
N          2.01450       -0.08010       -5.10250
S          3.20200        0.91290       -4.62710
N          2.54650        1.40180       -3.22980
C         -0.18420       -0.72640       -4.19410
C         -0.77940       -1.54480       -5.16580
S         -0.39440       -2.26090       -6.69260
C         -1.99260       -2.97060       -6.73720
C         -2.64940       -3.77820       -7.69090
C         -2.06760       -4.03820       -9.00460
C         -2.84230       -3.89260      -10.15580
C         -2.25040       -3.99460      -11.39800
C         -0.89360       -4.25090      -11.50870
C         -0.10900       -4.41530      -10.37390
C          1.35410       -4.73420      -10.48380
C          1.58240       -6.24650      -10.45190
C         -0.70660       -4.30760       -9.12810
C         -3.93660       -4.09370       -7.28480
S         -4.35060       -3.31730       -5.74920
C         -2.77000       -2.63940       -5.62540
C         -2.07060       -1.83310       -4.71890
N         -2.28840       -1.25070       -3.49880
C         -1.13210       -0.57260       -3.14240
C         -0.75010        0.15050       -1.98080
N         -1.33850        0.32730       -0.73910
C         -0.52080        1.13810        0.00060
C         -0.48210        1.66450        1.29600
S         -1.46160        1.60400        2.71870
C         -2.37320       -0.43170       -0.07420
C         -2.00790       -1.91070        0.02560
C         -3.64320       -1.09520       -3.01780
C         -4.10070        0.35930       -3.09160
C         -4.95840       -4.95320       -7.78290
C         -4.88550       -6.16440       -8.39310
C         -3.72750       -6.88740       -8.78490
C         -3.66650       -8.25020       -8.74140
C         -4.66640       -9.12580       -8.06910
O         -5.79550       -8.84310       -7.72680
C         -3.97500      -10.40860       -7.86000
C         -4.41720      -11.54270       -7.20860
C         -3.56990      -12.63430       -7.10290
C         -2.28390      -12.58820       -7.64600
O         -1.38790      -13.59610       -7.58120
C         -1.74630      -14.79880       -6.94070
C         -1.83660      -11.43960       -8.31760
C         -2.68410      -10.35870       -8.42300
C         -2.52660       -9.07070       -9.09220
C         -1.56580       -8.74950      -10.01310
C         -0.43520       -9.54320      -10.29170
N          0.51850      -10.13290      -10.53810
C         -1.68380       -7.65360      -10.89030
N         -1.77990       -6.84950      -11.70460
H         -0.74180        4.00080        9.32760
H          4.38050        7.14580        7.49310
H          2.67090        7.23190       12.25960
H          5.82160        8.57560       12.08960
H          4.58730       10.69170       12.53110
H          2.54900       10.72330       10.89410
H          3.47930       10.71100        8.40660
H          6.09320       10.67290        8.51070
H          5.71150       12.18210       10.65210
H          6.85020       10.88240       11.08520
H          6.72610        8.56230        9.67250
H         -2.20070        2.78090        7.82690
H         -3.02900       -0.78290        5.09740
H         -1.34760       -0.21220        5.02990
H         -1.41500        0.27060        7.48290
H         -3.10300       -0.25060        7.54470
H         -1.82660       -1.42110        7.18850
H          3.33330        2.34620        3.03890
H          5.19280        3.83420        3.68200
H          4.76170        6.20370        4.18280
H          3.09410        7.90220        4.81650
H          1.38660        7.66920        4.42720
H          3.60280        8.24100        2.39630
H          1.90270        7.99640        2.00120
H          2.39220        9.40180        2.95360
H          0.61910        5.62750        3.34640
H         -3.89630       -3.67500      -10.06470
H         -2.84830       -3.87300      -12.28790
H         -0.44030       -4.32470      -12.48530
H          1.89460       -4.26990       -9.65610
H          1.74810       -4.33320      -11.41910
H          1.05840       -6.72580      -11.27540
H          1.21380       -6.66880       -9.51890
H          2.64220       -6.47370      -10.53650
H         -0.10810       -4.44330       -8.23850
H         -3.33460       -0.28660       -0.56750
H         -2.46460       -0.01500        0.93200
H         -1.83680       -2.34220       -0.95780
H         -2.80790       -2.45800        0.51690
H         -1.09810       -2.02860        0.60970
H         -3.74440       -1.49760       -2.00940
H         -4.27470       -1.70420       -3.66950
H         -3.45270        1.00690       -2.50570
H         -5.11750        0.44750       -2.71860
H         -4.07910        0.70290       -4.12330
H         -5.95050       -4.65020       -7.46360
H         -5.82000       -6.69740       -8.49860
H         -2.84010       -6.33360       -9.06830
H         -5.41130      -11.57190       -6.78960
H         -3.91750      -13.51890       -6.59370
H         -2.59860      -15.27700       -7.43300
H         -1.97710      -14.63740       -5.88310
H         -0.87420      -15.44480       -7.02400
H         -0.83860      -11.44180       -8.72390
