257

C         -0.31920       -1.99530       15.42360
C         -0.21230       -0.70660       15.84950
C          0.78520       -0.36520       16.90190
O          1.32680       -1.13210       17.66470
C          1.01510        1.08760       16.76150
C          1.97210        1.85980       17.41600
C          1.97770        3.18220       17.04090
C          1.10100        3.70300       16.07930
C          0.14450        2.95740       15.43280
C          0.11760        1.61250       15.80810
C         -0.76880        0.53890       15.36780
C         -2.01780        0.71620       14.83070
C         -2.93950       -0.33990       14.67760
N         -3.72880       -1.16570       14.56840
C         -2.54200        1.96030       14.43520
N         -3.00730        2.94330       14.06520
C          1.68600        5.08860       16.17840
C          2.64950        5.54840       15.05650
C          3.27930        4.29980       14.49060
C          4.10660        3.81260       15.40570
C          4.05030        4.72260       16.60760
C          3.81230        6.07340       15.91360
C          2.65900        4.51150       17.25460
C         -0.82620       -2.47470       14.19220
C         -1.09920       -1.77040       13.04590
C         -1.47310       -2.57540       11.95520
C         -1.77450       -2.13830       10.65160
C         -1.89880       -0.70230       10.37320
C         -2.76720        0.06380       11.15050
C         -2.87850        1.42250       10.94240
C         -2.11620        2.05820        9.96780
C         -2.19140        3.54970        9.81460
C         -1.51010        4.24790       10.99370
C         -1.26900        1.28840        9.18180
C         -1.16560       -0.07800        9.37120
C         -1.96590       -3.12560        9.70670
C         -1.93050       -4.51340       10.01080
C         -1.68500       -4.94540       11.32670
C         -1.63540       -6.37240       11.67020
C         -2.37270       -6.86730       12.74190
C         -2.32600       -8.21020       13.06080
C         -1.54470       -9.09250       12.32490
C         -1.46040      -10.54240       12.70410
C         -0.33570      -10.76110       13.71830
C         -0.80050       -8.59270       11.26370
C         -0.84220       -7.25170       10.93830
C         -1.45590       -3.95760       12.27260
S         -1.02130       -4.20500       13.94150
C         -2.17790       -5.30920        8.86490
C         -2.35150       -4.58330        7.72160
S         -2.28630       -2.85260        8.01780
C         -2.52160       -5.02940        6.37780
C         -2.19800       -6.24410        5.80100
C         -1.54940       -7.38650        6.45260
C         -0.36010       -7.23110        7.15890
C          0.26800       -8.33740        7.69800
C         -0.28030       -9.59880        7.54060
C         -1.46300       -9.77200        6.83430
C         -2.03090      -11.14120        6.59730
C         -1.56960      -11.67480        5.23930
C         -2.08480       -8.65820        6.28930
C         -2.47930       -6.23970        4.41910
S         -2.17490       -7.39740        3.14290
C         -2.69370       -6.22290        1.97660
C         -2.76280       -6.05240        0.57940
C         -2.51160       -6.91270       -0.51260
C         -2.62370       -6.39780       -1.85320
N         -2.38880       -7.32400       -2.76850
S         -2.05540       -8.71930       -2.01820
N         -2.19240       -8.19680       -0.49150
C         -2.86480       -5.01800       -2.04500
C         -2.74900       -4.18720       -3.17360
S         -2.33160       -4.29610       -4.85440
C         -2.28100       -2.54820       -4.93660
C         -1.93280       -1.64260       -5.95640
C         -1.63420       -2.08030       -7.32170
C         -2.32570       -1.54230       -8.40460
C         -2.09890       -2.03300       -9.67420
C         -1.17990       -3.04830       -9.87690
C         -0.47340       -3.58670       -8.81090
C          0.55870       -4.65810       -9.01770
C          1.96770       -4.10070       -8.80680
C         -0.71840       -3.10200       -7.53460
C         -1.97560       -0.32950       -5.50910
S         -2.52790       -0.22030       -3.84250
C         -2.61980       -1.93660       -3.72990
C         -2.88760       -2.87060       -2.72380
N         -3.11620       -2.85260       -1.37510
C         -3.10870       -4.16160       -0.93630
C         -3.18700       -4.71510        0.36240
N         -3.45010       -4.11500        1.58280
C         -3.11490       -5.02360        2.55500
C         -2.99220       -5.03130        3.94750
S         -3.18260       -3.88450        5.22090
C         -4.45970       -3.11170        1.85150
C         -5.73020       -3.74230        2.42160
C         -2.97040       -1.62100       -0.63070
C         -4.18680       -0.70900       -0.77620
C         -1.52030        0.84450       -6.17460
C         -1.76710        2.17780       -5.87140
N         -2.59290        2.68470       -4.85850
C         -3.51900        3.65710       -5.27750
C         -3.69450        4.85590       -4.59150
C         -4.60090        5.78970       -5.05080
C         -5.34350        5.56870       -6.20500
C         -6.29500        6.60870       -6.71180
C         -5.15450        4.37520       -6.88970
C         -4.25890        3.42790       -6.43480
C         -2.19900        2.58950       -3.52240
C         -0.87850        2.29880       -3.17950
C         -0.52240        2.12620       -1.85720
C         -1.45700        2.25460       -0.83740
C         -1.05460        2.06380        0.59380
C         -2.76470        2.57250       -1.18380
C         -3.13960        2.72870       -2.50210
C         -1.07600        3.03960       -6.74870
S         -0.92180        4.75190       -6.80520
C          0.26900        4.62050       -8.10990
C          0.55890        3.27530       -8.42690
N          1.57600        2.82170       -9.22150
C          2.76810        3.53770       -9.39430
C          3.40390        3.54880      -10.63510
C          4.55090        4.29510      -10.82530
C          5.09570        5.05260       -9.79760
C          6.30450        5.90770      -10.01420
C          4.48380        4.99670       -8.54770
C          3.34160        4.25150       -8.34250
C          1.43110        1.59360       -9.89870
C          0.24250        1.27980      -10.54770
C          0.14740        0.11670      -11.28720
C          1.22220       -0.75510      -11.39690
C          1.15680       -1.97260      -12.26660
C          2.39220       -0.45160      -10.70760
C          2.50140        0.70530       -9.96430
C         -0.26060        2.40390       -7.67230
S         -0.38180        0.68000       -7.51440
C          0.80480        5.82700       -8.56380
C          1.46350        6.04800       -9.75380
C          1.24330        5.27590      -10.98570
O          0.48160        4.33910      -11.14290
C          2.03130        5.96460      -12.03360
C          2.15320        5.60390      -13.37220
C          2.98080        6.42570      -14.10150
C          3.61880        7.54190      -13.54820
C          3.49800        7.91650      -12.23130
C          2.68080        7.07900      -11.46930
C          2.36070        7.12900      -10.04520
C          2.95700        7.94570       -9.11410
C          3.92820        8.91880       -9.40980
N          4.74000        9.71610       -9.57250
C          2.74210        7.84790       -7.72530
N          2.64530        7.80270       -6.58110
C          4.29260        7.90510      -14.84850
C          5.79020        7.55120      -14.96520
C          6.05170        7.56310      -16.45370
C          5.45510        6.49940      -16.97630
C          4.78050        5.75050      -15.84960
C          5.76930        6.03840      -14.71260
C          3.58890        6.65370      -15.46490
H          0.14220       -2.73500       16.06980
H          2.63310        1.42080       18.14680
H         -0.51910        3.36440       14.68740
H          0.99800        5.87520       16.48160
H          2.20900        6.23220       14.33570
H          3.02390        3.88030       13.53500
H          4.68060        2.90530       15.36780
H          4.88540        4.65600       17.29980
H          4.66390        6.39630       15.31680
H          3.52090        6.86790       16.59910
H          2.60290        4.91970       18.26170
H         -0.95990       -0.70860       12.95180
H         -3.36780       -0.42100       11.90660
H         -3.55830        2.00190       11.55000
H         -3.23780        3.86050        9.77570
H         -1.70990        3.85260        8.88260
H         -0.46420        3.95260       11.05480
H         -1.99960        3.98090       11.92760
H         -1.55910        5.32770       10.87340
H         -0.67630        1.76370        8.41280
H         -0.49200       -0.65990        8.75900
H         -3.00030       -6.19860       13.31230
H         -2.90980       -8.58110       13.89110
H         -1.26780      -11.14710       11.81540
H         -2.40680      -10.86740       13.14090
H         -0.51580      -10.17160       14.61440
H         -0.27290      -11.81010       13.99840
H          0.61890      -10.45560       13.29560
H         -0.18230       -9.26150       10.68220
H         -0.24130       -6.87670       10.12340
H         -2.23780       -6.38150        8.89060
H          0.07280       -6.24740        7.26670
H          1.19740       -8.21790        8.23610
H          0.21960      -10.45960        7.96140
H         -1.70370      -11.82240        7.38520
H         -3.12190      -11.09710        6.61430
H         -1.87950      -11.00180        4.44320
H         -1.99620      -12.65720        5.05170
H         -0.48530      -11.75590        5.21350
H         -3.00380       -8.77770        5.73350
H         -3.05280       -0.76060       -8.24000
H         -2.65150       -1.63040      -10.51030
H         -1.02140       -3.43610      -10.87200
H          0.38730       -5.47330       -8.31090
H          0.47330       -5.06310      -10.02820
H          2.09440       -3.76410       -7.78080
H          2.14190       -3.24960       -9.46160
H          2.71410       -4.86400       -9.01530
H         -0.18980       -3.52250       -6.69170
H         -4.05860       -2.38150        2.56240
H         -4.71150       -2.61680        0.91850
H         -6.09860       -4.51620        1.75100
H         -5.54440       -4.18500        3.39600
H         -6.49680       -2.98010        2.53080
H         -2.09880       -1.08970       -1.03040
H         -2.76660       -1.85860        0.41300
H         -4.06500        0.15990       -0.13730
H         -5.11020       -1.21750       -0.50880
H         -4.27500       -0.36510       -1.80290
H         -3.10790        5.05960       -3.70850
H         -4.72360        6.71660       -4.50920
H         -7.06460        6.16190       -7.33670
H         -5.75630        7.34320       -7.31160
H         -6.76990        7.13480       -5.88680
H         -5.71800        4.18170       -7.79120
H         -4.12520        2.50190       -6.97580
H         -0.13350        2.20030       -3.95550
H          0.50360        1.89130       -1.61220
H         -0.46300        2.91290        0.93630
H         -0.44500        1.16870        0.70590
H         -1.92760        1.97670        1.23640
H         -3.50810        2.69220       -0.40830
H         -4.16740        2.94390       -2.75210
H          2.98230        2.98330      -11.45210
H          5.01820        4.30030      -11.79960
H          6.60170        5.90360      -11.05970
H          6.10360        6.93570       -9.71410
H          7.13850        5.54650       -9.41380
H          4.90400        5.55570       -7.72410
H          2.88620        4.22990       -7.36380
H         -0.57810        1.97890      -10.51340
H         -0.77120       -0.09970      -11.81180
H          1.89100       -1.89780      -13.06890
H          0.17120       -2.08040      -12.71120
H          1.38550       -2.86910      -11.69310
H          3.23590       -1.12450      -10.76860
H          3.42070        0.93680       -9.44600
H          0.65950        6.67070       -7.89900
H          1.63610        4.74180      -13.76440
H          3.98470        8.78400      -11.81760
H          4.05390        8.88730      -15.25180
H          6.44960        8.15380      -14.34630
H          6.57750        8.34840      -16.96450
H          5.38300        6.21930      -18.01100
H          4.52290        4.71150      -16.03860
H          5.39970        5.76330      -13.72640
H          6.74100        5.57700      -14.88310
H          2.88600        6.80130      -16.28290
