205

C         -2.96490        6.48150       -0.02590
C         -2.60010        6.49490       -1.34860
C         -1.34880        7.00010       -1.95390
O         -0.49900        7.71920       -1.46370
C         -1.32120        6.47360       -3.33060
C         -0.29990        6.64130       -4.26340
C         -0.53350        6.02040       -5.46650
C         -1.69850        5.28480       -5.72300
C         -2.72000        5.12630       -4.81630
C         -2.50170        5.75010       -3.58320
C         -3.34520        5.80960       -2.39130
C         -4.61180        5.28680       -2.30130
C         -5.22120        4.50500       -3.30250
N         -5.76500        3.82500       -4.05290
C         -5.49830        5.44510       -1.21510
N         -6.29980        5.54750       -0.39820
C         -1.26470        4.93810       -7.12640
C         -1.93640        5.72790       -8.26820
C         -1.00060        5.53570       -9.43950
C          0.09720        6.24080       -9.19850
C         -0.07790        6.92170       -7.85990
C         -1.59100        7.17390       -7.88860
C          0.02920        5.76570       -6.84250
C         -2.23050        6.81690        1.12610
C         -1.01530        7.44690        1.31970
C         -0.51560        7.30520        2.61210
S          1.01250        7.95380        3.18590
C          2.05030        7.85260        1.68390
C          2.22950        6.42400        1.21300
C         -1.35670        6.58850        3.46330
S         -2.83000        6.16280        2.64860
C         -1.02360        5.98470        4.70600
C         -1.88900        5.47100        5.66330
C         -3.28560        5.88400        5.76050
C         -4.28680        4.97050        6.08080
C         -5.60430        5.38370        6.12940
C         -5.93780        6.69870        5.85560
C         -4.95130        7.62800        5.54880
C         -5.30070        9.04410        5.19350
C         -5.32860        9.21120        3.67260
C         -3.63060        7.21170        5.51480
C         -1.24490        4.51210        6.47030
S         -1.81900        3.36600        7.66570
C         -0.29930        2.53540        7.57760
C          0.24750        1.28140        7.90540
C         -0.25650        0.20750        8.67250
C          0.39490       -1.07110        8.59460
N         -0.19510       -1.98440        9.34770
S         -1.45630       -1.29900       10.09640
N         -1.30690        0.19000        9.47630
C          1.45720       -1.23550        7.67660
C          1.95480       -2.39420        7.05430
S          1.57270       -4.08720        6.95780
C          2.44000       -4.17420        5.43680
C          2.37290       -5.09890        4.37190
C          1.55650       -6.31570        4.46460
C          0.40150       -6.43930        3.70060
C         -0.41960       -7.53910        3.87390
C         -0.09000       -8.51760        4.79390
C          1.06440       -8.41010        5.55930
C          1.44690       -9.49930        6.51800
C          2.24070      -10.58600        5.78980
C          1.87620       -7.29810        5.39290
C          2.99350       -4.60740        3.24060
S          3.74200       -3.03690        3.51620
C          3.08440       -2.98080        5.11140
C          2.80260       -1.96350        6.03050
N          2.90440       -0.60080        6.04120
C          2.02980       -0.12040        6.99880
C          1.47770        1.17260        7.19620
N          1.72950        2.38280        6.56200
C          0.62590        3.17390        6.74950
C          0.09640        4.31090        6.13330
S          0.62500        5.38380        4.88950
C          2.98970        3.00780        6.21060
C          4.04050        2.80030        7.29650
C          3.57940        0.06570        4.95410
C          2.60420        0.48510        3.85600
C          2.89730       -4.98870        1.86780
C          3.05640       -4.13390        0.80580
C          2.54110       -4.79820       -0.32820
C          2.30020       -4.36050       -1.63410
C          2.70500       -3.04520       -2.14250
C          3.43380       -2.96320       -3.32510
C          3.81120       -1.72580       -3.80530
F          4.53030       -1.67480       -4.94080
C          3.48250       -0.52930       -3.17400
C          3.90070        0.79620       -3.73540
C          5.37280        1.08070       -3.43120
C          2.76040       -0.65810       -1.99460
F          2.40870        0.46080       -1.32060
C          2.37300       -1.87550       -1.46880
C          1.58480       -5.26370       -2.40100
C          1.25360       -6.58170       -1.98670
C          1.60440       -7.06090       -0.70380
C          1.40220       -8.45450       -0.31280
C          1.11300       -8.81460        1.00200
C          0.95900      -10.14780        1.32080
C          1.08250      -11.18110        0.39790
C          0.94920      -12.62170        0.79190
C          2.27300      -13.14940        1.35050
C          1.39230      -10.78290       -0.89750
C          1.55000       -9.46310       -1.26570
F          1.54560      -11.73080       -1.84540
F          0.66580      -10.47340        2.59690
C          2.15820       -6.09200        0.12670
O          2.40210       -6.19140        1.46140
C          0.43000       -7.08480       -3.02550
C          0.28030       -6.07290       -3.95080
O          1.00750       -4.97920       -3.58510
C         -0.67400       -5.97210       -4.99970
C         -1.06570       -4.83430       -5.62770
C         -2.44250       -4.72830       -6.20170
O         -3.14210       -5.63810       -6.57840
C         -2.77730       -3.29250       -6.10650
C         -4.02110       -2.69480       -6.30770
C         -4.04720       -1.34430       -6.04880
C         -2.92190       -0.63390       -5.60520
C         -1.68380       -1.20210       -5.42230
C         -1.63550       -2.57010       -5.69550
C         -0.51110       -3.49460       -5.60930
C          0.81020       -3.16890       -5.73940
C          1.80910       -4.15020       -5.91830
N          2.62560       -4.93050       -6.11970
C          1.27310       -1.84160       -5.81500
N          1.67770       -0.76810       -5.86300
C         -3.68260        0.66210       -5.49530
C         -3.46480        1.72300       -6.60000
C         -3.05710        0.97090       -7.84240
C         -4.11860        0.30460       -8.27680
C         -5.26200        0.59540       -7.33650
C         -4.92880        2.04320       -6.93920
C         -4.93200       -0.12240       -6.00390
H         -3.91570        6.01510        0.20360
H          0.58270        7.21230       -4.02090
H         -3.61470        4.56810       -5.03430
H         -1.15900        3.87810       -7.34850
H         -2.98340        5.48780       -8.43260
H         -1.20390        4.88320      -10.26820
H          0.99460        6.29560       -9.78630
H          0.56800        7.77130       -7.65490
H         -2.00620        7.49380       -6.93460
H         -1.87510        7.88240       -8.66480
H          0.99060        5.25670       -6.87660
H         -0.51120        7.96430        0.52570
H          2.99840        8.28790        1.99890
H          1.60800        8.48180        0.91340
H          2.63060        5.80580        2.01350
H          1.27940        6.00280        0.89040
H          2.91700        6.40040        0.37040
H         -4.03480        3.93840        6.26850
H         -6.37830        4.67160        6.37350
H         -6.97220        7.00880        5.88310
H         -6.27870        9.30100        5.60400
H         -4.56080        9.72680        5.61700
H         -5.60030       10.22990        3.40640
H         -6.05220        8.53040        3.23000
H         -4.35130        8.99110        3.24830
H         -2.85130        7.93030        5.30050
H          0.13790       -5.66460        2.99450
H         -1.32320       -7.63080        3.28860
H         -0.73400       -9.37480        4.91960
H          0.54750       -9.94140        6.95080
H          2.05120       -9.08750        7.32860
H          3.15670      -10.17090        5.37490
H          1.65100      -10.99590        4.97390
H          2.50140      -11.39030        6.47380
H          2.77120       -7.19080        5.98950
H          3.34620        2.66300        5.23830
H          2.78200        4.07640        6.10910
H          3.69600        3.22710        8.23580
H          4.23900        1.74320        7.45870
H          4.96700        3.29180        7.01150
H          4.15260        0.90940        5.33420
H          4.29320       -0.65300        4.54240
H          2.12710       -0.39550        3.43320
H          1.82790        1.13820        4.24690
H          3.13530        1.00170        3.06130
H          3.44080       -3.13590        0.84570
H          3.71560       -3.85230       -3.86640
H          3.74910        0.77740       -4.81600
H          3.27800        1.58280       -3.30740
H          5.54380        1.09740       -2.35660
H          6.00670        0.31580       -3.87260
H          5.65790        2.04540       -3.84300
H          1.79520       -1.90230       -0.55870
H          1.00140       -8.07290        1.77480
H          0.66060      -13.21150       -0.07910
H          0.17320      -12.71680        1.55380
H          3.05890      -13.06810        0.60300
H          2.56840      -12.58040        2.22920
H          2.16850      -14.19390        1.63210
H          1.82240       -9.23220       -2.28240
H         -0.06000       -8.03620       -3.06280
H         -1.27310       -6.85710       -5.17230
H         -4.87080       -3.27720       -6.62800
H         -0.82340       -0.65460       -5.07220
H         -3.73210        1.10460       -4.50250
H         -2.82460        2.54850       -6.30350
H         -2.05550        0.95170       -8.23180
H         -4.18100       -0.37970       -9.10280
H         -6.25980        0.39800       -7.71870
H         -5.49950        2.40610       -6.08660
H         -5.02480        2.73820       -7.77240
H         -5.79590       -0.18410       -5.34550
