170

C          3.30670      -10.56100        2.30800
C          3.91610      -10.68210        3.52800
C          4.60710       -9.62230        4.29810
O          4.96870       -8.52160        3.93020
C          4.73710      -10.14520        5.67020
C          5.26250       -9.46570        6.76740
C          5.23910      -10.18880        7.93490
C          4.72660      -11.49120        8.00830
C          4.21550      -12.17610        6.93130
C          4.23290      -11.45860        5.73080
C          3.78220      -11.83920        4.39520
C          3.37790      -13.09330        4.01650
C          3.05150      -13.47970        2.69920
N          2.79490      -13.88750        1.65640
C          3.27720      -14.19430        4.89180
N          3.16820      -15.12630        5.55390
C          4.99360      -11.59730        9.48950
C          3.77660      -11.42470       10.42350
C          4.39390      -11.09940       11.76470
C          4.88630       -9.86930       11.69480
C          4.61020       -9.34250       10.30520
C          3.26970      -10.03310       10.02280
C          5.57140      -10.14810        9.40560
C          3.36480       -9.48850        1.39740
C          4.28150       -8.46970        1.23810
C          3.92080       -7.54440        0.26270
S          4.90260       -6.13150       -0.11840
C          5.09350       -5.42090        1.55850
C          3.78060       -4.88090        2.08670
C          2.73070       -7.85110       -0.39370
S          2.07550       -9.34200        0.21130
C          2.00560       -7.03360       -1.29830
C          0.93470       -7.38110       -2.11160
C          0.54710       -8.75460       -2.43000
C         -0.79320       -9.12790       -2.42220
C         -1.14580      -10.42760       -2.73380
C         -0.17390      -11.35780       -3.05510
C          1.16930      -10.99960       -3.07950
C          2.22110      -11.99580       -3.47300
C          2.41430      -12.00050       -4.99060
C          1.51650       -9.69370       -2.77490
C          0.29300       -6.24100       -2.62840
S         -1.11200       -6.02030       -3.64950
C         -0.93050       -4.30440       -3.48990
C         -1.60700       -3.12150       -3.82630
C         -2.83850       -2.92010       -4.48650
C         -3.39230       -1.59820       -4.53160
N         -4.57540       -1.56470       -5.12490
S         -4.95600       -3.06730       -5.59340
N         -3.62870       -3.81940       -5.05180
C         -2.65000       -0.52740       -3.98840
C         -2.94050        0.84360       -3.90280
S         -4.23050        1.94410       -4.25510
C         -3.27580        3.24610       -3.58080
C         -3.53160        4.61740       -3.38280
C         -4.75070        5.28740       -3.83840
C         -5.99790        4.71730       -3.59960
C         -7.14170        5.36350       -4.03010
C         -7.05340        6.57240       -4.69820
C         -5.81510        7.14550       -4.96330
C         -5.70410        8.47720       -5.64740
C         -5.47630        9.58790       -4.61950
C         -4.67140        6.48990       -4.53490
C         -2.46650        5.23920       -2.74790
S         -1.12590        4.14010       -2.45650
C         -2.01750        2.82920       -3.13880
C         -1.82810        1.45560       -3.32210
N         -0.86680        0.52370       -3.03780
C         -1.35810       -0.71680       -3.41800
C         -0.86930       -2.04110       -3.25880
N          0.22630       -2.56980       -2.59700
C          0.17340       -3.93070       -2.72020
C          0.87500       -5.03600       -2.22850
S          2.26610       -5.29310       -1.24070
C          1.10950       -1.98930       -1.61230
C          0.34670       -1.55760       -0.36180
C          0.49190        0.96820       -2.81550
C          1.39240        0.62790       -4.00030
C         -2.35860        6.55300       -2.21210
C         -3.38320        7.42500       -1.90010
C         -3.01790        8.65320       -1.33680
C         -4.02860        9.63340       -0.84210
C         -5.32590        8.99390       -0.35750
C         -1.64080        8.82190       -1.17900
Se        -0.69650        7.27350       -1.72860
C         -0.89330        9.85190       -0.57960
C         -1.16620       11.19550       -0.53950
C         -2.00110       11.92970       -1.50880
O         -2.63700       11.47220       -2.43960
C         -1.81150       13.36120       -1.19930
C         -2.40180       14.44250       -1.84820
C         -2.03950       15.66720       -1.33990
C         -1.15260       15.80790       -0.26470
C         -0.55630       14.75030        0.37930
C         -0.91050       13.49590       -0.12440
C         -0.49650       12.16270        0.30350
C          0.31310       11.87940        1.37480
C          0.60440       10.58270        1.84700
N          0.86480        9.56340        2.30900
C          0.94890       12.84890        2.17640
N          1.50870       13.57720        2.86580
C         -1.24190       17.31330       -0.28310
C         -0.06130       18.09960       -0.90370
C          0.58630       17.17750       -1.90660
C         -0.24790       17.04130       -2.92860
C         -1.47410       17.87040       -2.63610
C         -0.83700       19.02840       -1.85130
C         -2.22600       17.15700       -1.48500
H          2.62410      -11.35050        2.01550
H          5.64420       -8.46170        6.66620
H          3.82670      -13.17800        7.00350
H          5.65390      -12.40580        9.79690
H          3.06390      -12.24430       10.39850
H          4.45610      -11.79490       12.58090
H          5.44210       -9.33190       12.44060
H          4.65700       -8.26490       10.17200
H          2.94250       -9.96060        8.98720
H          2.47760       -9.67870       10.68040
H          6.61970       -9.99070        9.65250
H          5.18740       -8.40550        1.80840
H          5.49740       -6.19120        2.21220
H          5.82890       -4.62770        1.43080
H          3.37800       -4.12660        1.41450
H          3.93480       -4.43500        3.06680
H          3.05250       -5.68350        2.18560
H         -1.55040       -8.40640       -2.15530
H         -2.18620      -10.71650       -2.72180
H         -0.45690      -12.37370       -3.28920
H          1.92430      -12.99300       -3.14330
H          3.16700      -11.74480       -2.98920
H          2.72240      -11.01610       -5.33650
H          1.48440      -12.26230       -5.49060
H          3.17640      -12.72260       -5.27390
H          2.55500       -9.39420       -2.81120
H         -6.06810        3.78280       -3.06430
H         -8.10880        4.92270       -3.83870
H         -7.95350        7.07400       -5.02320
H         -4.86770        8.46290       -6.34920
H         -6.61790        8.68300       -6.20800
H         -5.41680       10.55470       -5.11290
H         -4.54840        9.42410       -4.07680
H         -6.29600        9.61510       -3.90420
H         -3.70140        6.91760       -4.74440
H          1.67820       -1.16740       -2.04480
H          1.82810       -2.76780       -1.34450
H          1.02400       -1.08430        0.34400
H         -0.09990       -2.42610        0.11690
H         -0.45040       -0.86040       -0.60920
H          0.88420        0.56840       -1.88050
H          0.44620        2.05400       -2.70100
H          1.02730        1.12320       -4.89730
H          1.40950       -0.44300       -4.18970
H          2.40580        0.96830       -3.80530
H         -4.41000        7.15040       -2.06070
H         -4.25050       10.33420       -1.65460
H         -3.58370       10.22180       -0.03430
H         -5.95190        9.75140        0.10800
H         -5.12210        8.21750        0.37660
H         -5.88420        8.55680       -1.18140
H          0.03240        9.52400       -0.11570
H         -3.08380       14.29020       -2.67020
H          0.12950       14.87400        1.20070
H         -1.61850       17.77820        0.62600
H          0.60260       18.56350       -0.17920
H          1.52930       16.68790       -1.74800
H         -0.14120       16.41470       -3.79470
H         -2.09520       18.12670       -3.49060
H         -1.56430       19.65890       -1.34130
H         -0.18290       19.64480       -2.46630
H         -3.24270       17.52630       -1.36300
