
  xtb     02182223553D
 energy: -347.669085045295 gnorm: 0.000527575988 xtb: 6.4.1 (unknown)
202224  0     0  0            999 V2000
   -4.3590   10.9669   -4.7221 C   0  0  0  0  0  0  0  0  0  0  0  0
   -5.2119   11.6782   -3.9279 C   0  0  0  0  0  0  0  0  0  0  0  0
   -5.4179   11.4906   -2.4805 C   0  0  0  0  0  0  0  0  0  0  0  0
   -4.8488   10.7095   -1.7421 O   0  0  0  0  0  0  0  0  0  0  0  0
   -6.4666   12.4459   -2.0877 C   0  0  0  0  0  0  0  0  0  0  0  0
   -7.0116   12.6085   -0.8155 C   0  0  0  0  0  0  0  0  0  0  0  0
   -7.9883   13.5719   -0.7454 C   0  0  0  0  0  0  0  0  0  0  0  0
   -8.3938   14.3194   -1.8595 C   0  0  0  0  0  0  0  0  0  0  0  0
   -7.8667   14.1665   -3.1196 C   0  0  0  0  0  0  0  0  0  0  0  0
   -6.8687   13.1904   -3.2147 C   0  0  0  0  0  0  0  0  0  0  0  0
   -6.0987   12.7403   -4.3724 C   0  0  0  0  0  0  0  0  0  0  0  0
   -6.2135   13.2436   -5.6427 C   0  0  0  0  0  0  0  0  0  0  0  0
   -5.4933   12.8127   -6.7770 C   0  0  0  0  0  0  0  0  0  0  0  0
   -4.9632   12.5296   -7.7565 N   0  0  0  0  0  0  0  0  0  0  0  0
   -7.0856   14.2896   -6.0126 C   0  0  0  0  0  0  0  0  0  0  0  0
   -7.7639   15.1347   -6.3922 N   0  0  0  0  0  0  0  0  0  0  0  0
   -9.4103   15.1011   -1.0648 C   0  0  0  0  0  0  0  0  0  0  0  0
   -9.0200   16.5407   -0.6681 C   0  0  0  0  0  0  0  0  0  0  0  0
   -9.9590   16.8681    0.4706 C   0  0  0  0  0  0  0  0  0  0  0  0
   -9.5772   16.1590    1.5252 C   0  0  0  0  0  0  0  0  0  0  0  0
   -8.3736   15.3405    1.1172 C   0  0  0  0  0  0  0  0  0  0  0  0
   -7.7236   16.3065    0.1183 C   0  0  0  0  0  0  0  0  0  0  0  0
   -8.9594   14.2661    0.1766 C   0  0  0  0  0  0  0  0  0  0  0  0
   -3.4843    9.9042   -4.4117 C   0  0  0  0  0  0  0  0  0  0  0  0
   -2.7487    9.2651   -5.3927 C   0  0  0  0  0  0  0  0  0  0  0  0
   -1.9643    8.2036   -4.9200 C   0  0  0  0  0  0  0  0  0  0  0  0
   -1.1006    7.3628   -5.6589 C   0  0  0  0  0  0  0  0  0  0  0  0
   -0.9483    7.4849   -7.0966 C   0  0  0  0  0  0  0  0  0  0  0  0
   -2.3325    7.5212   -8.1528 S   0  0  0  0  0  0  0  0  0  0  0  0
   -1.3506    7.5776   -9.5753 C   0  0  0  0  0  0  0  0  0  0  0  0
   -1.9570    7.6908  -10.9301 C   0  0  0  0  0  0  0  0  0  0  0  0
   -2.1725    9.1587  -11.3082 C   0  0  0  0  0  0  0  0  0  0  0  0
   -0.0305    7.5793   -9.2366 C   0  0  0  0  0  0  0  0  0  0  0  0
    1.2494    7.6251  -10.3769 Cl  0  0  0  0  0  0  0  0  0  0  0  0
    0.2024    7.5248   -7.8369 C   0  0  0  0  0  0  0  0  0  0  0  0
    1.7794    7.6101   -7.1774 Cl  0  0  0  0  0  0  0  0  0  0  0  0
   -0.4324    6.3838   -4.9442 C   0  0  0  0  0  0  0  0  0  0  0  0
   -0.5447    6.2302   -3.5359 C   0  0  0  0  0  0  0  0  0  0  0  0
   -1.3719    7.0942   -2.7921 C   0  0  0  0  0  0  0  0  0  0  0  0
   -1.4797    7.0168   -1.3501 C   0  0  0  0  0  0  0  0  0  0  0  0
   -2.5828    7.2233   -0.5686 C   0  0  0  0  0  0  0  0  0  0  0  0
   -2.3166    7.1313    0.8108 C   0  0  0  0  0  0  0  0  0  0  0  0
   -1.0127    6.8667    1.0976 C   0  0  0  0  0  0  0  0  0  0  0  0
   -0.3570    6.7591    2.4310 C   0  0  0  0  0  0  0  0  0  0  0  0
    0.3810    8.0524    2.7854 C   0  0  0  0  0  0  0  0  0  0  0  0
   -0.0805    6.7141   -0.3536 S   0  0  0  0  0  0  0  0  0  0  0  0
   -2.0875    8.0492   -3.5141 C   0  0  0  0  0  0  0  0  0  0  0  0
   -3.1962    9.2047   -2.8336 S   0  0  0  0  0  0  0  0  0  0  0  0
    0.1867    5.1099   -3.0821 C   0  0  0  0  0  0  0  0  0  0  0  0
    0.8373    4.4294   -4.0744 C   0  0  0  0  0  0  0  0  0  0  0  0
    0.5761    5.1500   -5.6472 S   0  0  0  0  0  0  0  0  0  0  0  0
    1.5688    3.2188   -3.9265 C   0  0  0  0  0  0  0  0  0  0  0  0
    2.3368    2.5348   -4.8500 C   0  0  0  0  0  0  0  0  0  0  0  0
    2.7310    3.0471   -6.1656 C   0  0  0  0  0  0  0  0  0  0  0  0
    3.3875    4.2703   -6.2773 C   0  0  0  0  0  0  0  0  0  0  0  0
    3.7716    4.7318   -7.5212 C   0  0  0  0  0  0  0  0  0  0  0  0
    3.5074    3.9832   -8.6548 C   0  0  0  0  0  0  0  0  0  0  0  0
    2.8680    2.7541   -8.5584 C   0  0  0  0  0  0  0  0  0  0  0  0
    2.6396    1.9048   -9.7751 C   0  0  0  0  0  0  0  0  0  0  0  0
    3.7869    0.9067   -9.9446 C   0  0  0  0  0  0  0  0  0  0  0  0
    2.4901    2.2921   -7.3063 C   0  0  0  0  0  0  0  0  0  0  0  0
    2.7354    1.2789   -4.3538 C   0  0  0  0  0  0  0  0  0  0  0  0
    3.6428   -0.0351   -5.0626 S   0  0  0  0  0  0  0  0  0  0  0  0
    3.4244   -0.9413   -3.6028 C   0  0  0  0  0  0  0  0  0  0  0  0
    3.6581   -2.2365   -3.1105 C   0  0  0  0  0  0  0  0  0  0  0  0
    4.1367   -3.4097   -3.7360 C   0  0  0  0  0  0  0  0  0  0  0  0
    4.0035   -4.6692   -3.0539 C   0  0  0  0  0  0  0  0  0  0  0  0
    4.4058   -5.6890   -3.7956 N   0  0  0  0  0  0  0  0  0  0  0  0
    4.9177   -5.1184   -5.2216 S   0  0  0  0  0  0  0  0  0  0  0  0
    4.6390   -3.5462   -4.9527 N   0  0  0  0  0  0  0  0  0  0  0  0
    3.5269   -4.6827   -1.7244 C   0  0  0  0  0  0  0  0  0  0  0  0
    3.3302   -5.7219   -0.7955 C   0  0  0  0  0  0  0  0  0  0  0  0
    3.3941   -7.4507   -0.7183 S   0  0  0  0  0  0  0  0  0  0  0  0
    2.8894   -7.3782    0.9541 C   0  0  0  0  0  0  0  0  0  0  0  0
    2.6407   -8.3692    1.9300 C   0  0  0  0  0  0  0  0  0  0  0  0
    2.8840   -9.7938    1.7149 C   0  0  0  0  0  0  0  0  0  0  0  0
    3.5217  -10.5577    2.6896 C   0  0  0  0  0  0  0  0  0  0  0  0
    3.7915  -11.8912    2.4516 C   0  0  0  0  0  0  0  0  0  0  0  0
    3.4316  -12.4736    1.2474 C   0  0  0  0  0  0  0  0  0  0  0  0
    2.7919  -11.7267    0.2661 C   0  0  0  0  0  0  0  0  0  0  0  0
    2.4363  -12.3328   -1.0607 C   0  0  0  0  0  0  0  0  0  0  0  0
    3.5219  -12.0199   -2.0924 C   0  0  0  0  0  0  0  0  0  0  0  0
    2.5283  -10.3874    0.5096 C   0  0  0  0  0  0  0  0  0  0  0  0
    2.2514   -7.8058    3.1264 C   0  0  0  0  0  0  0  0  0  0  0  0
    2.2381   -6.0485    3.0722 S   0  0  0  0  0  0  0  0  0  0  0  0
    2.7100   -6.0734    1.4123 C   0  0  0  0  0  0  0  0  0  0  0  0
    2.9510   -5.1273    0.4093 C   0  0  0  0  0  0  0  0  0  0  0  0
    2.8866   -3.7635    0.2676 N   0  0  0  0  0  0  0  0  0  0  0  0
    3.2027   -3.4751   -1.0509 C   0  0  0  0  0  0  0  0  0  0  0  0
    3.1275   -2.2711   -1.7921 C   0  0  0  0  0  0  0  0  0  0  0  0
    2.5509   -1.0470   -1.5131 N   0  0  0  0  0  0  0  0  0  0  0  0
    2.7214   -0.2479   -2.6124 C   0  0  0  0  0  0  0  0  0  0  0  0
    2.3122    1.0178   -3.0489 C   0  0  0  0  0  0  0  0  0  0  0  0
    1.3867    2.3331   -2.4169 S   0  0  0  0  0  0  0  0  0  0  0  0
    1.5929   -0.6890   -0.4913 C   0  0  0  0  0  0  0  0  0  0  0  0
    2.1245    0.3980    0.4429 C   0  0  0  0  0  0  0  0  0  0  0  0
    3.1033   -2.9254    1.4273 C   0  0  0  0  0  0  0  0  0  0  0  0
    4.4708   -3.1941    2.0561 C   0  0  0  0  0  0  0  0  0  0  0  0
    1.7913   -8.4330    4.3435 C   0  0  0  0  0  0  0  0  0  0  0  0
    2.1705   -7.8962    5.5714 C   0  0  0  0  0  0  0  0  0  0  0  0
    1.7165   -8.4186    6.7697 C   0  0  0  0  0  0  0  0  0  0  0  0
    2.1197   -8.0057    7.9909 O   0  0  0  0  0  0  0  0  0  0  0  0
    2.7106   -6.7289    8.1624 C   0  0  0  0  0  0  0  0  0  0  0  0
    1.6959   -5.6077    7.9774 C   0  0  0  0  0  0  0  0  0  0  0  0
    0.7808   -9.4936    6.7409 C   0  0  0  0  0  0  0  0  0  0  0  0
    0.4017  -10.0235    5.4979 C   0  0  0  0  0  0  0  0  0  0  0  0
    0.8905   -9.5279    4.3080 C   0  0  0  0  0  0  0  0  0  0  0  0
    0.5130   -9.9444    3.0765 O   0  0  0  0  0  0  0  0  0  0  0  0
   -0.4198  -11.0018    2.9313 C   0  0  0  0  0  0  0  0  0  0  0  0
    0.1766  -12.3808    3.1856 C   0  0  0  0  0  0  0  0  0  0  0  0
    0.1932   -9.8547    7.9831 C   0  0  0  0  0  0  0  0  0  0  0  0
   -0.6854  -10.8292    8.3749 C   0  0  0  0  0  0  0  0  0  0  0  0
   -1.0933  -12.0773    7.6938 C   0  0  0  0  0  0  0  0  0  0  0  0
   -0.8555  -12.4474    6.5621 O   0  0  0  0  0  0  0  0  0  0  0  0
   -1.8479  -12.8536    8.7033 C   0  0  0  0  0  0  0  0  0  0  0  0
   -2.4078  -14.1061    8.5767 C   0  0  0  0  0  0  0  0  0  0  0  0
   -3.0776  -14.6449    9.6765 C   0  0  0  0  0  0  0  0  0  0  0  0
   -3.6889  -15.9917    9.5312 C   0  0  0  0  0  0  0  0  0  0  0  0
   -3.6281  -16.6569    8.5273 O   0  0  0  0  0  0  0  0  0  0  0  0
   -4.3240  -16.3904   10.6418 O   0  0  0  0  0  0  0  0  0  0  0  0
   -4.9369  -17.6696   10.5789 C   0  0  0  0  0  0  0  0  0  0  0  0
   -3.1610  -13.9267   10.8688 C   0  0  0  0  0  0  0  0  0  0  0  0
   -2.5969  -12.6662   10.9922 C   0  0  0  0  0  0  0  0  0  0  0  0
   -1.9386  -12.1207    9.8994 C   0  0  0  0  0  0  0  0  0  0  0  0
   -1.2783  -10.8334    9.7026 C   0  0  0  0  0  0  0  0  0  0  0  0
   -1.3200   -9.7831   10.5841 C   0  0  0  0  0  0  0  0  0  0  0  0
   -0.8350   -8.4782   10.3474 C   0  0  0  0  0  0  0  0  0  0  0  0
   -0.5204   -7.3774   10.2447 N   0  0  0  0  0  0  0  0  0  0  0  0
   -1.9200   -9.8475   11.8592 C   0  0  0  0  0  0  0  0  0  0  0  0
   -2.3809   -9.8314   12.9108 N   0  0  0  0  0  0  0  0  0  0  0  0
   -4.3403   11.2235   -5.7744 H   0  0  0  0  0  0  0  0  0  0  0  0
   -6.6719   12.0063    0.0125 H   0  0  0  0  0  0  0  0  0  0  0  0
   -8.1978   14.7444   -3.9659 H   0  0  0  0  0  0  0  0  0  0  0  0
  -10.4414   15.0180   -1.4028 H   0  0  0  0  0  0  0  0  0  0  0  0
   -8.9857   17.2467   -1.4931 H   0  0  0  0  0  0  0  0  0  0  0  0
  -10.8096   17.5175    0.3788 H   0  0  0  0  0  0  0  0  0  0  0  0
  -10.0454   16.0977    2.4902 H   0  0  0  0  0  0  0  0  0  0  0  0
   -7.7504   14.9534    1.9189 H   0  0  0  0  0  0  0  0  0  0  0  0
   -6.9215   15.8639   -0.4695 H   0  0  0  0  0  0  0  0  0  0  0  0
   -7.3643   17.2149    0.5989 H   0  0  0  0  0  0  0  0  0  0  0  0
   -9.6900   13.6244    0.6656 H   0  0  0  0  0  0  0  0  0  0  0  0
   -2.7904    9.5662   -6.4242 H   0  0  0  0  0  0  0  0  0  0  0  0
   -2.9139    7.1665  -10.9443 H   0  0  0  0  0  0  0  0  0  0  0  0
   -1.2883    7.2214  -11.6543 H   0  0  0  0  0  0  0  0  0  0  0  0
   -1.2243    9.6904  -11.3084 H   0  0  0  0  0  0  0  0  0  0  0  0
   -2.6105    9.2273  -12.3002 H   0  0  0  0  0  0  0  0  0  0  0  0
   -2.8410    9.6393  -10.5980 H   0  0  0  0  0  0  0  0  0  0  0  0
   -3.5639    7.4062   -0.9663 H   0  0  0  0  0  0  0  0  0  0  0  0
   -3.0710    7.2580    1.5669 H   0  0  0  0  0  0  0  0  0  0  0  0
   -1.1209    6.5549    3.1844 H   0  0  0  0  0  0  0  0  0  0  0  0
    0.3542    5.9297    2.4274 H   0  0  0  0  0  0  0  0  0  0  0  0
    0.8512    7.9639    3.7616 H   0  0  0  0  0  0  0  0  0  0  0  0
   -0.3134    8.8892    2.8067 H   0  0  0  0  0  0  0  0  0  0  0  0
    1.1504    8.2612    2.0454 H   0  0  0  0  0  0  0  0  0  0  0  0
    0.2215    4.7912   -2.0561 H   0  0  0  0  0  0  0  0  0  0  0  0
    3.6001    4.8476   -5.3892 H   0  0  0  0  0  0  0  0  0  0  0  0
    4.2804    5.6804   -7.6078 H   0  0  0  0  0  0  0  0  0  0  0  0
    3.8039    4.3553   -9.6250 H   0  0  0  0  0  0  0  0  0  0  0  0
    2.5746    2.5369  -10.6628 H   0  0  0  0  0  0  0  0  0  0  0  0
    1.6996    1.3582   -9.6741 H   0  0  0  0  0  0  0  0  0  0  0  0
    3.6224    0.2825  -10.8198 H   0  0  0  0  0  0  0  0  0  0  0  0
    3.8637    0.2663   -9.0687 H   0  0  0  0  0  0  0  0  0  0  0  0
    4.7308    1.4336  -10.0657 H   0  0  0  0  0  0  0  0  0  0  0  0
    1.9872    1.3397   -7.2157 H   0  0  0  0  0  0  0  0  0  0  0  0
    3.8135  -10.1013    3.6241 H   0  0  0  0  0  0  0  0  0  0  0  0
    4.2864  -12.4819    3.2086 H   0  0  0  0  0  0  0  0  0  0  0  0
    3.6468  -13.5177    1.0694 H   0  0  0  0  0  0  0  0  0  0  0  0
    2.3316  -13.4149   -0.9604 H   0  0  0  0  0  0  0  0  0  0  0  0
    1.4840  -11.9272   -1.4085 H   0  0  0  0  0  0  0  0  0  0  0  0
    4.4765  -12.4319   -1.7725 H   0  0  0  0  0  0  0  0  0  0  0  0
    3.2645  -12.4489   -3.0579 H   0  0  0  0  0  0  0  0  0  0  0  0
    3.6353  -10.9444   -2.2077 H   0  0  0  0  0  0  0  0  0  0  0  0
    2.0205   -9.8013   -0.2422 H   0  0  0  0  0  0  0  0  0  0  0  0
    1.3044   -1.5877    0.0546 H   0  0  0  0  0  0  0  0  0  0  0  0
    0.6980   -0.3037   -0.9938 H   0  0  0  0  0  0  0  0  0  0  0  0
    1.4206    0.5596    1.2544 H   0  0  0  0  0  0  0  0  0  0  0  0
    3.0914    0.1313    0.8640 H   0  0  0  0  0  0  0  0  0  0  0  0
    2.2433    1.3314   -0.1000 H   0  0  0  0  0  0  0  0  0  0  0  0
    2.3128   -3.1330    2.1556 H   0  0  0  0  0  0  0  0  0  0  0  0
    3.0600   -1.8836    1.1308 H   0  0  0  0  0  0  0  0  0  0  0  0
    5.2600   -3.0169    1.3282 H   0  0  0  0  0  0  0  0  0  0  0  0
    4.6194   -2.5299    2.9031 H   0  0  0  0  0  0  0  0  0  0  0  0
    4.5438   -4.2204    2.4049 H   0  0  0  0  0  0  0  0  0  0  0  0
    2.8549   -7.0616    5.5599 H   0  0  0  0  0  0  0  0  0  0  0  0
    3.5733   -6.6036    7.4974 H   0  0  0  0  0  0  0  0  0  0  0  0
    3.0689   -6.7436    9.1947 H   0  0  0  0  0  0  0  0  0  0  0  0
    0.8554   -5.7696    8.6480 H   0  0  0  0  0  0  0  0  0  0  0  0
    2.1580   -4.6526    8.2095 H   0  0  0  0  0  0  0  0  0  0  0  0
    1.3281   -5.5840    6.9537 H   0  0  0  0  0  0  0  0  0  0  0  0
   -0.3095  -10.8292    5.4982 H   0  0  0  0  0  0  0  0  0  0  0  0
   -1.2936  -10.8318    3.5716 H   0  0  0  0  0  0  0  0  0  0  0  0
   -0.7328  -10.9226    1.8861 H   0  0  0  0  0  0  0  0  0  0  0  0
   -0.5508  -13.1382    2.9076 H   0  0  0  0  0  0  0  0  0  0  0  0
    1.0729  -12.5105    2.5847 H   0  0  0  0  0  0  0  0  0  0  0  0
    0.4305  -12.5165    4.2325 H   0  0  0  0  0  0  0  0  0  0  0  0
    0.5005   -9.1822    8.7759 H   0  0  0  0  0  0  0  0  0  0  0  0
   -2.3391  -14.6631    7.6547 H   0  0  0  0  0  0  0  0  0  0  0  0
   -5.4968  -17.7847   11.5033 H   0  0  0  0  0  0  0  0  0  0  0  0
   -4.1770  -18.4491   10.4917 H   0  0  0  0  0  0  0  0  0  0  0  0
   -5.6013  -17.7297    9.7144 H   0  0  0  0  0  0  0  0  0  0  0  0
   -3.6771  -14.3651   11.7083 H   0  0  0  0  0  0  0  0  0  0  0  0
   -2.6734  -12.1357   11.9271 H   0  0  0  0  0  0  0  0  0  0  0  0
  1  2  2  0  0  0  0
  2  3  1  0  0  0  0
  3  4  2  0  0  0  0
  3  5  1  0  0  0  0
  5  6  2  0  0  0  0
  6  7  1  0  0  0  0
  7  8  2  0  0  0  0
  8  9  1  0  0  0  0
  9 10  2  0  0  0  0
 10 11  1  0  0  0  0
 11 12  2  0  0  0  0
 12 13  1  0  0  0  0
 13 14  3  0  0  0  0
 12 15  1  0  0  0  0
 15 16  3  0  0  0  0
  8 17  1  0  0  0  0
 17 18  1  0  0  0  0
 18 19  1  0  0  0  0
 19 20  2  0  0  0  0
 20 21  1  0  0  0  0
 21 22  1  0  0  0  0
 21 23  1  0  0  0  0
  1 24  1  0  0  0  0
 24 25  2  0  0  0  0
 25 26  1  0  0  0  0
 26 27  2  0  0  0  0
 27 28  1  0  0  0  0
 28 29  1  0  0  0  0
 29 30  1  0  0  0  0
 30 31  1  0  0  0  0
 31 32  1  0  0  0  0
 30 33  2  0  0  0  0
 33 34  1  0  0  0  0
 33 35  1  0  0  0  0
 35 36  1  0  0  0  0
 27 37  1  0  0  0  0
 37 38  2  0  0  0  0
 38 39  1  0  0  0  0
 39 40  1  0  0  0  0
 40 41  2  0  0  0  0
 41 42  1  0  0  0  0
 42 43  2  0  0  0  0
 43 44  1  0  0  0  0
 44 45  1  0  0  0  0
 43 46  1  0  0  0  0
 39 47  2  0  0  0  0
 47 48  1  0  0  0  0
 38 49  1  0  0  0  0
 49 50  2  0  0  0  0
 50 51  1  0  0  0  0
 50 52  1  0  0  0  0
 52 53  2  0  0  0  0
 53 54  1  0  0  0  0
 54 55  2  0  0  0  0
 55 56  1  0  0  0  0
 56 57  2  0  0  0  0
 57 58  1  0  0  0  0
 58 59  1  0  0  0  0
 59 60  1  0  0  0  0
 58 61  2  0  0  0  0
 53 62  1  0  0  0  0
 62 63  1  0  0  0  0
 63 64  1  0  0  0  0
 64 65  1  0  0  0  0
 65 66  1  0  0  0  0
 66 67  1  0  0  0  0
 67 68  2  0  0  0  0
 68 69  1  0  0  0  0
 69 70  1  0  0  0  0
 67 71  1  0  0  0  0
 71 72  1  0  0  0  0
 72 73  1  0  0  0  0
 73 74  1  0  0  0  0
 74 75  1  0  0  0  0
 75 76  1  0  0  0  0
 76 77  2  0  0  0  0
 77 78  1  0  0  0  0
 78 79  2  0  0  0  0
 79 80  1  0  0  0  0
 80 81  1  0  0  0  0
 81 82  1  0  0  0  0
 80 83  2  0  0  0  0
 75 84  2  0  0  0  0
 84 85  1  0  0  0  0
 85 86  1  0  0  0  0
 86 87  1  0  0  0  0
 87 88  1  0  0  0  0
 88 89  1  0  0  0  0
 89 90  1  0  0  0  0
 90 91  1  0  0  0  0
 91 92  1  0  0  0  0
 92 93  1  0  0  0  0
 93 94  1  0  0  0  0
 91 95  1  0  0  0  0
 95 96  1  0  0  0  0
 88 97  1  0  0  0  0
 97 98  1  0  0  0  0
 84 99  1  0  0  0  0
 99100  2  0  0  0  0
100101  1  0  0  0  0
101102  1  0  0  0  0
102103  1  0  0  0  0
103104  1  0  0  0  0
101105  2  0  0  0  0
105106  1  0  0  0  0
106107  2  0  0  0  0
107108  1  0  0  0  0
108109  1  0  0  0  0
109110  1  0  0  0  0
105111  1  0  0  0  0
111112  2  0  0  0  0
112113  1  0  0  0  0
113114  2  0  0  0  0
113115  1  0  0  0  0
115116  2  0  0  0  0
116117  1  0  0  0  0
117118  1  0  0  0  0
118119  2  0  0  0  0
118120  1  0  0  0  0
120121  1  0  0  0  0
117122  2  0  0  0  0
122123  1  0  0  0  0
123124  2  0  0  0  0
124125  1  0  0  0  0
125126  2  0  0  0  0
126127  1  0  0  0  0
127128  3  0  0  0  0
126129  1  0  0  0  0
129130  3  0  0  0  0
 11  2  1  0  0  0  0
 23 17  1  0  0  0  0
 48 24  1  0  0  0  0
 94 52  1  0  0  0  0
107 99  1  0  0  0  0
125112  1  0  0  0  0
 10  5  1  0  0  0  0
 22 18  1  0  0  0  0
 47 26  1  0  0  0  0
 61 54  1  0  0  0  0
 93 62  2  0  0  0  0
124115  1  0  0  0  0
 23  7  1  0  0  0  0
 35 28  2  0  0  0  0
 51 37  1  0  0  0  0
 92 64  2  0  0  0  0
 46 40  1  0  0  0  0
 90 65  2  0  0  0  0
 70 66  2  0  0  0  0
 89 71  2  0  0  0  0
 87 72  2  0  0  0  0
 86 74  2  0  0  0  0
 83 76  1  0  0  0  0
  1131  1  0  0  0  0
  6132  1  0  0  0  0
  9133  1  0  0  0  0
 17134  1  0  0  0  0
 18135  1  0  0  0  0
 19136  1  0  0  0  0
 20137  1  0  0  0  0
 21138  1  0  0  0  0
 22139  1  0  0  0  0
 22140  1  0  0  0  0
 23141  1  0  0  0  0
 25142  1  0  0  0  0
 31143  1  0  0  0  0
 31144  1  0  0  0  0
 32145  1  0  0  0  0
 32146  1  0  0  0  0
 32147  1  0  0  0  0
 41148  1  0  0  0  0
 42149  1  0  0  0  0
 44150  1  0  0  0  0
 44151  1  0  0  0  0
 45152  1  0  0  0  0
 45153  1  0  0  0  0
 45154  1  0  0  0  0
 49155  1  0  0  0  0
 55156  1  0  0  0  0
 56157  1  0  0  0  0
 57158  1  0  0  0  0
 59159  1  0  0  0  0
 59160  1  0  0  0  0
 60161  1  0  0  0  0
 60162  1  0  0  0  0
 60163  1  0  0  0  0
 61164  1  0  0  0  0
 77165  1  0  0  0  0
 78166  1  0  0  0  0
 79167  1  0  0  0  0
 81168  1  0  0  0  0
 81169  1  0  0  0  0
 82170  1  0  0  0  0
 82171  1  0  0  0  0
 82172  1  0  0  0  0
 83173  1  0  0  0  0
 95174  1  0  0  0  0
 95175  1  0  0  0  0
 96176  1  0  0  0  0
 96177  1  0  0  0  0
 96178  1  0  0  0  0
 97179  1  0  0  0  0
 97180  1  0  0  0  0
 98181  1  0  0  0  0
 98182  1  0  0  0  0
 98183  1  0  0  0  0
100184  1  0  0  0  0
103185  1  0  0  0  0
103186  1  0  0  0  0
104187  1  0  0  0  0
104188  1  0  0  0  0
104189  1  0  0  0  0
106190  1  0  0  0  0
109191  1  0  0  0  0
109192  1  0  0  0  0
110193  1  0  0  0  0
110194  1  0  0  0  0
110195  1  0  0  0  0
111196  1  0  0  0  0
116197  1  0  0  0  0
121198  1  0  0  0  0
121199  1  0  0  0  0
121200  1  0  0  0  0
122201  1  0  0  0  0
123202  1  0  0  0  0
M  END
