
  xtb     02132205513D
 energy: -353.513234145226 gnorm: 0.000781871774 xtb: 6.4.1 (unknown)
205230  0     0  0            999 V2000
   -2.9649    6.4815   -0.0259 C   0  0  0  0  0  0  0  0  0  0  0  0
   -2.6001    6.4949   -1.3486 C   0  0  0  0  0  0  0  0  0  0  0  0
   -1.3488    7.0001   -1.9539 C   0  0  0  0  0  0  0  0  0  0  0  0
   -0.4990    7.7192   -1.4637 O   0  0  0  0  0  0  0  0  0  0  0  0
   -1.3212    6.4736   -3.3306 C   0  0  0  0  0  0  0  0  0  0  0  0
   -0.2999    6.6413   -4.2634 C   0  0  0  0  0  0  0  0  0  0  0  0
   -0.5335    6.0204   -5.4665 C   0  0  0  0  0  0  0  0  0  0  0  0
   -1.6985    5.2848   -5.7230 C   0  0  0  0  0  0  0  0  0  0  0  0
   -2.7200    5.1263   -4.8163 C   0  0  0  0  0  0  0  0  0  0  0  0
   -2.5017    5.7501   -3.5832 C   0  0  0  0  0  0  0  0  0  0  0  0
   -3.3452    5.8096   -2.3913 C   0  0  0  0  0  0  0  0  0  0  0  0
   -4.6118    5.2868   -2.3013 C   0  0  0  0  0  0  0  0  0  0  0  0
   -5.2212    4.5050   -3.3025 C   0  0  0  0  0  0  0  0  0  0  0  0
   -5.7650    3.8250   -4.0529 N   0  0  0  0  0  0  0  0  0  0  0  0
   -5.4983    5.4451   -1.2151 C   0  0  0  0  0  0  0  0  0  0  0  0
   -6.2998    5.5475   -0.3982 N   0  0  0  0  0  0  0  0  0  0  0  0
   -1.2647    4.9381   -7.1264 C   0  0  0  0  0  0  0  0  0  0  0  0
   -1.9364    5.7279   -8.2682 C   0  0  0  0  0  0  0  0  0  0  0  0
   -1.0006    5.5357   -9.4395 C   0  0  0  0  0  0  0  0  0  0  0  0
    0.0972    6.2408   -9.1985 C   0  0  0  0  0  0  0  0  0  0  0  0
   -0.0779    6.9217   -7.8599 C   0  0  0  0  0  0  0  0  0  0  0  0
   -1.5910    7.1739   -7.8886 C   0  0  0  0  0  0  0  0  0  0  0  0
    0.0292    5.7657   -6.8425 C   0  0  0  0  0  0  0  0  0  0  0  0
   -2.2305    6.8169    1.1261 C   0  0  0  0  0  0  0  0  0  0  0  0
   -1.0153    7.4469    1.3197 C   0  0  0  0  0  0  0  0  0  0  0  0
   -0.5156    7.3052    2.6121 C   0  0  0  0  0  0  0  0  0  0  0  0
    1.0125    7.9538    3.1859 S   0  0  0  0  0  0  0  0  0  0  0  0
    2.0503    7.8526    1.6839 C   0  0  0  0  0  0  0  0  0  0  0  0
    2.2295    6.4240    1.2130 C   0  0  0  0  0  0  0  0  0  0  0  0
   -1.3567    6.5885    3.4633 C   0  0  0  0  0  0  0  0  0  0  0  0
   -2.8300    6.1628    2.6486 S   0  0  0  0  0  0  0  0  0  0  0  0
   -1.0236    5.9847    4.7060 C   0  0  0  0  0  0  0  0  0  0  0  0
   -1.8890    5.4710    5.6633 C   0  0  0  0  0  0  0  0  0  0  0  0
   -3.2856    5.8840    5.7605 C   0  0  0  0  0  0  0  0  0  0  0  0
   -4.2868    4.9705    6.0808 C   0  0  0  0  0  0  0  0  0  0  0  0
   -5.6043    5.3837    6.1294 C   0  0  0  0  0  0  0  0  0  0  0  0
   -5.9378    6.6987    5.8556 C   0  0  0  0  0  0  0  0  0  0  0  0
   -4.9513    7.6280    5.5488 C   0  0  0  0  0  0  0  0  0  0  0  0
   -5.3007    9.0441    5.1935 C   0  0  0  0  0  0  0  0  0  0  0  0
   -5.3286    9.2112    3.6726 C   0  0  0  0  0  0  0  0  0  0  0  0
   -3.6306    7.2117    5.5148 C   0  0  0  0  0  0  0  0  0  0  0  0
   -1.2449    4.5121    6.4703 C   0  0  0  0  0  0  0  0  0  0  0  0
   -1.8190    3.3660    7.6657 S   0  0  0  0  0  0  0  0  0  0  0  0
   -0.2993    2.5354    7.5776 C   0  0  0  0  0  0  0  0  0  0  0  0
    0.2475    1.2814    7.9054 C   0  0  0  0  0  0  0  0  0  0  0  0
   -0.2565    0.2075    8.6725 C   0  0  0  0  0  0  0  0  0  0  0  0
    0.3949   -1.0711    8.5946 C   0  0  0  0  0  0  0  0  0  0  0  0
   -0.1951   -1.9844    9.3477 N   0  0  0  0  0  0  0  0  0  0  0  0
   -1.4563   -1.2990   10.0964 S   0  0  0  0  0  0  0  0  0  0  0  0
   -1.3069    0.1900    9.4763 N   0  0  0  0  0  0  0  0  0  0  0  0
    1.4572   -1.2355    7.6766 C   0  0  0  0  0  0  0  0  0  0  0  0
    1.9548   -2.3942    7.0543 C   0  0  0  0  0  0  0  0  0  0  0  0
    1.5727   -4.0872    6.9578 S   0  0  0  0  0  0  0  0  0  0  0  0
    2.4400   -4.1742    5.4368 C   0  0  0  0  0  0  0  0  0  0  0  0
    2.3729   -5.0989    4.3719 C   0  0  0  0  0  0  0  0  0  0  0  0
    1.5565   -6.3157    4.4646 C   0  0  0  0  0  0  0  0  0  0  0  0
    0.4015   -6.4393    3.7006 C   0  0  0  0  0  0  0  0  0  0  0  0
   -0.4196   -7.5391    3.8739 C   0  0  0  0  0  0  0  0  0  0  0  0
   -0.0900   -8.5176    4.7939 C   0  0  0  0  0  0  0  0  0  0  0  0
    1.0644   -8.4101    5.5593 C   0  0  0  0  0  0  0  0  0  0  0  0
    1.4469   -9.4993    6.5180 C   0  0  0  0  0  0  0  0  0  0  0  0
    2.2407  -10.5860    5.7898 C   0  0  0  0  0  0  0  0  0  0  0  0
    1.8762   -7.2981    5.3929 C   0  0  0  0  0  0  0  0  0  0  0  0
    2.9935   -4.6074    3.2406 C   0  0  0  0  0  0  0  0  0  0  0  0
    3.7420   -3.0369    3.5162 S   0  0  0  0  0  0  0  0  0  0  0  0
    3.0844   -2.9808    5.1114 C   0  0  0  0  0  0  0  0  0  0  0  0
    2.8026   -1.9635    6.0305 C   0  0  0  0  0  0  0  0  0  0  0  0
    2.9044   -0.6008    6.0412 N   0  0  0  0  0  0  0  0  0  0  0  0
    2.0298   -0.1204    6.9988 C   0  0  0  0  0  0  0  0  0  0  0  0
    1.4777    1.1726    7.1962 C   0  0  0  0  0  0  0  0  0  0  0  0
    1.7295    2.3828    6.5620 N   0  0  0  0  0  0  0  0  0  0  0  0
    0.6259    3.1739    6.7495 C   0  0  0  0  0  0  0  0  0  0  0  0
    0.0964    4.3109    6.1333 C   0  0  0  0  0  0  0  0  0  0  0  0
    0.6250    5.3838    4.8895 S   0  0  0  0  0  0  0  0  0  0  0  0
    2.9897    3.0078    6.2106 C   0  0  0  0  0  0  0  0  0  0  0  0
    4.0405    2.8003    7.2965 C   0  0  0  0  0  0  0  0  0  0  0  0
    3.5794    0.0657    4.9541 C   0  0  0  0  0  0  0  0  0  0  0  0
    2.6042    0.4851    3.8560 C   0  0  0  0  0  0  0  0  0  0  0  0
    2.8973   -4.9887    1.8678 C   0  0  0  0  0  0  0  0  0  0  0  0
    3.0564   -4.1339    0.8058 C   0  0  0  0  0  0  0  0  0  0  0  0
    2.5411   -4.7982   -0.3282 C   0  0  0  0  0  0  0  0  0  0  0  0
    2.3002   -4.3605   -1.6341 C   0  0  0  0  0  0  0  0  0  0  0  0
    2.7050   -3.0452   -2.1425 C   0  0  0  0  0  0  0  0  0  0  0  0
    3.4338   -2.9632   -3.3251 C   0  0  0  0  0  0  0  0  0  0  0  0
    3.8112   -1.7258   -3.8053 C   0  0  0  0  0  0  0  0  0  0  0  0
    4.5303   -1.6748   -4.9408 F   0  0  0  0  0  0  0  0  0  0  0  0
    3.4825   -0.5293   -3.1740 C   0  0  0  0  0  0  0  0  0  0  0  0
    3.9007    0.7962   -3.7354 C   0  0  0  0  0  0  0  0  0  0  0  0
    5.3728    1.0807   -3.4312 C   0  0  0  0  0  0  0  0  0  0  0  0
    2.7604   -0.6581   -1.9946 C   0  0  0  0  0  0  0  0  0  0  0  0
    2.4087    0.4608   -1.3206 F   0  0  0  0  0  0  0  0  0  0  0  0
    2.3730   -1.8755   -1.4688 C   0  0  0  0  0  0  0  0  0  0  0  0
    1.5848   -5.2637   -2.4010 C   0  0  0  0  0  0  0  0  0  0  0  0
    1.2536   -6.5817   -1.9867 C   0  0  0  0  0  0  0  0  0  0  0  0
    1.6044   -7.0609   -0.7038 C   0  0  0  0  0  0  0  0  0  0  0  0
    1.4022   -8.4545   -0.3128 C   0  0  0  0  0  0  0  0  0  0  0  0
    1.1130   -8.8146    1.0020 C   0  0  0  0  0  0  0  0  0  0  0  0
    0.9590  -10.1478    1.3208 C   0  0  0  0  0  0  0  0  0  0  0  0
    1.0825  -11.1811    0.3979 C   0  0  0  0  0  0  0  0  0  0  0  0
    0.9492  -12.6217    0.7919 C   0  0  0  0  0  0  0  0  0  0  0  0
    2.2730  -13.1494    1.3505 C   0  0  0  0  0  0  0  0  0  0  0  0
    1.3923  -10.7829   -0.8975 C   0  0  0  0  0  0  0  0  0  0  0  0
    1.5500   -9.4631   -1.2657 C   0  0  0  0  0  0  0  0  0  0  0  0
    1.5456  -11.7308   -1.8454 F   0  0  0  0  0  0  0  0  0  0  0  0
    0.6658  -10.4734    2.5969 F   0  0  0  0  0  0  0  0  0  0  0  0
    2.1582   -6.0920    0.1267 C   0  0  0  0  0  0  0  0  0  0  0  0
    2.4021   -6.1914    1.4614 O   0  0  0  0  0  0  0  0  0  0  0  0
    0.4300   -7.0848   -3.0255 C   0  0  0  0  0  0  0  0  0  0  0  0
    0.2803   -6.0729   -3.9508 C   0  0  0  0  0  0  0  0  0  0  0  0
    1.0075   -4.9792   -3.5851 O   0  0  0  0  0  0  0  0  0  0  0  0
   -0.6740   -5.9721   -4.9997 C   0  0  0  0  0  0  0  0  0  0  0  0
   -1.0657   -4.8343   -5.6277 C   0  0  0  0  0  0  0  0  0  0  0  0
   -2.4425   -4.7283   -6.2017 C   0  0  0  0  0  0  0  0  0  0  0  0
   -3.1421   -5.6381   -6.5784 O   0  0  0  0  0  0  0  0  0  0  0  0
   -2.7773   -3.2925   -6.1065 C   0  0  0  0  0  0  0  0  0  0  0  0
   -4.0211   -2.6948   -6.3077 C   0  0  0  0  0  0  0  0  0  0  0  0
   -4.0472   -1.3443   -6.0488 C   0  0  0  0  0  0  0  0  0  0  0  0
   -2.9219   -0.6339   -5.6052 C   0  0  0  0  0  0  0  0  0  0  0  0
   -1.6838   -1.2021   -5.4223 C   0  0  0  0  0  0  0  0  0  0  0  0
   -1.6355   -2.5701   -5.6955 C   0  0  0  0  0  0  0  0  0  0  0  0
   -0.5111   -3.4946   -5.6093 C   0  0  0  0  0  0  0  0  0  0  0  0
    0.8102   -3.1689   -5.7394 C   0  0  0  0  0  0  0  0  0  0  0  0
    1.8091   -4.1502   -5.9183 C   0  0  0  0  0  0  0  0  0  0  0  0
    2.6256   -4.9305   -6.1197 N   0  0  0  0  0  0  0  0  0  0  0  0
    1.2731   -1.8416   -5.8150 C   0  0  0  0  0  0  0  0  0  0  0  0
    1.6777   -0.7681   -5.8630 N   0  0  0  0  0  0  0  0  0  0  0  0
   -3.6826    0.6621   -5.4953 C   0  0  0  0  0  0  0  0  0  0  0  0
   -3.4648    1.7230   -6.6000 C   0  0  0  0  0  0  0  0  0  0  0  0
   -3.0571    0.9709   -7.8424 C   0  0  0  0  0  0  0  0  0  0  0  0
   -4.1186    0.3046   -8.2768 C   0  0  0  0  0  0  0  0  0  0  0  0
   -5.2620    0.5954   -7.3365 C   0  0  0  0  0  0  0  0  0  0  0  0
   -4.9288    2.0432   -6.9392 C   0  0  0  0  0  0  0  0  0  0  0  0
   -4.9320   -0.1224   -6.0039 C   0  0  0  0  0  0  0  0  0  0  0  0
   -3.9157    6.0151    0.2036 H   0  0  0  0  0  0  0  0  0  0  0  0
    0.5827    7.2123   -4.0209 H   0  0  0  0  0  0  0  0  0  0  0  0
   -3.6147    4.5681   -5.0343 H   0  0  0  0  0  0  0  0  0  0  0  0
   -1.1590    3.8781   -7.3485 H   0  0  0  0  0  0  0  0  0  0  0  0
   -2.9834    5.4878   -8.4326 H   0  0  0  0  0  0  0  0  0  0  0  0
   -1.2039    4.8832  -10.2682 H   0  0  0  0  0  0  0  0  0  0  0  0
    0.9946    6.2956   -9.7863 H   0  0  0  0  0  0  0  0  0  0  0  0
    0.5680    7.7713   -7.6549 H   0  0  0  0  0  0  0  0  0  0  0  0
   -2.0062    7.4938   -6.9346 H   0  0  0  0  0  0  0  0  0  0  0  0
   -1.8751    7.8824   -8.6648 H   0  0  0  0  0  0  0  0  0  0  0  0
    0.9906    5.2567   -6.8766 H   0  0  0  0  0  0  0  0  0  0  0  0
   -0.5112    7.9643    0.5257 H   0  0  0  0  0  0  0  0  0  0  0  0
    2.9984    8.2879    1.9989 H   0  0  0  0  0  0  0  0  0  0  0  0
    1.6080    8.4818    0.9134 H   0  0  0  0  0  0  0  0  0  0  0  0
    2.6306    5.8058    2.0135 H   0  0  0  0  0  0  0  0  0  0  0  0
    1.2794    6.0028    0.8904 H   0  0  0  0  0  0  0  0  0  0  0  0
    2.9170    6.4004    0.3704 H   0  0  0  0  0  0  0  0  0  0  0  0
   -4.0348    3.9384    6.2685 H   0  0  0  0  0  0  0  0  0  0  0  0
   -6.3783    4.6716    6.3735 H   0  0  0  0  0  0  0  0  0  0  0  0
   -6.9722    7.0088    5.8831 H   0  0  0  0  0  0  0  0  0  0  0  0
   -6.2787    9.3010    5.6040 H   0  0  0  0  0  0  0  0  0  0  0  0
   -4.5608    9.7268    5.6170 H   0  0  0  0  0  0  0  0  0  0  0  0
   -5.6003   10.2299    3.4064 H   0  0  0  0  0  0  0  0  0  0  0  0
   -6.0522    8.5304    3.2300 H   0  0  0  0  0  0  0  0  0  0  0  0
   -4.3513    8.9911    3.2483 H   0  0  0  0  0  0  0  0  0  0  0  0
   -2.8513    7.9303    5.3005 H   0  0  0  0  0  0  0  0  0  0  0  0
    0.1379   -5.6646    2.9945 H   0  0  0  0  0  0  0  0  0  0  0  0
   -1.3232   -7.6308    3.2886 H   0  0  0  0  0  0  0  0  0  0  0  0
   -0.7340   -9.3748    4.9196 H   0  0  0  0  0  0  0  0  0  0  0  0
    0.5475   -9.9414    6.9508 H   0  0  0  0  0  0  0  0  0  0  0  0
    2.0512   -9.0875    7.3286 H   0  0  0  0  0  0  0  0  0  0  0  0
    3.1567  -10.1709    5.3749 H   0  0  0  0  0  0  0  0  0  0  0  0
    1.6510  -10.9959    4.9739 H   0  0  0  0  0  0  0  0  0  0  0  0
    2.5014  -11.3903    6.4738 H   0  0  0  0  0  0  0  0  0  0  0  0
    2.7712   -7.1908    5.9895 H   0  0  0  0  0  0  0  0  0  0  0  0
    3.3462    2.6630    5.2383 H   0  0  0  0  0  0  0  0  0  0  0  0
    2.7820    4.0764    6.1091 H   0  0  0  0  0  0  0  0  0  0  0  0
    3.6960    3.2271    8.2358 H   0  0  0  0  0  0  0  0  0  0  0  0
    4.2390    1.7432    7.4587 H   0  0  0  0  0  0  0  0  0  0  0  0
    4.9670    3.2918    7.0115 H   0  0  0  0  0  0  0  0  0  0  0  0
    4.1526    0.9094    5.3342 H   0  0  0  0  0  0  0  0  0  0  0  0
    4.2932   -0.6530    4.5424 H   0  0  0  0  0  0  0  0  0  0  0  0
    2.1271   -0.3955    3.4332 H   0  0  0  0  0  0  0  0  0  0  0  0
    1.8279    1.1382    4.2469 H   0  0  0  0  0  0  0  0  0  0  0  0
    3.1353    1.0017    3.0613 H   0  0  0  0  0  0  0  0  0  0  0  0
    3.4408   -3.1359    0.8457 H   0  0  0  0  0  0  0  0  0  0  0  0
    3.7156   -3.8523   -3.8664 H   0  0  0  0  0  0  0  0  0  0  0  0
    3.7491    0.7774   -4.8160 H   0  0  0  0  0  0  0  0  0  0  0  0
    3.2780    1.5828   -3.3074 H   0  0  0  0  0  0  0  0  0  0  0  0
    5.5438    1.0974   -2.3566 H   0  0  0  0  0  0  0  0  0  0  0  0
    6.0067    0.3158   -3.8726 H   0  0  0  0  0  0  0  0  0  0  0  0
    5.6579    2.0454   -3.8430 H   0  0  0  0  0  0  0  0  0  0  0  0
    1.7952   -1.9023   -0.5587 H   0  0  0  0  0  0  0  0  0  0  0  0
    1.0014   -8.0729    1.7748 H   0  0  0  0  0  0  0  0  0  0  0  0
    0.6606  -13.2115   -0.0791 H   0  0  0  0  0  0  0  0  0  0  0  0
    0.1732  -12.7168    1.5538 H   0  0  0  0  0  0  0  0  0  0  0  0
    3.0589  -13.0681    0.6030 H   0  0  0  0  0  0  0  0  0  0  0  0
    2.5684  -12.5804    2.2292 H   0  0  0  0  0  0  0  0  0  0  0  0
    2.1685  -14.1939    1.6321 H   0  0  0  0  0  0  0  0  0  0  0  0
    1.8224   -9.2322   -2.2824 H   0  0  0  0  0  0  0  0  0  0  0  0
   -0.0600   -8.0362   -3.0628 H   0  0  0  0  0  0  0  0  0  0  0  0
   -1.2731   -6.8571   -5.1723 H   0  0  0  0  0  0  0  0  0  0  0  0
   -4.8708   -3.2772   -6.6280 H   0  0  0  0  0  0  0  0  0  0  0  0
   -0.8234   -0.6546   -5.0722 H   0  0  0  0  0  0  0  0  0  0  0  0
   -3.7321    1.1046   -4.5025 H   0  0  0  0  0  0  0  0  0  0  0  0
   -2.8246    2.5485   -6.3035 H   0  0  0  0  0  0  0  0  0  0  0  0
   -2.0555    0.9517   -8.2318 H   0  0  0  0  0  0  0  0  0  0  0  0
   -4.1810   -0.3797   -9.1028 H   0  0  0  0  0  0  0  0  0  0  0  0
   -6.2598    0.3980   -7.7187 H   0  0  0  0  0  0  0  0  0  0  0  0
   -5.4995    2.4061   -6.0866 H   0  0  0  0  0  0  0  0  0  0  0  0
   -5.0248    2.7382   -7.7724 H   0  0  0  0  0  0  0  0  0  0  0  0
   -5.7959   -0.1841   -5.3455 H   0  0  0  0  0  0  0  0  0  0  0  0
  1  2  2  0  0  0  0
  2  3  1  0  0  0  0
  3  4  2  0  0  0  0
  3  5  1  0  0  0  0
  5  6  2  0  0  0  0
  6  7  1  0  0  0  0
  7  8  2  0  0  0  0
  8  9  1  0  0  0  0
  9 10  2  0  0  0  0
 10 11  1  0  0  0  0
 11 12  2  0  0  0  0
 12 13  1  0  0  0  0
 13 14  3  0  0  0  0
 12 15  1  0  0  0  0
 15 16  3  0  0  0  0
  8 17  1  0  0  0  0
 17 18  1  0  0  0  0
 18 19  1  0  0  0  0
 19 20  2  0  0  0  0
 20 21  1  0  0  0  0
 21 22  1  0  0  0  0
 21 23  1  0  0  0  0
  1 24  1  0  0  0  0
 24 25  2  0  0  0  0
 25 26  1  0  0  0  0
 26 27  1  0  0  0  0
 27 28  1  0  0  0  0
 28 29  1  0  0  0  0
 26 30  2  0  0  0  0
 30 31  1  0  0  0  0
 30 32  1  0  0  0  0
 32 33  2  0  0  0  0
 33 34  1  0  0  0  0
 34 35  2  0  0  0  0
 35 36  1  0  0  0  0
 36 37  2  0  0  0  0
 37 38  1  0  0  0  0
 38 39  1  0  0  0  0
 39 40  1  0  0  0  0
 38 41  2  0  0  0  0
 33 42  1  0  0  0  0
 42 43  1  0  0  0  0
 43 44  1  0  0  0  0
 44 45  1  0  0  0  0
 45 46  1  0  0  0  0
 46 47  1  0  0  0  0
 47 48  2  0  0  0  0
 48 49  1  0  0  0  0
 49 50  1  0  0  0  0
 47 51  1  0  0  0  0
 51 52  1  0  0  0  0
 52 53  1  0  0  0  0
 53 54  1  0  0  0  0
 54 55  1  0  0  0  0
 55 56  1  0  0  0  0
 56 57  2  0  0  0  0
 57 58  1  0  0  0  0
 58 59  2  0  0  0  0
 59 60  1  0  0  0  0
 60 61  1  0  0  0  0
 61 62  1  0  0  0  0
 60 63  2  0  0  0  0
 55 64  2  0  0  0  0
 64 65  1  0  0  0  0
 65 66  1  0  0  0  0
 66 67  1  0  0  0  0
 67 68  1  0  0  0  0
 68 69  1  0  0  0  0
 69 70  1  0  0  0  0
 70 71  1  0  0  0  0
 71 72  1  0  0  0  0
 72 73  1  0  0  0  0
 73 74  1  0  0  0  0
 71 75  1  0  0  0  0
 75 76  1  0  0  0  0
 68 77  1  0  0  0  0
 77 78  1  0  0  0  0
 64 79  1  0  0  0  0
 79 80  2  0  0  0  0
 80 81  1  0  0  0  0
 81 82  2  0  0  0  0
 82 83  1  0  0  0  0
 83 84  2  0  0  0  0
 84 85  1  0  0  0  0
 85 86  1  0  0  0  0
 85 87  2  0  0  0  0
 87 88  1  0  0  0  0
 88 89  1  0  0  0  0
 87 90  1  0  0  0  0
 90 91  1  0  0  0  0
 90 92  2  0  0  0  0
 82 93  1  0  0  0  0
 93 94  2  0  0  0  0
 94 95  1  0  0  0  0
 95 96  1  0  0  0  0
 96 97  2  0  0  0  0
 97 98  1  0  0  0  0
 98 99  2  0  0  0  0
 99100  1  0  0  0  0
100101  1  0  0  0  0
 99102  1  0  0  0  0
102103  2  0  0  0  0
102104  1  0  0  0  0
 98105  1  0  0  0  0
 95106  2  0  0  0  0
106107  1  0  0  0  0
 94108  1  0  0  0  0
108109  2  0  0  0  0
109110  1  0  0  0  0
109111  1  0  0  0  0
111112  2  0  0  0  0
112113  1  0  0  0  0
113114  2  0  0  0  0
113115  1  0  0  0  0
115116  2  0  0  0  0
116117  1  0  0  0  0
117118  2  0  0  0  0
118119  1  0  0  0  0
119120  2  0  0  0  0
120121  1  0  0  0  0
121122  2  0  0  0  0
122123  1  0  0  0  0
123124  3  0  0  0  0
122125  1  0  0  0  0
125126  3  0  0  0  0
118127  1  0  0  0  0
127128  1  0  0  0  0
128129  1  0  0  0  0
129130  2  0  0  0  0
130131  1  0  0  0  0
131132  1  0  0  0  0
131133  1  0  0  0  0
 11  2  1  0  0  0  0
 23 17  1  0  0  0  0
 31 24  1  0  0  0  0
 74 32  1  0  0  0  0
107 79  1  0  0  0  0
121112  1  0  0  0  0
133127  1  0  0  0  0
 10  5  1  0  0  0  0
 22 18  1  0  0  0  0
 41 34  1  0  0  0  0
 73 42  2  0  0  0  0
106 81  1  0  0  0  0
120115  1  0  0  0  0
132128  1  0  0  0  0
 23  7  1  0  0  0  0
 72 44  2  0  0  0  0
 92 83  1  0  0  0  0
110 93  1  0  0  0  0
133117  1  0  0  0  0
 70 45  2  0  0  0  0
103 96  1  0  0  0  0
 50 46  2  0  0  0  0
 69 51  2  0  0  0  0
 67 52  2  0  0  0  0
 66 54  2  0  0  0  0
 63 56  1  0  0  0  0
  1134  1  0  0  0  0
  6135  1  0  0  0  0
  9136  1  0  0  0  0
 17137  1  0  0  0  0
 18138  1  0  0  0  0
 19139  1  0  0  0  0
 20140  1  0  0  0  0
 21141  1  0  0  0  0
 22142  1  0  0  0  0
 22143  1  0  0  0  0
 23144  1  0  0  0  0
 25145  1  0  0  0  0
 28146  1  0  0  0  0
 28147  1  0  0  0  0
 29148  1  0  0  0  0
 29149  1  0  0  0  0
 29150  1  0  0  0  0
 35151  1  0  0  0  0
 36152  1  0  0  0  0
 37153  1  0  0  0  0
 39154  1  0  0  0  0
 39155  1  0  0  0  0
 40156  1  0  0  0  0
 40157  1  0  0  0  0
 40158  1  0  0  0  0
 41159  1  0  0  0  0
 57160  1  0  0  0  0
 58161  1  0  0  0  0
 59162  1  0  0  0  0
 61163  1  0  0  0  0
 61164  1  0  0  0  0
 62165  1  0  0  0  0
 62166  1  0  0  0  0
 62167  1  0  0  0  0
 63168  1  0  0  0  0
 75169  1  0  0  0  0
 75170  1  0  0  0  0
 76171  1  0  0  0  0
 76172  1  0  0  0  0
 76173  1  0  0  0  0
 77174  1  0  0  0  0
 77175  1  0  0  0  0
 78176  1  0  0  0  0
 78177  1  0  0  0  0
 78178  1  0  0  0  0
 80179  1  0  0  0  0
 84180  1  0  0  0  0
 88181  1  0  0  0  0
 88182  1  0  0  0  0
 89183  1  0  0  0  0
 89184  1  0  0  0  0
 89185  1  0  0  0  0
 92186  1  0  0  0  0
 97187  1  0  0  0  0
100188  1  0  0  0  0
100189  1  0  0  0  0
101190  1  0  0  0  0
101191  1  0  0  0  0
101192  1  0  0  0  0
103193  1  0  0  0  0
108194  1  0  0  0  0
111195  1  0  0  0  0
116196  1  0  0  0  0
119197  1  0  0  0  0
127198  1  0  0  0  0
128199  1  0  0  0  0
129200  1  0  0  0  0
130201  1  0  0  0  0
131202  1  0  0  0  0
132203  1  0  0  0  0
132204  1  0  0  0  0
133205  1  0  0  0  0
M  END
