232

C         -1.30650       -5.56960       13.05630
C         -0.23360       -5.88220       13.83130
C         -0.40330       -6.70890       15.05580
O         -1.44420       -6.96800       15.61670
C          0.95380       -7.18080       15.39500
C          1.30690       -8.08820       16.39130
C          2.65350       -8.35560       16.45440
C          3.58660       -7.76880       15.58850
C          3.25580       -6.86390       14.60810
C          1.89150       -6.57540       14.53090
C          1.18240       -5.64140       13.66110
C          1.74280       -4.55760       13.03410
C          0.98590       -3.51040       12.47090
N          0.41090       -2.60970       12.04920
C          3.12780       -4.31150       12.96210
N          4.24490       -4.06940       12.85210
C          4.74570       -8.50790       16.20770
C          5.31460       -9.72960       15.44420
C          4.18490      -10.27860       14.60870
C          3.30390      -10.83150       15.43160
C          3.82170      -10.66580       16.83900
C          5.33440      -10.76100       16.58360
C          3.70760       -9.15830       17.17560
C         -1.31780       -5.15410       11.70450
C         -2.31300       -4.45270       11.05970
C         -2.02270       -4.15940        9.72830
S         -3.12410       -3.19570        8.74110
C         -2.90260       -1.57310        9.56910
C         -1.47370       -1.07710        9.49400
C         -0.80960       -4.67830        9.28200
S         -0.03590       -5.54020       10.58170
C         -0.21260       -4.55420        8.00420
C          1.03180       -4.99260        7.56410
C          2.05050       -5.77340        8.32740
C          1.74930       -7.27240        8.27770
C          1.25460       -4.63360        6.22920
S          2.60970       -4.90970        5.15600
C          1.76460       -4.05200        3.91730
C          1.94080       -3.68350        2.57420
C          2.97970       -4.03210        1.67810
N          3.95280       -4.86360        2.04450
C          4.88190       -5.18440        1.15790
C          5.77480       -6.24330        1.57510
S          6.46450       -7.39240        0.46650
C          7.19020       -8.29510        1.75220
C          8.04480       -9.48670        1.49220
C          9.35180       -9.09220        0.80200
C          6.88690       -7.71160        2.94830
C          6.07550       -6.56600        2.87010
F          7.32680       -8.20470        4.12090
C          4.90450       -4.54850       -0.11860
C          6.00980       -4.60770       -1.04380
C          7.35320       -4.73710       -0.81830
C          8.08540       -4.65360       -2.01460
F          9.42830       -4.76210       -2.04110
C          7.34250       -4.45090       -3.14280
C          7.82020       -4.35610       -4.55080
C          7.33740       -5.54420       -5.38400
S          5.66820       -4.34450       -2.72590
N          3.88220       -3.80860       -0.51730
C          2.89140       -3.57190        0.33960
C          1.77970       -2.77360       -0.01970
C          1.50610       -2.11840       -1.23170
S          2.20880       -1.92580       -2.80040
C          0.96240       -0.76160       -3.18710
C          0.75700        0.06070       -4.30920
C          1.63730       -0.00150       -5.51980
C          2.59060        1.18770       -5.62140
C         -0.29590        0.92680       -4.09910
S         -1.12550        0.61960       -2.57630
C          0.05360       -0.56140       -2.14740
C          0.36360       -1.34310       -1.02810
N         -0.08760       -1.50220        0.25450
C         -1.05610       -0.57040        0.78300
C         -2.48580       -0.95060        0.40310
C          0.75340       -2.39340        0.89300
C          0.78340       -2.94580        2.19580
N         -0.08560       -2.90080        3.27590
C          0.51140       -3.57870        4.31080
C          0.21030       -3.92310        5.63240
S         -1.09130       -3.68620        6.74150
C         -1.52700       -2.77370        3.29470
C         -2.19060       -4.00860        2.68830
C         -0.72560        2.02970       -4.90210
C         -1.10750        3.29620       -4.47060
N         -1.07850        3.77430       -3.17120
C         -0.11270        3.35300       -2.25180
C         -0.43550        3.21680       -0.90230
C          0.47810        2.67470       -0.01950
C          1.72510        2.23890       -0.44940
C          2.67540        1.54750        0.47940
C          2.06520        2.44390       -1.78200
C          1.17250        3.00840       -2.66890
C         -2.05670        4.70870       -2.77940
C         -1.69970        5.81160       -2.00990
C         -2.66060        6.72110       -1.61640
C         -3.99300        6.56290       -1.98010
C         -5.03740        7.53120       -1.52000
C         -4.33760        5.46420       -2.75920
C         -3.38720        4.54370       -3.15540
C         -1.48360        4.10540       -5.57060
S         -2.10300        5.70930       -5.71220
C         -2.15650        5.55980       -7.47310
C         -1.69360        4.30980       -7.90740
N         -1.61500        3.89910       -9.20940
C         -2.51250        4.35110      -10.19860
C         -3.87050        4.47480       -9.92190
C         -4.72940        4.93490      -10.89980
C         -4.26730        5.26220      -12.16960
C         -5.19720        5.79440      -13.21550
C         -2.91360        5.10490      -12.44140
C         -2.04000        4.65560      -11.47090
C         -0.63820        2.94960       -9.56100
C          0.65990        3.06990       -9.06950
C          1.61590        2.13090       -9.39870
C          1.31090        1.05980      -10.23010
C          2.34720        0.02890      -10.55510
C          0.01920        0.96150      -10.73430
C         -0.94870        1.89070      -10.40800
C         -1.33850        3.49770       -6.80710
S         -0.76820        1.87490       -6.65190
C         -2.51660        6.65200       -8.27940
C         -3.22870        7.76080       -7.91900
C         -3.12600        9.00840       -8.71120
O         -2.62160        9.13500       -9.80670
C         -3.72840       10.06110       -7.86560
C         -3.76780       11.43130       -8.11420
C         -4.36990       12.16460       -7.11930
C         -4.88080       11.58430       -5.95110
C         -4.85490       10.23410       -5.69390
C         -4.26600        9.47030       -6.70370
C         -4.10560        8.02090       -6.80550
C         -4.89240        7.10040       -6.15580
C         -5.85700        7.43420       -5.19010
N         -6.66510        7.64360       -4.39980
C         -4.92950        5.73290       -6.48770
N         -5.04310        4.62440       -6.76950
C         -5.32820       12.91150       -5.39080
C         -6.83810       13.21850       -5.47780
C         -6.91250       14.71950       -5.31650
C         -6.43580       15.26850       -6.42650
C         -6.03100       14.14750       -7.35650
C         -7.09110       13.10220       -6.98640
C         -4.76580       13.55840       -6.69700
H         -2.27940       -5.71740       13.51490
H          0.55960       -8.51930       17.03890
H          3.97860       -6.41960       13.94340
H          5.52870       -7.88830       16.64020
H          6.24920       -9.54040       14.92300
H          4.11660      -10.16170       13.54290
H          2.35240      -11.26840       15.19090
H          3.39760      -11.32930       17.58800
H          5.93860      -10.45400       17.43620
H          5.64380      -11.75060       16.25070
H          3.81190       -8.96140       18.24080
H         -3.21000       -4.12260       11.55220
H         -3.58630       -0.91460        9.03450
H         -3.23450       -1.67990       10.60100
H         -1.41980       -0.06580        9.89160
H         -1.12600       -1.06580        8.46310
H         -0.81190       -1.70760       10.08430
H          3.02460       -5.59220        7.86760
H          2.09790       -5.43520        9.36420
H          0.77630       -7.48770        8.71260
H          1.75290       -7.61810        7.24660
H          2.50540       -7.82220        8.83130
H          7.50310      -10.19470        0.85980
H          8.26010       -9.97080        2.44710
H          9.91670       -8.40290        1.42520
H          9.96050       -9.97410        0.62040
H          9.14430       -8.60820       -0.14980
H          5.73470       -6.00170        3.71730
H          7.80900       -4.86110        0.14620
H          7.45160       -3.43010       -4.99900
H          8.91170       -4.32580       -4.54430
H          6.25050       -5.57780       -5.39350
H          7.70950       -6.47630       -4.96550
H          7.69490       -5.45530       -6.40660
H          2.22060       -0.92240       -5.45470
H          1.02270       -0.04900       -6.42130
H          3.18300        1.27650       -4.71410
H          3.26330        1.04970       -6.46390
H          2.03800        2.11130       -5.77390
H         -0.83120        0.41080        0.34960
H         -0.91940       -0.49150        1.86240
H         -2.72600       -1.96420        0.71240
H         -2.60730       -0.88480       -0.67500
H         -3.18660       -0.26270        0.86820
H         -1.82030       -2.67700        4.34350
H         -1.85110       -1.87970        2.77150
H         -1.91140       -4.89850        3.24750
H         -1.87820       -4.14110        1.65410
H         -3.27140       -3.90350        2.72230
H         -1.41750        3.50570       -0.55880
H          0.20690        2.57150        1.02220
H          2.34270        1.62790        1.51140
H          3.67380        1.97330        0.39840
H          2.74580        0.48910        0.22250
H          3.04540        2.15030       -2.12900
H          1.45940        3.16820       -3.69660
H         -0.66680        5.94800       -1.72380
H         -2.36880        7.57290       -1.01870
H         -5.53520        7.14480       -0.62990
H         -5.79430        7.67400       -2.28850
H         -4.59380        8.49220       -1.26980
H         -5.36710        5.32400       -3.05430
H         -3.67410        3.69020       -3.75280
H         -4.24730        4.21920       -8.94280
H         -5.78070        5.03310      -10.67180
H         -4.91680        5.43570      -14.20350
H         -5.15100        6.88380      -13.22870
H         -6.22390        5.50170      -13.00960
H         -2.53510        5.34770      -13.42350
H         -0.98750        4.54770      -11.68920
H          0.91440        3.90700       -8.43540
H          2.61810        2.23600       -9.00940
H          2.11970       -0.47000      -11.49380
H          3.33450        0.48020      -10.62430
H          2.37810       -0.72650       -9.76900
H         -0.23620        0.13950      -11.38700
H         -1.95090        1.79920      -10.79910
H         -2.10820        6.67020       -9.28450
H         -3.35120       11.84310       -9.02010
H         -5.23800        9.79530       -4.78710
H         -4.88880       13.19870       -4.43720
H         -7.46220       12.62230       -4.81780
H         -7.24110       15.21150       -4.41970
H         -6.28650       16.31040       -6.64190
H         -5.92150       14.39990       -8.40790
H         -6.89880       12.11120       -7.39290
H         -8.09570       13.41980       -7.26090
H         -3.95450       14.27950       -6.61400
