164

C          4.43610        6.14800       -2.06590
C          4.92020        5.35910       -1.05000
C          4.20070        4.25040       -0.42000
O          3.09350        3.81920       -0.70110
C          5.07150        3.73310        0.64500
C          4.78100        2.69250        1.52370
C          5.78720        2.42410        2.41900
C          6.99420        3.13510        2.43450
C          7.28800        4.16910        1.57520
C          6.27520        4.46400        0.65650
C          6.20690        5.48470       -0.39260
C          7.19980        6.38640       -0.68120
C          8.43810        6.45210       -0.00920
N          9.46620        6.56550        0.48960
C          7.14460        7.37880       -1.68130
N          7.18170        8.21480       -2.46900
C          7.54620        2.32400        3.58240
C          8.57880        1.23340        3.22610
C          8.56740        0.31590        4.42800
C          7.42240       -0.35480        4.41530
C          6.63860        0.10230        3.20600
C          7.79160        0.37140        2.23040
C          6.19690        1.53630        3.56700
C          3.20730        6.07890       -2.73940
C          2.82780        6.98180       -3.73280
C          1.56440        6.75760       -4.27060
S          0.74790        7.76900       -5.45200
C          1.60110        9.37770       -5.25720
C          1.35910       10.00570       -3.89890
C          0.95420        5.63390       -3.70860
S          1.95210        4.89760       -2.49340
C         -0.31580        5.02470       -3.89650
C         -1.14130        4.84210       -4.99530
C         -0.84710        5.26210       -6.36280
C          0.42480        5.08740       -6.90300
C          0.67030        5.44670       -8.21410
C         -0.33930        5.98630       -8.99060
C         -1.61620        6.15950       -8.47010
C         -2.70120        6.79100       -9.29340
C         -2.67100        8.31150       -9.12620
C         -1.86040        5.78660       -7.15830
C         -2.25960        4.04450       -4.66430
S         -3.54530        3.32810       -5.61900
C         -4.03280        2.38770       -4.24090
C         -4.86510        1.30350       -3.90970
C         -5.71530        0.49890       -4.70180
C         -6.20550       -0.74090       -4.16430
N         -6.91680       -1.42580       -5.04550
S         -6.97670       -0.58320       -6.42620
N         -6.08780        0.68580       -5.95780
C         -5.89730       -1.08500       -2.82890
C         -6.13670       -2.25020       -2.07710
S         -6.74550       -3.86490       -2.26730
C         -6.19020       -4.25090       -0.64860
C         -6.11230       -5.45320        0.08020
C         -6.72950       -6.68720       -0.41260
C         -6.40380       -7.17390       -1.67430
C         -7.04080       -8.30040       -2.15880
C         -8.00940       -8.93360       -1.40090
C         -8.35720       -8.45010       -0.14550
C         -9.37590       -9.16560        0.69310
C         -8.71180      -10.30660        1.46640
C         -7.71030       -7.32420        0.33920
C         -5.40790       -5.27570        1.26750
S         -4.97580       -3.58320        1.53720
C         -5.62200       -3.15210        0.00150
C         -5.60250       -2.01700       -0.80680
N         -5.06260       -0.76280       -0.72830
C         -5.18310       -0.18660       -1.98310
C         -4.58880        0.96750       -2.55160
N         -3.63240        1.84350       -2.07310
C         -3.27620        2.66730       -3.10040
C         -2.26990        3.60640       -3.34000
S         -0.92740        4.22010       -2.45500
C         -2.80390        1.79480       -0.89130
C         -1.85910        0.59590       -0.91460
C         -4.91740       -0.15290        0.57810
C         -5.86600        1.02970        0.75130
C         -4.77480       -6.17020        2.17000
C         -4.83220       -7.54380        2.36990
F         -5.66830       -8.38780        1.75200
C         -3.91090       -7.99840        3.30740
F         -3.79830       -9.28730        3.64200
C         -3.07560       -7.01890        3.84870
S         -3.51610       -5.47860        3.16500
C         -2.02660       -7.30590        4.73720
C         -1.04050       -6.46810        5.19020
C         -0.89220       -5.06130        4.80730
O         -1.69570       -4.36780        4.20380
C          0.42990       -4.63470        5.28640
C          1.04200       -3.40210        5.06720
C          2.30670       -3.30620        5.59470
C          2.91810       -4.35860        6.28930
C          2.32160       -5.57700        6.51770
C          1.03180       -5.69690        5.99080
C          0.10120       -6.82710        6.01100
C          0.27220       -7.98470        6.72240
C         -0.66520       -9.03730        6.80200
N         -1.37990       -9.92570        6.93480
C          1.40050       -8.26720        7.52070
N          2.28870       -8.55920        8.18700
C          4.18680       -3.57350        6.51940
C          4.39060       -2.98300        7.93040
C          5.42370       -1.89830        7.72560
C          4.83850       -0.90070        7.07500
C          3.40130       -1.29650        6.82450
C          3.13160       -2.12060        8.09010
C          3.50210       -2.39920        5.74880
H          5.07190        6.95300       -2.41340
H          3.83690        2.17310        1.47320
H          8.21880        4.70980        1.60940
H          7.81260        2.88590        4.47560
H          9.54670        1.61000        2.90750
H          9.34490        0.28840        5.16860
H          7.05140       -1.05380        5.14220
H          5.83730       -0.54900        2.86600
H          8.32530       -0.53890        1.96270
H          7.49390        0.89800        1.32550
H          5.55920        1.57850        4.44840
H          3.48070        7.78240       -4.03150
H          2.66020        9.23580       -5.46620
H          1.16880        9.98660       -6.05100
H          1.84900       10.97600       -3.84930
H          0.29330       10.14330       -3.73240
H          1.75380        9.37800       -3.10270
H          1.20770        4.65120       -6.30030
H          1.65590        5.30510       -8.63270
H         -0.13800        6.27010      -10.01360
H         -3.67420        6.41160       -8.97650
H         -2.56200        6.54100      -10.34690
H         -3.45840        8.77610       -9.71520
H         -2.81250        8.57820       -8.08130
H         -1.71200        8.70840       -9.45200
H         -2.84740        5.91950       -6.73950
H         -5.64470       -6.67840       -2.26090
H         -6.78130       -8.68430       -3.13430
H         -8.50580       -9.81180       -1.78790
H         -9.83190       -8.46830        1.39860
H        -10.16370       -9.57140        0.05470
H         -9.43800      -10.81200        2.09880
H         -7.91040       -9.92050        2.09060
H         -8.28440      -11.03150        0.77790
H         -7.97370       -6.92850        1.31000
H         -2.21210        2.71320       -0.88810
H         -3.42160        1.81120        0.00490
H         -2.40780       -0.33890       -1.00140
H         -1.26460        0.57500       -0.00560
H         -1.18500        0.67630       -1.76400
H         -5.17240       -0.92680        1.30650
H         -3.88130        0.12680        0.76960
H         -5.73470        1.46660        1.73760
H         -5.68780        1.79580        0.00020
H         -6.89690        0.69670        0.65430
H         -1.98450       -8.34790        5.03380
H          0.53680       -2.62350        4.51760
H          2.81090       -6.37900        7.04450
H          5.09350       -4.01020        6.10480
H          4.59830       -3.71600        8.70470
H          6.45330       -1.98650        8.01990
H          5.28200        0.01190        6.72110
H          2.70650       -0.49410        6.59090
H          3.16180       -1.51150        8.99190
H          2.20130       -2.68470        8.06300
H          3.95470       -2.04940        4.82250
