227

C          5.05210      -11.02840        7.06880
C          4.02640      -11.89330        7.32170
C          2.84390      -12.11790        6.47040
O          2.56060      -11.56080        5.42720
C          2.05950      -13.17600        7.12790
C          0.86200      -13.72820        6.67730
C          0.34940      -14.69950        7.50250
C          0.98390      -15.09620        8.68770
C          2.16830      -14.56500        9.13930
C          2.70660      -13.56960        8.31650
C          3.92590      -12.77890        8.46980
C          4.78730      -12.85160        9.53370
C          4.63130      -13.72530       10.63090
N          4.57180      -14.40360       11.55540
C          5.94520      -12.06700        9.72120
N          6.89610      -11.47210        9.97050
C         -0.08870      -16.10390        9.01870
C         -1.10840      -15.69420       10.10270
C         -2.27420      -16.62880        9.87290
C         -2.87420      -16.25680        8.74930
C         -2.12430      -15.06430        8.20100
C         -1.68730      -14.40120        9.51360
C         -0.79450      -15.66360        7.69610
C          5.22710      -10.09050        6.02890
C          6.34880       -9.28540        5.96150
C          6.33170       -8.36880        4.89980
C          7.28950       -7.37440        4.59500
C          8.54480       -7.29850        5.31910
S          9.09220       -5.82500        6.06300
C         10.52280       -6.57620        6.67950
C         11.47550       -5.84010        7.55570
C         11.19240       -6.13220        9.03180
C         10.56720       -7.88860        6.31140
Cl        11.84790       -8.95290        6.72500
C          9.44900       -8.30140        5.54110
Cl         9.30290       -9.88720        4.90020
C          6.95770       -6.48380        3.59150
C          5.74960       -6.56310        2.84700
C          4.81910       -7.58670        3.11070
C          3.56940       -7.72120        2.39080
C          2.93670       -8.87630        2.02300
C          1.70650       -8.65940        1.37310
C          1.37740       -7.34430        1.25640
C          0.18010       -6.73580        0.61170
C          0.55130       -6.01790       -0.68740
S          2.60980       -6.33710        1.94060
C          5.13610       -8.46920        4.14300
S          4.10270       -9.73850        4.73370
C          5.67340       -5.53100        1.88580
C          6.74840       -4.68680        1.88590
S          7.95700       -5.15360        3.06620
C          6.86580       -3.48830        1.12980
C          7.94100       -2.63070        1.00810
C          9.28350       -2.92840        1.52250
C         10.00770       -3.99380        0.99820
C         11.26990       -4.27130        1.48780
C         11.80390       -3.50380        2.50660
C         11.09050       -2.43800        3.04170
C         11.64680       -1.65810        4.19740
C         11.45790       -2.44760        5.49430
C          9.83380       -2.15030        2.53280
C          7.58840       -1.45510        0.32030
S          8.47760       -0.01080       -0.10370
C          7.03580        0.64170       -0.81250
C          6.58820        1.80900       -1.45520
C          7.27760        2.96240       -1.88960
C          6.55640        3.97900       -2.60300
N          7.33750        4.97490       -2.99050
S          8.84800        4.66480       -2.49710
N          8.56490        3.24640       -1.76960
C          5.15750        3.85150       -2.74910
C          4.18930        4.74510       -3.23900
S          4.08380        6.31300       -3.97160
C          2.33870        6.19390       -3.92500
C          1.31190        7.09280       -4.28840
C          1.61340        8.36420       -4.95620
C          2.40170        8.33190       -6.10350
C          2.71380        9.50700       -6.75930
C          2.23220       10.71480       -6.28800
C          1.45040       10.76530       -5.14080
C          0.86290       12.06970       -4.68630
C         -0.32790       12.43030       -5.57690
C          1.16590        9.58570       -4.46890
C          0.06380        6.56420       -4.01930
S          0.16500        4.94500       -3.32150
C          1.88700        4.99610       -3.37390
C          2.94430        4.16320       -2.99160
N          3.09980        2.93580       -2.40880
C          4.45800        2.71660       -2.25020
C          5.19800        1.63510       -1.70600
N          4.82960        0.37080       -1.27420
C          5.93920       -0.21960       -0.73370
C          6.25480       -1.42230       -0.09340
S          5.41450       -2.86230        0.35690
C          3.70350       -0.45230       -1.65710
C          3.55950       -0.53810       -3.17420
C          1.97160        2.30930       -1.75770
C          2.09960        2.35930       -0.23750
C         -1.26490        7.04490       -4.21730
C         -2.37700        6.24640       -4.22630
C         -3.59470        6.94930       -4.33990
C         -4.89710        6.42280       -4.35690
C         -5.13060        4.98850       -4.31030
S         -4.40080        3.92130       -5.47470
C         -5.14500        2.52170       -4.77900
C         -4.87050        1.15870       -5.31140
C         -3.52860        0.63220       -4.79740
C         -5.90190        2.87690       -3.70380
Cl        -6.78270        1.76070       -2.74430
C         -5.90150        4.27320       -3.43760
Cl        -6.72370        4.94950       -2.09660
C         -5.94630        7.33080       -4.41400
C         -5.73870        8.73670       -4.43380
C         -4.42680        9.26980       -4.42670
C         -4.20210       10.70030       -4.41330
C         -4.81520       11.67080       -5.15520
C         -4.38240       12.97230       -4.83560
C         -3.44870       13.00460       -3.84490
C         -2.83230       14.19320       -3.19170
C         -3.56800       14.54550       -1.89610
S         -3.06590       11.40730       -3.29760
C         -3.39060        8.35140       -4.38430
S         -1.68780        8.73620       -4.36730
C         -6.96010        9.42570       -4.41800
C         -8.07450        8.60590       -4.42380
S         -7.63180        6.91220       -4.45600
C         -9.38160        9.13470       -4.37070
C        -10.58980        8.50330       -4.29660
C        -10.81150        7.04630       -4.25300
O         -9.98700        6.16520       -4.40190
C        -12.24930        6.85760       -4.00070
C        -12.91310        5.64640       -3.82110
C        -14.25990        5.77780       -3.58380
C        -14.89900        7.02390       -3.52480
C        -14.25560        8.22560       -3.70070
C        -12.88420        8.11530       -3.95010
C        -11.88340        9.15440       -4.18060
C        -12.14500       10.49530       -4.29510
C        -11.19340       11.50460       -4.55200
N        -10.49380       12.39190       -4.76120
C        -13.43030       11.06960       -4.19880
N        -14.44020       11.61200       -4.13270
C        -16.24840        6.40790       -3.25330
C        -17.25610        6.33490       -4.42710
C        -16.43700        6.29950       -5.69350
C        -15.83240        5.12050       -5.75170
C        -16.23150        4.33730       -4.52540
C        -17.66450        4.85650       -4.32710
C        -15.53670        5.01990       -3.32100
H          5.87750      -11.02780        7.77060
H          0.41140      -13.39410        5.75590
H          2.64530      -14.88930       10.04860
H          0.24270      -17.13600        9.11510
H         -0.70720      -15.65020       11.11140
H         -2.50130      -17.47030       10.50070
H         -3.70240      -16.72570        8.25100
H         -2.64940      -14.44640        7.47750
H         -2.53400      -14.03040       10.08890
H         -0.95660      -13.60450        9.38690
H         -0.93180      -16.40200        6.90830
H          7.14070       -9.34520        6.68680
H         12.49360       -6.15370        7.31430
H         11.38230       -4.76950        7.37130
H         11.89560       -5.59210        9.65980
H         11.29160       -7.19560        9.23240
H         10.18290       -5.82270        9.29080
H          3.35260       -9.85400        2.18330
H          1.08290       -9.45680        1.00990
H         -0.54420       -7.52590        0.40320
H         -0.28240       -6.01950        1.29580
H         -0.33470       -5.58750       -1.14750
H          1.26270       -5.22000       -0.48530
H          1.00400       -6.71540       -1.38850
H          4.84960       -5.40020        1.20810
H          9.58030       -4.59360        0.20790
H         11.83670       -5.09330        1.07600
H         12.78750       -3.73170        2.89160
H         11.13760       -0.69640        4.27780
H         12.71130       -1.47010        4.04190
H         11.98910       -3.39490        5.43450
H         11.83970       -1.88480        6.34330
H         10.40290       -2.65860        5.65780
H          9.26420       -1.32460        2.93490
H          2.75760        7.38550       -6.48230
H          3.32940        9.47870       -7.64620
H          2.46930       11.62980       -6.81160
H          0.52930       11.98850       -3.65050
H          1.61370       12.86060       -4.74790
H         -0.01340       12.51920       -6.61400
H         -0.76940       13.37430       -5.26740
H         -1.08690       11.65380       -5.51690
H          0.60890        9.62090       -3.54440
H          2.78580       -0.09870       -1.18550
H          3.90160       -1.45020       -1.25800
H          2.70560       -1.15960       -3.43020
H          3.42340        0.44650       -3.61480
H          4.45330       -0.98160       -3.60680
H          1.08660        2.87360       -2.06170
H          1.83780        1.28870       -2.11750
H          3.00740        1.86480        0.09920
H          1.24260        1.87460        0.22250
H          2.13300        3.39360        0.09680
H         -2.32110        5.17570       -4.14570
H         -4.85310        1.19070       -6.40240
H         -5.67340        0.49160       -4.99320
H         -3.53630        0.58010       -3.71150
H         -2.72180        1.29170       -5.10890
H         -3.34050       -0.36220       -5.19340
H         -5.52580       11.45460       -5.93300
H         -4.75440       13.85540       -5.32390
H         -1.78450       13.98810       -2.96230
H         -2.87810       15.04070       -3.87920
H         -3.51980       13.71270       -1.19820
H         -4.61330       14.76350       -2.10210
H         -3.11530       15.41710       -1.43040
H         -7.04120       10.49740       -4.37780
H         -9.39240       10.21820       -4.35630
H        -12.37890        4.71040       -3.86820
H        -14.76260        9.17420       -3.64580
H        -16.72250        6.69290       -2.31630
H        -18.04810        7.07790       -4.38840
H        -16.33910        7.13130       -6.36630
H        -15.12770        4.77000       -6.48300
H        -16.09140        3.26070       -4.57650
H        -18.33760        4.55060       -5.12650
H        -18.09330        4.58900       -3.36230
H        -15.54710        4.39710       -2.42850
