
  xtb     02142215103D
 energy: -298.469330396172 gnorm: 0.000513868514 xtb: 6.4.1 (unknown)
177197  0     0  0            999 V2000
   -1.2674   -7.1780   -9.6841 C   0  0  0  0  0  0  0  0  0  0  0  0
   -1.1250   -5.9921  -10.3586 C   0  0  0  0  0  0  0  0  0  0  0  0
   -1.2511   -4.6566   -9.7686 C   0  0  0  0  0  0  0  0  0  0  0  0
   -1.4641   -4.3792   -8.5995 O   0  0  0  0  0  0  0  0  0  0  0  0
   -1.0681   -3.6965  -10.8697 C   0  0  0  0  0  0  0  0  0  0  0  0
   -1.1230   -2.3067  -10.7896 C   0  0  0  0  0  0  0  0  0  0  0  0
   -0.9184   -1.6693  -11.9899 C   0  0  0  0  0  0  0  0  0  0  0  0
   -0.6812   -2.3643  -13.1828 C   0  0  0  0  0  0  0  0  0  0  0  0
   -0.6275   -3.7351  -13.2758 C   0  0  0  0  0  0  0  0  0  0  0  0
   -0.8276   -4.4041  -12.0647 C   0  0  0  0  0  0  0  0  0  0  0  0
   -0.8412   -5.8373  -11.7705 C   0  0  0  0  0  0  0  0  0  0  0  0
   -0.6051   -6.8345  -12.6833 C   0  0  0  0  0  0  0  0  0  0  0  0
   -0.5977   -8.2176  -12.4096 C   0  0  0  0  0  0  0  0  0  0  0  0
   -0.5665   -9.3587  -12.2746 N   0  0  0  0  0  0  0  0  0  0  0  0
   -0.3175   -6.6194  -14.0471 C   0  0  0  0  0  0  0  0  0  0  0  0
   -0.0754   -6.5251  -15.1657 N   0  0  0  0  0  0  0  0  0  0  0  0
   -0.5633   -1.0970  -13.9922 C   0  0  0  0  0  0  0  0  0  0  0  0
    0.8650   -0.6503  -14.3698 C   0  0  0  0  0  0  0  0  0  0  0  0
    0.7055    0.8122  -14.7174 C   0  0  0  0  0  0  0  0  0  0  0  0
    0.4789    1.4726  -13.5891 C   0  0  0  0  0  0  0  0  0  0  0  0
    0.4824    0.4676  -12.4596 C   0  0  0  0  0  0  0  0  0  0  0  0
    1.5261   -0.5230  -12.9913 C   0  0  0  0  0  0  0  0  0  0  0  0
   -0.8287   -0.3213  -12.6621 C   0  0  0  0  0  0  0  0  0  0  0  0
   -1.5383   -7.4178   -8.3294 C   0  0  0  0  0  0  0  0  0  0  0  0
   -1.6447   -8.7077   -7.8129 C   0  0  0  0  0  0  0  0  0  0  0  0
   -1.8938   -8.7639   -6.4479 C   0  0  0  0  0  0  0  0  0  0  0  0
   -1.9601  -10.2290   -5.4804 S   0  0  0  0  0  0  0  0  0  0  0  0
   -1.0172  -11.4246   -6.4978 C   0  0  0  0  0  0  0  0  0  0  0  0
    0.4467  -11.0554   -6.6328 C   0  0  0  0  0  0  0  0  0  0  0  0
   -2.0156   -7.4878   -5.8890 C   0  0  0  0  0  0  0  0  0  0  0  0
   -1.7792   -6.2366   -7.0700 S   0  0  0  0  0  0  0  0  0  0  0  0
   -2.2396   -7.1052   -4.5394 C   0  0  0  0  0  0  0  0  0  0  0  0
   -2.9870   -7.6997   -3.5348 C   0  0  0  0  0  0  0  0  0  0  0  0
   -3.9030   -8.8248   -3.7012 C   0  0  0  0  0  0  0  0  0  0  0  0
   -4.7307   -8.9094   -4.8191 C   0  0  0  0  0  0  0  0  0  0  0  0
   -5.6281   -9.9527   -4.9326 C   0  0  0  0  0  0  0  0  0  0  0  0
   -5.7135  -10.9131   -3.9393 C   0  0  0  0  0  0  0  0  0  0  0  0
   -4.9007  -10.8407   -2.8155 C   0  0  0  0  0  0  0  0  0  0  0  0
   -5.0201  -11.8420   -1.7033 C   0  0  0  0  0  0  0  0  0  0  0  0
   -5.9024  -11.2854   -0.5839 C   0  0  0  0  0  0  0  0  0  0  0  0
   -4.0035   -9.7902   -2.7054 C   0  0  0  0  0  0  0  0  0  0  0  0
   -2.8738   -6.9819   -2.3266 C   0  0  0  0  0  0  0  0  0  0  0  0
   -3.5894   -7.2070   -0.7463 S   0  0  0  0  0  0  0  0  0  0  0  0
   -2.8219   -5.7489   -0.2143 C   0  0  0  0  0  0  0  0  0  0  0  0
   -2.7538   -4.9301    0.9226 C   0  0  0  0  0  0  0  0  0  0  0  0
   -3.4179   -5.0366    2.1630 C   0  0  0  0  0  0  0  0  0  0  0  0
   -3.2565   -3.9873    3.1245 C   0  0  0  0  0  0  0  0  0  0  0  0
   -3.9647   -4.1926    4.2242 N   0  0  0  0  0  0  0  0  0  0  0  0
   -4.7641   -5.5921    4.0623 S   0  0  0  0  0  0  0  0  0  0  0  0
   -4.2379   -5.9876    2.5827 N   0  0  0  0  0  0  0  0  0  0  0  0
   -2.3773   -2.9241    2.8292 C   0  0  0  0  0  0  0  0  0  0  0  0
   -1.9796   -1.8324    3.6156 C   0  0  0  0  0  0  0  0  0  0  0  0
   -2.3036   -1.1402    5.1697 S   0  0  0  0  0  0  0  0  0  0  0  0
   -1.1197    0.1025    4.8357 C   0  0  0  0  0  0  0  0  0  0  0  0
   -0.6460    1.1954    5.5896 C   0  0  0  0  0  0  0  0  0  0  0  0
   -1.0936    1.4760    6.9559 C   0  0  0  0  0  0  0  0  0  0  0  0
   -0.1738    1.6862    7.9807 C   0  0  0  0  0  0  0  0  0  0  0  0
   -0.6194    1.9233    9.2665 C   0  0  0  0  0  0  0  0  0  0  0  0
   -1.9763    1.9471    9.5431 C   0  0  0  0  0  0  0  0  0  0  0  0
   -2.9061    1.7252    8.5362 C   0  0  0  0  0  0  0  0  0  0  0  0
   -4.3764    1.6810    8.8343 C   0  0  0  0  0  0  0  0  0  0  0  0
   -4.8271    0.2344    9.0475 C   0  0  0  0  0  0  0  0  0  0  0  0
   -2.4523    1.4870    7.2467 C   0  0  0  0  0  0  0  0  0  0  0  0
    0.3146    1.9025    4.8904 C   0  0  0  0  0  0  0  0  0  0  0  0
    0.6620    1.2004    3.3196 S   0  0  0  0  0  0  0  0  0  0  0  0
   -0.5133   -0.0360    3.5860 C   0  0  0  0  0  0  0  0  0  0  0  0
   -1.0155   -1.1392    2.8842 C   0  0  0  0  0  0  0  0  0  0  0  0
   -0.8095   -1.7528    1.6800 N   0  0  0  0  0  0  0  0  0  0  0  0
   -1.6530   -2.8481    1.6025 C   0  0  0  0  0  0  0  0  0  0  0  0
   -1.9051   -3.8287    0.6007 C   0  0  0  0  0  0  0  0  0  0  0  0
   -1.5060   -3.9768   -0.7162 N   0  0  0  0  0  0  0  0  0  0  0  0
   -2.0504   -5.1337   -1.2003 C   0  0  0  0  0  0  0  0  0  0  0  0
   -2.0835   -5.8339   -2.4125 C   0  0  0  0  0  0  0  0  0  0  0  0
   -1.4443   -5.6298   -4.0031 S   0  0  0  0  0  0  0  0  0  0  0  0
   -0.7888   -3.1223   -1.6323 C   0  0  0  0  0  0  0  0  0  0  0  0
    0.6436   -3.6079   -1.8571 C   0  0  0  0  0  0  0  0  0  0  0  0
    0.2533   -1.2657    0.8335 C   0  0  0  0  0  0  0  0  0  0  0  0
   -0.1701   -0.0247    0.0464 C   0  0  0  0  0  0  0  0  0  0  0  0
    0.9635    3.1223    5.2428 C   0  0  0  0  0  0  0  0  0  0  0  0
    0.5555    4.0821    6.1207 C   0  0  0  0  0  0  0  0  0  0  0  0
    1.4293    5.1925    6.2055 C   0  0  0  0  0  0  0  0  0  0  0  0
    1.2547    6.3209    7.0220 C   0  0  0  0  0  0  0  0  0  0  0  0
    0.1774    6.4611    7.8597 O   0  0  0  0  0  0  0  0  0  0  0  0
    0.2033    5.6703    9.0413 C   0  0  0  0  0  0  0  0  0  0  0  0
    1.2990    6.1018   10.0087 C   0  0  0  0  0  0  0  0  0  0  0  0
    2.1920    7.3300    6.8975 C   0  0  0  0  0  0  0  0  0  0  0  0
    3.2972    7.2362    6.0149 C   0  0  0  0  0  0  0  0  0  0  0  0
    3.5017    6.0810    5.2189 C   0  0  0  0  0  0  0  0  0  0  0  0
    4.5894    6.1442    4.4246 O   0  0  0  0  0  0  0  0  0  0  0  0
    5.1380    4.9973    3.8049 C   0  0  0  0  0  0  0  0  0  0  0  0
    5.8239    4.0732    4.8042 C   0  0  0  0  0  0  0  0  0  0  0  0
    2.5463    5.0813    5.3290 C   0  0  0  0  0  0  0  0  0  0  0  0
    2.4574    3.5651    4.4474 S   0  0  0  0  0  0  0  0  0  0  0  0
    4.1155    8.3787    6.0525 C   0  0  0  0  0  0  0  0  0  0  0  0
    3.6707    9.3445    6.9249 C   0  0  0  0  0  0  0  0  0  0  0  0
    2.1942    8.8341    7.7556 S   0  0  0  0  0  0  0  0  0  0  0  0
    4.1673   10.6190    7.2740 C   0  0  0  0  0  0  0  0  0  0  0  0
    5.2002   11.3613    6.7728 C   0  0  0  0  0  0  0  0  0  0  0  0
    6.0763   11.0791    5.6079 C   0  0  0  0  0  0  0  0  0  0  0  0
    6.2043   10.0478    4.9809 O   0  0  0  0  0  0  0  0  0  0  0  0
    6.7979   12.3365    5.3432 C   0  0  0  0  0  0  0  0  0  0  0  0
    7.6817   12.6273    4.3215 C   0  0  0  0  0  0  0  0  0  0  0  0
    8.2316   13.8975    4.2694 C   0  0  0  0  0  0  0  0  0  0  0  0
    7.9063   14.8664    5.2173 C   0  0  0  0  0  0  0  0  0  0  0  0
    8.4919   16.2393    5.1187 C   0  0  0  0  0  0  0  0  0  0  0  0
    7.0178   14.5624    6.2472 C   0  0  0  0  0  0  0  0  0  0  0  0
    6.4654   13.2945    6.3144 C   0  0  0  0  0  0  0  0  0  0  0  0
    5.5362   12.6894    7.2651 C   0  0  0  0  0  0  0  0  0  0  0  0
    5.1326   13.2635    8.4416 C   0  0  0  0  0  0  0  0  0  0  0  0
    5.5154   14.5553    8.8609 C   0  0  0  0  0  0  0  0  0  0  0  0
    5.7806   15.5977    9.2627 N   0  0  0  0  0  0  0  0  0  0  0  0
    4.3315   12.6565    9.4331 C   0  0  0  0  0  0  0  0  0  0  0  0
    3.7101   12.2420   10.3057 N   0  0  0  0  0  0  0  0  0  0  0  0
   -1.1642   -8.0876  -10.2628 H   0  0  0  0  0  0  0  0  0  0  0  0
   -1.3155   -1.8136   -9.8496 H   0  0  0  0  0  0  0  0  0  0  0  0
   -0.4512   -4.2514  -14.2043 H   0  0  0  0  0  0  0  0  0  0  0  0
   -1.2731   -0.9880  -14.8099 H   0  0  0  0  0  0  0  0  0  0  0  0
    1.3582   -1.2783  -15.1066 H   0  0  0  0  0  0  0  0  0  0  0  0
    0.7174    1.1949  -15.7210 H   0  0  0  0  0  0  0  0  0  0  0  0
    0.2637    2.5174  -13.4620 H   0  0  0  0  0  0  0  0  0  0  0  0
    0.6283    0.8598  -11.4566 H   0  0  0  0  0  0  0  0  0  0  0  0
    2.5197   -0.0817  -13.0509 H   0  0  0  0  0  0  0  0  0  0  0  0
    1.5755   -1.4571  -12.4346 H   0  0  0  0  0  0  0  0  0  0  0  0
   -1.7170    0.3039  -12.5925 H   0  0  0  0  0  0  0  0  0  0  0  0
   -1.5310   -9.5688   -8.4466 H   0  0  0  0  0  0  0  0  0  0  0  0
   -1.5110  -11.5239   -7.4631 H   0  0  0  0  0  0  0  0  0  0  0  0
   -1.1345  -12.3598   -5.9504 H   0  0  0  0  0  0  0  0  0  0  0  0
    0.9075  -10.9787   -5.6508 H   0  0  0  0  0  0  0  0  0  0  0  0
    0.9676  -11.8203   -7.2050 H   0  0  0  0  0  0  0  0  0  0  0  0
    0.5637  -10.1021   -7.1439 H   0  0  0  0  0  0  0  0  0  0  0  0
   -4.6768   -8.1497   -5.5850 H   0  0  0  0  0  0  0  0  0  0  0  0
   -6.2686  -10.0163   -5.8001 H   0  0  0  0  0  0  0  0  0  0  0  0
   -6.4187  -11.7261   -4.0371 H   0  0  0  0  0  0  0  0  0  0  0  0
   -5.4544  -12.7694   -2.0813 H   0  0  0  0  0  0  0  0  0  0  0  0
   -4.0298  -12.0658   -1.3018 H   0  0  0  0  0  0  0  0  0  0  0  0
   -5.9837  -12.0030    0.2291 H   0  0  0  0  0  0  0  0  0  0  0  0
   -6.9004  -11.0725   -0.9606 H   0  0  0  0  0  0  0  0  0  0  0  0
   -5.4806  -10.3621   -0.1936 H   0  0  0  0  0  0  0  0  0  0  0  0
   -3.3555   -9.7327   -1.8434 H   0  0  0  0  0  0  0  0  0  0  0  0
    0.8842    1.6545    7.7650 H   0  0  0  0  0  0  0  0  0  0  0  0
    0.0948    2.0849   10.0609 H   0  0  0  0  0  0  0  0  0  0  0  0
   -2.3152    2.1350   10.5516 H   0  0  0  0  0  0  0  0  0  0  0  0
   -4.9359    2.1123    8.0016 H   0  0  0  0  0  0  0  0  0  0  0  0
   -4.5923    2.2646    9.7312 H   0  0  0  0  0  0  0  0  0  0  0  0
   -5.8930    0.1961    9.2588 H   0  0  0  0  0  0  0  0  0  0  0  0
   -4.6258   -0.3599    8.1592 H   0  0  0  0  0  0  0  0  0  0  0  0
   -4.2907   -0.2088    9.8836 H   0  0  0  0  0  0  0  0  0  0  0  0
   -3.1657    1.3210    6.4526 H   0  0  0  0  0  0  0  0  0  0  0  0
   -1.3191   -3.1578   -2.5902 H   0  0  0  0  0  0  0  0  0  0  0  0
   -0.8200   -2.0963   -1.2793 H   0  0  0  0  0  0  0  0  0  0  0  0
    1.1740   -3.7388   -0.9158 H   0  0  0  0  0  0  0  0  0  0  0  0
    0.6343   -4.5649   -2.3716 H   0  0  0  0  0  0  0  0  0  0  0  0
    1.1836   -2.8931   -2.4717 H   0  0  0  0  0  0  0  0  0  0  0  0
    0.5977   -2.0627    0.1814 H   0  0  0  0  0  0  0  0  0  0  0  0
    1.0882   -0.9917    1.4880 H   0  0  0  0  0  0  0  0  0  0  0  0
   -1.0932   -0.1958   -0.5038 H   0  0  0  0  0  0  0  0  0  0  0  0
    0.6127    0.2539   -0.6536 H   0  0  0  0  0  0  0  0  0  0  0  0
   -0.3363    0.8080    0.7245 H   0  0  0  0  0  0  0  0  0  0  0  0
   -0.3699    4.0250    6.6631 H   0  0  0  0  0  0  0  0  0  0  0  0
    0.3212    4.6078    8.7912 H   0  0  0  0  0  0  0  0  0  0  0  0
   -0.7828    5.8202    9.4864 H   0  0  0  0  0  0  0  0  0  0  0  0
    1.2153    5.5345   10.9314 H   0  0  0  0  0  0  0  0  0  0  0  0
    1.2049    7.1615   10.2322 H   0  0  0  0  0  0  0  0  0  0  0  0
    2.2818    5.9240    9.5755 H   0  0  0  0  0  0  0  0  0  0  0  0
    5.8740    5.4082    3.1086 H   0  0  0  0  0  0  0  0  0  0  0  0
    4.3803    4.4555    3.2286 H   0  0  0  0  0  0  0  0  0  0  0  0
    6.5710    4.6281    5.3664 H   0  0  0  0  0  0  0  0  0  0  0  0
    6.3097    3.2598    4.2737 H   0  0  0  0  0  0  0  0  0  0  0  0
    5.1033    3.6533    5.5017 H   0  0  0  0  0  0  0  0  0  0  0  0
    4.9990    8.4859    5.4508 H   0  0  0  0  0  0  0  0  0  0  0  0
    3.5892   11.0875    8.0625 H   0  0  0  0  0  0  0  0  0  0  0  0
    7.9281   11.8741    3.5889 H   0  0  0  0  0  0  0  0  0  0  0  0
    8.9253   14.1482    3.4801 H   0  0  0  0  0  0  0  0  0  0  0  0
    7.9151   16.8355    4.4108 H   0  0  0  0  0  0  0  0  0  0  0  0
    9.5185   16.1988    4.7617 H   0  0  0  0  0  0  0  0  0  0  0  0
    8.4680   16.7424    6.0818 H   0  0  0  0  0  0  0  0  0  0  0  0
    6.7707   15.3212    6.9720 H   0  0  0  0  0  0  0  0  0  0  0  0
  1  2  2  0  0  0  0
  2  3  1  0  0  0  0
  3  4  2  0  0  0  0
  3  5  1  0  0  0  0
  5  6  2  0  0  0  0
  6  7  1  0  0  0  0
  7  8  2  0  0  0  0
  8  9  1  0  0  0  0
  9 10  2  0  0  0  0
 10 11  1  0  0  0  0
 11 12  2  0  0  0  0
 12 13  1  0  0  0  0
 13 14  3  0  0  0  0
 12 15  1  0  0  0  0
 15 16  3  0  0  0  0
  8 17  1  0  0  0  0
 17 18  1  0  0  0  0
 18 19  1  0  0  0  0
 19 20  2  0  0  0  0
 20 21  1  0  0  0  0
 21 22  1  0  0  0  0
 21 23  1  0  0  0  0
  1 24  1  0  0  0  0
 24 25  2  0  0  0  0
 25 26  1  0  0  0  0
 26 27  1  0  0  0  0
 27 28  1  0  0  0  0
 28 29  1  0  0  0  0
 26 30  2  0  0  0  0
 30 31  1  0  0  0  0
 30 32  1  0  0  0  0
 32 33  2  0  0  0  0
 33 34  1  0  0  0  0
 34 35  2  0  0  0  0
 35 36  1  0  0  0  0
 36 37  2  0  0  0  0
 37 38  1  0  0  0  0
 38 39  1  0  0  0  0
 39 40  1  0  0  0  0
 38 41  2  0  0  0  0
 33 42  1  0  0  0  0
 42 43  1  0  0  0  0
 43 44  1  0  0  0  0
 44 45  1  0  0  0  0
 45 46  1  0  0  0  0
 46 47  1  0  0  0  0
 47 48  2  0  0  0  0
 48 49  1  0  0  0  0
 49 50  1  0  0  0  0
 47 51  1  0  0  0  0
 51 52  1  0  0  0  0
 52 53  1  0  0  0  0
 53 54  1  0  0  0  0
 54 55  1  0  0  0  0
 55 56  1  0  0  0  0
 56 57  2  0  0  0  0
 57 58  1  0  0  0  0
 58 59  2  0  0  0  0
 59 60  1  0  0  0  0
 60 61  1  0  0  0  0
 61 62  1  0  0  0  0
 60 63  2  0  0  0  0
 55 64  2  0  0  0  0
 64 65  1  0  0  0  0
 65 66  1  0  0  0  0
 66 67  1  0  0  0  0
 67 68  1  0  0  0  0
 68 69  1  0  0  0  0
 69 70  1  0  0  0  0
 70 71  1  0  0  0  0
 71 72  1  0  0  0  0
 72 73  1  0  0  0  0
 73 74  1  0  0  0  0
 71 75  1  0  0  0  0
 75 76  1  0  0  0  0
 68 77  1  0  0  0  0
 77 78  1  0  0  0  0
 64 79  1  0  0  0  0
 79 80  2  0  0  0  0
 80 81  1  0  0  0  0
 81 82  2  0  0  0  0
 82 83  1  0  0  0  0
 83 84  1  0  0  0  0
 84 85  1  0  0  0  0
 82 86  1  0  0  0  0
 86 87  2  0  0  0  0
 87 88  1  0  0  0  0
 88 89  1  0  0  0  0
 89 90  1  0  0  0  0
 90 91  1  0  0  0  0
 88 92  2  0  0  0  0
 92 93  1  0  0  0  0
 87 94  1  0  0  0  0
 94 95  2  0  0  0  0
 95 96  1  0  0  0  0
 95 97  1  0  0  0  0
 97 98  2  0  0  0  0
 98 99  1  0  0  0  0
 99100  2  0  0  0  0
 99101  1  0  0  0  0
101102  2  0  0  0  0
102103  1  0  0  0  0
103104  2  0  0  0  0
104105  1  0  0  0  0
104106  1  0  0  0  0
106107  2  0  0  0  0
107108  1  0  0  0  0
108109  2  0  0  0  0
109110  1  0  0  0  0
110111  3  0  0  0  0
109112  1  0  0  0  0
112113  3  0  0  0  0
 11  2  1  0  0  0  0
 23 17  1  0  0  0  0
 31 24  1  0  0  0  0
 74 32  1  0  0  0  0
 93 79  1  0  0  0  0
108 98  1  0  0  0  0
 10  5  1  0  0  0  0
 22 18  1  0  0  0  0
 41 34  1  0  0  0  0
 73 42  2  0  0  0  0
 92 81  1  0  0  0  0
107101  1  0  0  0  0
 23  7  1  0  0  0  0
 72 44  2  0  0  0  0
 96 86  1  0  0  0  0
 70 45  2  0  0  0  0
 50 46  2  0  0  0  0
 69 51  2  0  0  0  0
 67 52  2  0  0  0  0
 66 54  2  0  0  0  0
 63 56  1  0  0  0  0
  1114  1  0  0  0  0
  6115  1  0  0  0  0
  9116  1  0  0  0  0
 17117  1  0  0  0  0
 18118  1  0  0  0  0
 19119  1  0  0  0  0
 20120  1  0  0  0  0
 21121  1  0  0  0  0
 22122  1  0  0  0  0
 22123  1  0  0  0  0
 23124  1  0  0  0  0
 25125  1  0  0  0  0
 28126  1  0  0  0  0
 28127  1  0  0  0  0
 29128  1  0  0  0  0
 29129  1  0  0  0  0
 29130  1  0  0  0  0
 35131  1  0  0  0  0
 36132  1  0  0  0  0
 37133  1  0  0  0  0
 39134  1  0  0  0  0
 39135  1  0  0  0  0
 40136  1  0  0  0  0
 40137  1  0  0  0  0
 40138  1  0  0  0  0
 41139  1  0  0  0  0
 57140  1  0  0  0  0
 58141  1  0  0  0  0
 59142  1  0  0  0  0
 61143  1  0  0  0  0
 61144  1  0  0  0  0
 62145  1  0  0  0  0
 62146  1  0  0  0  0
 62147  1  0  0  0  0
 63148  1  0  0  0  0
 75149  1  0  0  0  0
 75150  1  0  0  0  0
 76151  1  0  0  0  0
 76152  1  0  0  0  0
 76153  1  0  0  0  0
 77154  1  0  0  0  0
 77155  1  0  0  0  0
 78156  1  0  0  0  0
 78157  1  0  0  0  0
 78158  1  0  0  0  0
 80159  1  0  0  0  0
 84160  1  0  0  0  0
 84161  1  0  0  0  0
 85162  1  0  0  0  0
 85163  1  0  0  0  0
 85164  1  0  0  0  0
 90165  1  0  0  0  0
 90166  1  0  0  0  0
 91167  1  0  0  0  0
 91168  1  0  0  0  0
 91169  1  0  0  0  0
 94170  1  0  0  0  0
 97171  1  0  0  0  0
102172  1  0  0  0  0
103173  1  0  0  0  0
105174  1  0  0  0  0
105175  1  0  0  0  0
105176  1  0  0  0  0
106177  1  0  0  0  0
M  END
