201

C         -8.68720        9.84130        1.67830
C         -8.66130        9.71370        0.32560
C         -9.66370       10.41760       -0.51770
O        -10.38930       11.32480       -0.17820
C         -9.61840        9.73050       -1.82370
C        -10.45650        9.94260       -2.91680
C        -10.18630        9.13440       -3.99470
C         -9.16070        8.17860       -3.99150
C         -8.31810        7.96550       -2.92650
C         -8.57420        8.78060       -1.82070
C         -7.86740        8.87570       -0.54750
C         -6.57240        8.48720       -0.31890
C         -5.83730        8.90570        0.80950
N         -5.19350        9.28300        1.68240
C         -5.80210        7.71460       -1.20890
N         -5.13900        7.05990       -1.88000
C         -9.47370        7.72140       -5.39450
C        -10.25090        6.39520       -5.53330
C        -10.81730        6.45370       -6.93370
C        -11.78420        7.36240       -6.94030
C        -11.88770        7.93320       -5.54440
C        -11.51990        6.69070       -4.72330
C        -10.61270        8.79090       -5.40040
C         -8.11430        8.98670        2.65180
C         -7.80420        9.31480        3.95370
C         -7.22800        8.26830        4.68240
S         -6.57120        8.43310        6.30490
C         -5.68160       10.02920        6.14180
C         -4.57470        9.96580        5.10920
C         -7.16050        7.08390        3.96320
S         -7.77740        7.29960        2.35370
C         -6.61560        5.82610        4.34120
C         -6.63970        5.18680        5.56860
C         -7.44900        5.59790        6.71320
C         -8.75010        6.06280        6.53250
C         -9.50940        6.42710        7.62680
C         -8.98320        6.33680        8.90330
C         -7.69200        5.86500        9.10280
C         -7.09260        5.81710       10.47820
C         -6.35140        7.12290       10.77160
C         -6.93770        5.49160        8.00230
C         -5.86240        4.01120        5.53730
S         -5.53080        2.78480        6.73660
C         -4.59170        1.92470        5.56500
C         -3.87300        0.72430        5.45160
C         -3.73660       -0.36730        6.33640
C         -3.05930       -1.54840        5.88110
N         -3.06420       -2.51480        6.78560
S         -3.84830       -1.98370        8.09910
N         -4.21310       -0.49940        7.56430
C         -2.43230       -1.53000        4.61600
C         -1.57490       -2.45410        3.99640
S         -0.91040       -4.02660        4.28680
C          0.04810       -3.85930        2.83550
C          0.99040       -4.70200        2.21740
C          1.33470       -6.03640        2.72040
C          1.78930       -6.19670        4.02420
C          2.10880       -7.45920        4.48860
C          1.97000       -8.56260        3.66530
C          1.49880       -8.42200        2.36540
C          1.38730       -9.61300        1.45830
C          2.73970       -9.91450        0.80970
C          1.18120       -7.15380        1.90510
C          1.52640       -4.11360        1.08620
S          0.83050       -2.52880        0.76120
C         -0.16030       -2.64860        2.17070
C         -1.09950       -1.84820        2.83110
N         -1.66210       -0.60730        2.67630
C         -2.49310       -0.39080        3.76620
C         -3.33650        0.69020        4.13320
N         -3.77490        1.81170        3.45440
C         -4.52840        2.55790        4.32090
C         -5.27270        3.74410        4.29900
S         -5.68040        4.95300        3.13510
C         -3.84030        2.07600        2.03450
C         -2.95780        3.25230        1.62040
C         -0.96850        0.36470        1.85790
C          0.00500        1.18930        2.69720
C          2.61210       -4.54060        0.27400
C          3.09440       -3.91240       -0.84150
C          4.26660       -4.49770       -1.37100
C          5.00970       -4.10010       -2.50150
C          4.67960       -2.90450       -3.24280
C          4.22910       -1.70010       -2.77310
C          4.05290       -0.74220       -3.78730
Cl         3.51450        0.86270       -3.49420
C          4.36870       -1.19950       -5.04190
S          4.30650       -0.25380       -6.50350
C          5.10430       -1.37220       -7.70980
C          4.13950       -2.39400       -8.27840
S          4.87700       -2.85440       -4.97440
C          6.10170       -4.89580       -2.84430
C          6.48550       -6.04630       -2.10620
C          5.72740       -6.45880       -0.98030
C          6.02720       -7.67150       -0.26040
S          5.76970       -7.77210        1.46410
C          6.23810       -9.43950        1.49340
S          6.20430      -10.44200        2.91630
C          5.60390       -9.27440        4.18800
C          6.70330       -8.37030        4.70890
C          6.57740       -9.86820        0.23360
C          6.46250       -8.87370       -0.75280
Cl         7.06440      -11.48190       -0.09030
C          4.66030       -5.64200       -0.63110
S          3.58800       -5.92450        0.71510
C          7.68060       -6.59130       -2.59740
C          8.20650       -5.91920       -3.68610
S          7.20130       -4.56510       -4.15110
C          9.42130       -6.30760       -4.28840
C         10.11060       -5.75470       -5.33030
C          9.71600       -4.56840       -6.11090
O          8.68430       -3.92820       -6.02630
C         10.82500       -4.29900       -7.03970
C         10.91520       -3.24660       -7.94790
C         12.08250       -3.23150       -8.67190
C         13.08520       -4.19690       -8.50780
C         13.00450       -5.24470       -7.62190
C         11.82570       -5.27700       -6.87060
C         11.39260       -6.21540       -5.83750
C         12.08290       -7.33340       -5.44660
C         11.67180       -8.26360       -4.46850
N         11.41680       -9.07620       -3.69720
C         13.32450       -7.73510       -5.98370
N         14.33260       -8.12820       -6.36790
C         13.98070       -3.55670       -9.53830
C         15.18050       -2.72010       -9.02860
C         14.79990       -2.21200       -7.66000
C         13.85100       -1.29870       -7.81650
C         13.57240       -1.17300       -9.29410
C         14.97660       -1.44210       -9.85800
C         12.86320       -2.48190       -9.72200
H         -9.27840       10.66700        2.06250
H        -11.23360       10.68990       -2.88270
H         -7.53020        7.23000       -2.92980
H         -8.66410        7.81730       -6.11530
H         -9.68420        5.50590       -5.27130
H        -10.43160        5.88740       -7.76090
H        -12.36740        7.70680       -7.77400
H        -12.81240        8.44510       -5.29250
H        -11.33710        6.89320       -3.66960
H        -12.26230        5.90010       -4.81870
H        -10.56070        9.60210       -6.12400
H         -7.94830       10.30670        4.34210
H         -6.40570       10.81120        5.91940
H         -5.28130       10.19620        7.14180
H         -4.02900       10.90710        5.09950
H         -3.88040        9.16400        5.35010
H         -4.97220        9.78940        4.11200
H         -9.16670        6.12010        5.53750
H        -10.51870        6.78420        7.48310
H         -9.58110        6.63150        9.75370
H         -7.87760        5.67140       11.22250
H         -6.39360        4.98150       10.54780
H         -7.03740        7.96560       10.72260
H         -5.56540        7.28200       10.03700
H         -5.90410        7.09400       11.76250
H         -5.92760        5.13720        8.14480
H          1.90050       -5.33380        4.66330
H          2.46640       -7.58270        5.50050
H          2.21690       -9.54730        4.03640
H          0.64980       -9.41540        0.67840
H          1.05950      -10.48530        2.02730
H          3.47360      -10.17730        1.56760
H          2.65340      -10.74600        0.11460
H          3.10140       -9.04360        0.26650
H          0.80090       -7.02780        0.90100
H         -4.88080        2.32290        1.79330
H         -3.59000        1.16120        1.49550
H         -2.98530        3.36990        0.54070
H         -3.32700        4.17000        2.06980
H         -1.92810        3.11210        1.93590
H         -1.66710        1.01500        1.33970
H         -0.41630       -0.19940        1.10190
H         -0.52650        1.73570        3.47380
H          0.73430        0.53860        3.17460
H          0.53390        1.89670        2.06430
H          2.60020       -3.06440       -1.27900
H          4.08520       -1.47400       -1.73320
H          5.47230       -0.70630       -8.49020
H          5.94840       -1.84590       -7.20860
H          3.75000       -3.03690       -7.49300
H          3.30580       -1.89800       -8.77010
H          4.65600       -3.01600       -9.00630
H          4.78160       -8.70560        3.75230
H          5.22000       -9.91750        4.97980
H          7.51110       -8.95980        5.13600
H          7.10620       -7.75190        3.91060
H          6.30120       -7.71650        5.47960
H          6.64010       -9.06720       -1.79400
H          8.18250       -7.43200       -2.15300
H          9.86430       -7.17390       -3.81200
H         10.11850       -2.52500       -8.03990
H         13.78620       -5.97700       -7.51060
H         14.24060       -4.17490      -10.39510
H         16.14280       -3.21910       -9.10460
H         15.20700       -2.59760       -6.74370
H         13.30640       -0.76890       -7.05700
H         13.07090       -0.26280       -9.61250
H         15.68900       -0.65820       -9.60530
H         14.98680       -1.61610      -10.93310
H         12.39180       -2.39850      -10.69930
