211

C          2.37210       -2.43670        9.21890
C          3.47090       -2.55890        8.42410
C          3.51980       -3.15720        7.07200
O          2.77500       -3.99190        6.60000
C          4.67080       -2.52930        6.40150
C          5.00380       -2.61780        5.05080
C          6.08760       -1.85350        4.69140
C          6.80180       -1.07160        5.61080
C          6.50070       -0.99550        6.95010
C          5.38950       -1.75340        7.33430
C          4.73640       -1.86880        8.63440
C          5.23940       -1.44200        9.83200
C          6.48810       -0.80270        9.98320
N          7.49150       -0.27670       10.16740
C          4.60100       -1.62790       11.07770
N          4.14180       -1.75230       12.12230
C          7.73760       -0.54180        4.55290
C          7.46850        0.89460        4.05500
C          8.19990        0.96180        2.73360
C          7.52940        0.21830        1.86290
C          6.33210       -0.36240        2.58040
C          6.02370        0.78590        3.54990
C          6.94420       -1.41590        3.52920
C          1.03540       -2.82680        8.95360
C         -0.04520       -2.21380        9.55170
C         -1.28110       -2.54160        8.96380
C         -2.53100       -1.92030        9.19790
C         -2.72860       -1.05720       10.34180
S         -3.51540        0.49010       10.22020
C         -3.34590        0.79860       11.91370
C         -3.90010        2.03420       12.53160
C         -5.37760        1.84760       12.88580
C         -2.73000       -0.25100       12.52900
Cl        -2.40540       -0.31510       14.21280
C         -2.37190       -1.30070       11.64330
Cl        -1.65140       -2.75770       12.19530
C         -3.50190       -2.13590        8.23010
C         -3.35310       -3.09860        7.20100
C         -2.18690       -3.87970        7.09760
C         -2.08340       -4.96960        6.15510
C         -0.99190       -5.44390        5.47830
C         -1.27260       -6.57640        4.69130
C         -2.56900       -6.98730        4.76430
C         -3.20930       -8.16350        4.11240
C         -3.43260       -9.29690        5.11610
S         -3.48200       -5.96140        5.81640
C         -1.12960       -3.49660        7.92710
S          0.53030       -3.95680        7.71930
C         -4.38160       -2.98510        6.23070
C         -5.26830       -1.98570        6.47990
S         -4.96010       -1.19980        8.01730
C         -6.05280       -1.35040        5.44020
C         -7.14600       -1.71100        4.69270
C         -8.09420       -2.77560        5.01970
C         -7.71590       -3.91400        5.72890
C         -8.64660       -4.89640        6.00780
C         -9.95910       -4.76150        5.59050
C        -10.35760       -3.63280        4.88610
C        -11.78790       -3.44690        4.46860
C        -12.55760       -2.66720        5.53630
C         -9.42020       -2.64970        4.61170
C         -7.24670       -0.89640        3.52710
S         -8.24120       -1.00240        2.09160
C         -7.21580        0.14940        1.30340
C         -7.00260        0.67860        0.01280
C         -7.72020        0.61600       -1.20360
C         -7.18220        1.26050       -2.37670
N         -7.98520        1.15060       -3.42210
S         -9.29860        0.31340       -2.98080
N         -8.89410        0.05160       -1.43580
C         -5.88020        1.81170       -2.32570
C         -4.96440        2.19000       -3.32610
S         -4.87560        2.33360       -5.05340
C         -3.14370        2.54970       -4.92830
C         -2.11990        2.65820       -5.88710
C         -2.37350        2.76310       -7.33000
C         -2.95470        1.71040       -8.02590
C         -3.22160        1.84900       -9.37500
C         -2.93930        3.03770      -10.02470
C         -2.38370        4.10820       -9.33590
C         -2.08240        5.40510      -10.03140
C         -0.61990        5.45930      -10.47360
C         -2.09020        3.95360       -7.98930
C         -0.87080        2.67370       -5.29450
S         -0.96420        2.64160       -3.53630
C         -2.68540        2.54450       -3.60890
C         -3.72790        2.37090       -2.69520
N         -3.85470        2.18760       -1.34630
C         -5.16560        1.84090       -1.09810
C         -5.79850        1.41720        0.09180
N         -5.34490        1.44150        1.40500
C         -6.19970        0.63880        2.12760
C         -6.23160        0.04770        3.39860
S         -5.19290        0.03520        4.77330
C         -4.69140        2.60190        1.98700
C         -3.50660        2.28130        2.89140
C         -2.68980        1.98410       -0.51720
C         -1.96320        3.28790       -0.19690
C          0.41620        2.53930       -5.88170
C          1.58380        2.32970       -5.19690
C          2.69830        2.09200       -6.02680
C          4.00190        1.74070       -5.62900
C          4.36080        1.57270       -4.22950
S          4.14470        2.83310       -3.05040
C          4.80220        1.86420       -1.77470
C          4.87130        2.36150       -0.37260
C          3.56920        2.06390        0.37490
C          5.14880        0.63510       -2.24880
Cl         5.81080       -0.61050       -1.27670
C          4.90830        0.46760       -3.63850
Cl         5.20680       -1.01270       -4.45100
C          4.92510        1.51720       -6.63960
C          4.58980        1.57270       -8.02130
C          3.25720        1.84680       -8.42130
C          2.84380        1.78960       -9.80330
C          1.89750        2.55360      -10.43510
C          1.70060        2.19410      -11.77880
C          2.47720        1.14700      -12.18040
C          2.51540        0.47740      -13.51000
C          1.87220       -0.90990      -13.45300
S          3.48340        0.58960      -10.89320
C          2.35670        2.13440       -7.40290
S          0.65570        2.48310       -7.61370
C          5.71050        1.37010       -8.84270
C          6.87980        1.14360       -8.15170
S          6.61040        1.18910       -6.40800
C          8.20130        0.89130       -8.56960
C          8.76110        0.73530       -9.81090
C          8.09750        0.76510      -11.14200
O          6.94210        1.01260      -11.41430
C          9.15790        0.43040      -12.10140
C         10.39820        0.24520      -11.41450
C         11.42930       -0.06490      -12.24540
S         10.90630       -0.13910      -13.88950
C          9.26150        0.25890      -13.44760
Cl         8.04180        0.38550      -14.61690
C         10.17850        0.45190       -9.99580
C         11.17860        0.39330       -9.05900
C         11.06580        0.61270       -7.67190
N         11.07340        0.78250       -6.53560
C         12.50800        0.10250       -9.43140
N         13.59660       -0.13350       -9.70830
H          2.47320       -1.83890       10.11830
H          4.42760       -3.23200        4.37670
H          7.05760       -0.39040        7.64640
H          8.79490       -0.74750        4.70660
H          7.68990        1.67530        4.77780
H          9.12980        1.47940        2.58840
H          7.78770       -0.01100        0.84610
H          5.52040       -0.72640        1.95660
H          5.29970        0.53310        4.32260
H          5.70250        1.68800        3.03130
H          7.47150       -2.20750        3.00080
H          0.06840       -1.47260       10.32250
H         -3.79590        2.86700       11.83420
H         -3.33250        2.25950       13.43630
H         -5.77200        2.75600       13.33290
H         -5.49440        1.03120       13.59390
H         -5.95300        1.61810       11.99210
H         -0.02140       -4.98450        5.51140
H         -0.53280       -7.07200        4.08780
H         -4.17080       -7.87020        3.68380
H         -2.56370       -8.51120        3.30320
H         -2.48490       -9.61320        5.54590
H         -4.08340       -8.96350        5.92140
H         -3.89480      -10.14950        4.62520
H         -4.39180       -3.54280        5.31130
H         -6.69530       -4.03940        6.05050
H         -8.34210       -5.77780        6.55300
H        -10.67840       -5.53720        5.81010
H        -11.82770       -2.90040        3.52440
H        -12.26050       -4.41990        4.32190
H        -12.54280       -3.20460        6.48200
H        -12.10430       -1.69080        5.69160
H        -13.59220       -2.52580        5.23280
H         -9.73390       -1.76310        4.08060
H         -3.18680        0.79020       -7.51090
H         -3.66360        1.02840       -9.92070
H         -3.16540        3.14130      -11.07630
H         -2.28290        6.23860       -9.35480
H         -2.72760        5.51280      -10.90530
H         -0.40820        6.39960      -10.97740
H         -0.40380        4.64210      -11.15760
H          0.03750        5.37340       -9.61090
H         -1.65670        4.77480       -7.43550
H         -4.38400        3.24220        1.16020
H         -5.43530        3.15670        2.57280
H         -2.81110        1.59100        2.42330
H         -3.84160        1.83940        3.82390
H         -2.97780        3.20200        3.12260
H         -2.99970        1.46440        0.38660
H         -2.00090        1.32980       -1.06460
H         -1.60630        3.75250       -1.11210
H         -1.10740        3.07920        0.43880
H         -2.61140        3.99480        0.31420
H          1.63110        2.31720       -4.12270
H          5.05020        3.43780       -0.37820
H          5.70430        1.87010        0.13480
H          3.62870        2.43460        1.39470
H          2.73030        2.54460       -0.12330
H          3.38880        0.99230        0.40430
H          1.39100        3.37420       -9.96250
H          1.00860        2.69540      -12.43220
H          3.55320        0.37710      -13.83710
H          1.98560        1.10030      -14.23390
H          2.40570       -1.54300      -12.74750
H          1.90130       -1.37940      -14.43290
H          0.83520       -0.83350      -13.13340
H          5.68910        1.40640       -9.91540
H          8.88630        0.78570       -7.73590
H         12.45820       -0.25740      -12.01590
