177

C          6.42310        5.94780        7.20660
C          6.36720        4.86430        8.04240
C          5.37270        3.78770        7.97810
O          4.45910        3.67050        7.17820
C          5.68820        2.86270        9.07780
C          5.00760        1.69440        9.41200
C          5.53330        1.03170       10.49480
C          6.65780        1.49500       11.19060
C          7.33980        2.64460       10.86900
C          6.81850        3.33840        9.77330
C          7.26440        4.58280        9.14730
C          8.34490        5.32620        9.54700
C          8.79290        6.52250        8.94850
N          9.23150        7.49580        8.52360
C          9.18560        4.99760       10.63140
N          9.91150        4.80090       11.49920
C          6.62930        0.34340       12.16380
C          6.07180        0.61240       13.58340
C          5.10760        1.76540       13.45390
C          4.04120        1.32950       12.79680
C          4.26500       -0.12630       12.47000
C          5.08120       -0.55720       13.69910
C          5.37460       -0.17140       11.39020
C          5.60530        6.29360        6.11830
C          5.83130        7.43130        5.34960
C          4.92800        7.60550        4.30920
S          5.09090        8.91870        3.13760
C          5.25900        7.95210        1.57590
C          4.27360        8.40650        0.51860
C          3.95570        6.61000        4.28000
S          4.22380        5.41400        5.50810
C          2.83840        6.47920        3.39980
C          1.93970        7.44460        2.98210
C          1.91730        8.81890        3.47980
C          1.62980        9.88090        2.62650
C          1.64240       11.17430        3.11050
C          1.93510       11.42220        4.44010
C          2.19370       10.37290        5.31250
C          2.54770       10.62300        6.75000
C          4.06080       10.51380        6.94780
C          2.17170        9.07710        4.82320
C          0.99750        6.90240        2.08250
S         -0.35160        7.60270        1.22060
C         -0.69450        6.04890        0.54200
C         -1.56880        5.46920       -0.39150
C         -2.52850        6.04230       -1.25470
C         -3.13000        5.22190       -2.26930
N         -3.94600        5.90720       -3.05450
S         -3.96510        7.44790       -2.55590
N         -2.92690        7.30270       -1.32210
C         -2.83900        3.84050       -2.29310
C         -3.31760        2.79410       -3.10140
S         -4.36200        2.55180       -4.46110
C         -4.04880        0.83240       -4.36930
C         -4.50770       -0.27300       -5.11280
C         -5.50680       -0.16920       -6.17660
C         -6.56060       -1.07860       -6.25340
C         -7.50970       -0.95030       -7.24820
C         -7.42420        0.08130       -8.16790
C         -6.39010        1.00590       -8.09730
C         -6.27010        2.10870       -9.10900
C         -5.37400        1.67390      -10.27040
C         -5.43740        0.87000       -7.09860
C         -3.96570       -1.45590       -4.63490
S         -2.91560       -1.21230       -3.25950
C         -3.18100        0.48730       -3.33120
C         -2.76810        1.61140       -2.60470
N         -1.96410        1.87660       -1.52560
C         -1.97000        3.24880       -1.33520
C         -1.22940        4.09040       -0.46690
N         -0.14840        3.85750        0.36340
C          0.17420        5.04220        0.97160
C          1.15090        5.53380        1.84810
S          2.48830        4.89160        2.73410
C          0.78210        2.75100        0.38650
C          0.75820        2.00160        1.71940
C         -1.75970        0.83430       -0.54170
C         -3.08490        0.37360        0.06590
C         -4.05910       -2.76810       -5.22930
C         -4.10060       -2.90540       -6.63170
C         -4.11170       -4.13390       -7.24640
C         -4.04610       -5.32720       -6.50880
C         -4.05010       -5.20230       -5.12700
C         -4.10570       -6.25240       -4.07920
O         -4.16110       -7.45490       -4.18500
N         -4.12890       -5.57190       -2.87960
C         -4.11890       -6.22910       -1.59120
C         -2.69520       -6.58080       -1.17450
C         -4.10810       -4.19440       -3.03540
O         -4.16110       -3.41250       -2.11690
C         -4.05710       -3.95640       -4.49600
C         -3.99930       -6.61370       -7.18180
C         -3.13120       -7.59520       -6.87320
C         -2.01490       -7.46630       -5.88520
O         -1.58950       -6.45050       -5.38120
C         -1.47630       -8.82340       -5.72060
C         -0.46680       -9.21670       -4.84360
C         -0.15550      -10.55220       -4.90980
C         -0.80660      -11.43900       -5.78060
C         -1.80160      -11.06640       -6.65050
C         -2.12650       -9.70560       -6.60940
C         -3.10250       -8.95860       -7.39160
C         -3.84320       -9.44870       -8.43120
C         -3.77810      -10.77690       -8.90610
N         -3.77120      -11.83410       -9.35270
C         -4.75070       -8.69610       -9.20780
N         -5.49560       -8.15040       -9.89020
C          0.01810      -12.61630       -5.32520
C          1.16050      -13.09330       -6.25600
C          1.58330      -11.89210       -7.06510
C          2.20160      -11.05060       -6.24730
C          2.20870      -11.66800       -4.87050
C          2.31370      -13.15580       -5.24170
C          0.74620      -11.62830       -4.36010
H          7.20650        6.67330        7.38860
H          4.14770        1.37310        8.84510
H          8.20350        2.98360       11.41570
H          7.51440       -0.28940       12.17870
H          6.83040        0.70540       14.35580
H          5.31840        2.76280       13.79280
H          3.18270        1.89030       12.47640
H          3.37760       -0.70630       12.23000
H          5.54900       -1.53460       13.58880
H          4.50170       -0.52860       14.62060
H          5.43920       -1.14210       10.90230
H          6.64950        8.10530        5.53280
H          5.11790        6.90400        1.83190
H          6.28500        8.10500        1.24050
H          4.46580        7.87740       -0.41330
H          4.37520        9.47430        0.34130
H          3.25320        8.20390        0.83110
H          1.41680        9.69630        1.58450
H          1.42940       11.99620        2.44320
H          1.95610       12.43840        4.80650
H          2.04810        9.88950        7.38720
H          2.21380       11.61850        7.04790
H          4.57660       11.22930        6.31170
H          4.40710        9.51690        6.68380
H          4.32610       10.71150        7.98380
H          2.34660        8.25250        5.49960
H         -6.63840       -1.87080       -5.52340
H         -8.32610       -1.65530       -7.30370
H         -8.17250        0.17540       -8.94150
H         -5.84350        2.99580       -8.63700
H         -7.25850        2.36660       -9.49380
H         -4.37730        1.42990       -9.90930
H         -5.78650        0.79340      -10.75840
H         -5.29080        2.47100      -11.00530
H         -4.62280        1.57720       -7.04140
H          1.78840        3.15990        0.23790
H          0.56820        2.09130       -0.45520
H         -0.25300        1.72130        2.00630
H          1.36510        1.10350        1.64630
H          1.16530        2.62630        2.50940
H         -1.12920        1.20950        0.25490
H         -1.26580       -0.00960       -1.03360
H         -3.71850       -0.09640       -0.68040
H         -2.88970       -0.35220        0.85050
H         -3.61640        1.22070        0.49520
H         -4.10110       -2.01250       -7.23720
H         -4.12610       -4.18970       -8.32480
H         -4.57310       -5.54240       -0.87300
H         -4.72480       -7.13460       -1.67650
H         -2.70460       -7.08670       -0.21300
H         -2.09430       -5.67790       -1.09290
H         -2.24420       -7.23760       -1.91490
H         -4.72320       -6.75160       -7.97450
H          0.00420       -8.50160       -4.18720
H         -2.29290      -11.76110       -7.31110
H         -0.53420      -13.44450       -4.88630
H          0.93730      -13.99610       -6.81800
H          1.34620      -11.75670       -8.10410
H          2.58410      -10.07080       -6.46650
H          2.94140      -11.27330       -4.17140
H          3.26700      -13.40780       -5.70360
H          2.12080      -13.82670       -4.40570
H          0.67520      -11.81300       -3.29010
