186

C         11.90380       -0.58380        2.59760
C         12.15500       -1.13020        3.81540
C         13.44840       -1.83400        4.05000
O         14.45060       -1.74800        3.37900
C         13.21310       -2.69370        5.22600
C         14.07420       -3.65370        5.75480
C         13.56330       -4.32980        6.83670
C         12.28310       -4.08290        7.35230
C         11.42490       -3.13610        6.84640
C         11.93180       -2.42670        5.75390
C         11.33500       -1.33270        4.99300
C         10.34520       -0.49930        5.44420
C         10.00910        0.71360        4.80610
N          9.74230        1.73290        4.35180
C          9.60060       -0.71930        6.61800
N          8.94100       -0.87250        7.54610
C         12.42510       -5.13350        8.42500
C         12.71450       -4.62420        9.85280
C         13.27290       -5.83630       10.56300
C         14.48760       -6.06320       10.07970
C         14.77050       -5.00860        9.03400
C         14.00640       -3.82450        9.64030
C         13.85490       -5.40320        7.85540
C         10.65150       -0.22630        2.03540
C          9.39640       -0.63940        2.40410
C          8.36510       -0.11590        1.60140
C          6.97760       -0.32250        1.75130
C          6.45500       -1.06350        2.88610
S          6.92450       -0.61930        4.50550
C          5.91650       -1.83130        5.21730
C          5.80320       -1.96400        6.69530
C          4.69330       -1.05940        7.23660
C          5.25770       -2.52560        4.24650
Cl         4.16760       -3.81160        4.56700
C          5.56050       -2.09650        2.92600
Cl         4.92290       -2.87800        1.54100
C          6.15720        0.27190        0.80630
C          6.66230        1.08480       -0.24140
C          8.04350        1.32410       -0.37050
C          8.53700        2.17030       -1.43930
C          8.04490        3.37450       -1.85810
C          8.72010        3.89120       -2.98050
C          9.72290        3.08630       -3.42630
C         10.59540        3.26850       -4.61970
C         10.12370        2.38950       -5.78050
S          9.86370        1.66490       -2.44550
C          8.86870        0.69340        0.55130
S         10.60140        0.80250        0.61740
C          5.63610        1.55780       -1.08660
C          4.38560        1.14850       -0.72150
S          4.42190        0.16960        0.73530
C          3.14830        1.42160       -1.37130
C          2.92240        2.09000       -2.56260
C          3.94450        2.59400       -3.49040
C          4.84870        1.72440       -4.09500
C          5.80290        2.21900       -4.96330
C          5.85620        3.57410       -5.24200
C          4.94730        4.45090       -4.66540
C          4.95370        5.91110       -5.01350
C          3.95420        6.18920       -6.13800
C          3.99090        3.94790       -3.79400
C          1.54560        2.21710       -2.81990
S          0.66330        2.95080       -4.13720
C         -0.81460        2.43800       -3.39480
C         -2.19900        2.54040       -3.60170
C         -2.94690        3.26000       -4.55880
C         -4.37700        3.28860       -4.44180
N         -4.94480        4.05010       -5.36390
S         -3.78180        4.67320       -6.30170
N         -2.50710        3.99680       -5.56680
C         -4.99670        2.49370       -3.45300
C         -6.35020        2.20570       -3.21560
S         -7.91030        2.64900       -3.81990
C         -8.63180        1.49740       -2.72020
C         -9.96100        1.09790       -2.50470
C        -11.07820        1.59460       -3.31360
C        -11.31070        2.96030       -3.43130
C        -12.34300        3.41400       -4.23230
C        -13.12680        2.51720       -4.93540
C        -12.89310        1.14910       -4.84640
C        -13.69260        0.18300       -5.67300
C        -13.08960        0.06310       -7.07410
C        -11.87120        0.69890       -4.02530
C        -10.04050        0.12110       -1.52370
S         -8.46230       -0.32930       -0.89470
C         -7.69570        0.81720       -1.93350
C         -6.38910        1.23100       -2.21560
N         -5.11850        0.93060       -1.79500
C         -4.24090        1.70150       -2.54350
C         -2.82770        1.83190       -2.53840
N         -1.84470        1.37150       -1.68160
C         -0.63130        1.73160       -2.20280
C          0.72270        1.61900       -1.86220
S          1.65890        0.92250       -0.58890
C         -1.93390        0.94130       -0.30460
C         -1.55120       -0.52770       -0.13000
C         -4.89670       -0.35410       -1.16570
C         -4.58540       -1.42540       -2.20860
C        -11.19070       -0.47630       -0.94510
C        -12.48330        0.02270       -0.95390
C        -13.37060       -0.77870       -0.24770
S        -15.06090       -0.45740        0.03440
C        -15.41800        0.99100       -1.01960
C        -15.50170        0.62360       -2.48750
C        -12.76740       -1.92900        0.31500
S        -11.05430       -1.95150       -0.04470
C        -13.48540       -2.88630        1.02230
C        -13.06180       -4.04110        1.64800
C        -11.67840       -4.49490        1.74900
O        -10.67910       -3.97790        1.27830
C        -11.71460       -5.73350        2.55610
C        -10.66600       -6.53840        2.94690
C        -10.94740       -7.66320        3.71470
Cl        -9.66640       -8.69140        4.22270
C        -12.26710       -7.94910        4.06760
Br       -12.64970       -9.47890        5.11330
C        -13.32370       -7.13680        3.67150
C        -13.04540       -6.01660        2.90750
C        -13.91260       -4.98160        2.33990
C        -15.28080       -4.95820        2.44830
C        -16.03140       -5.92870        3.14370
N        -16.69910       -6.68130        3.69720
C        -16.14320       -3.99560        1.88360
N        -16.92590       -3.27210        1.45450
H         12.76770       -0.47720        1.94950
H         15.04800       -3.82280        5.32300
H         10.43760       -2.96070        7.24140
H         11.69380       -5.93920        8.39960
H         11.88250       -4.11530       10.33150
H         12.72370       -6.41730       11.28040
H         15.15570       -6.87150       10.31250
H         15.81210       -4.85010        8.76820
H         14.44310       -3.49140       10.58020
H         13.89720       -2.97480        8.96880
H         14.07960       -6.38980        7.45450
H          9.22030       -1.34620        3.19440
H          6.75220       -1.68650        7.15810
H          5.57890       -3.00420        6.93980
H          4.61990       -1.16790        8.31500
H          3.73710       -1.32400        6.79130
H          4.91060       -0.01940        7.00530
H          7.24910        3.89290       -1.35390
H          8.46710        4.83010       -3.44010
H         11.62590        3.00820       -4.36830
H         10.56880        4.31830       -4.91920
H          9.09940        2.63770       -6.04930
H         10.16170        1.34040       -5.49600
H         10.75880        2.53800       -6.65010
H          5.82700        2.16680       -1.94740
H          4.80230        0.66810       -3.87470
H          6.50890        1.54360       -5.42360
H          6.60790        3.95520       -5.91830
H          4.68180        6.50250       -4.13660
H          5.95250        6.21340       -5.33450
H          2.95200        5.89510       -5.83490
H          3.94700        7.24770       -6.38730
H          4.22050        5.62380       -7.02830
H          3.28120        4.61910       -3.33180
H        -10.69140        3.65740       -2.88730
H        -12.53110        4.47420       -4.31370
H        -13.92530        2.87920       -5.56680
H        -14.72510        0.52870       -5.75420
H        -13.69720       -0.80080       -5.19920
H        -12.06330       -0.29210       -7.01470
H        -13.08760        1.03090       -7.57020
H        -13.66540       -0.63550       -7.67620
H        -11.67320       -0.36080       -3.94300
H         -2.93740        1.15520        0.06570
H         -1.23420        1.55240        0.27730
H         -0.49740       -0.66560       -0.35550
H         -1.72110       -0.83200        0.89920
H         -2.12490       -1.17210       -0.78990
H         -5.82050       -0.60940       -0.64020
H         -4.10070       -0.30080       -0.42990
H         -4.44450       -2.38690       -1.72260
H         -5.40720       -1.51220       -2.91570
H         -3.68310       -1.17090       -2.76140
H        -12.73550        0.94950       -1.43340
H        -14.66720        1.75450       -0.82270
H        -16.38170        1.34120       -0.64980
H        -14.55820        0.21580       -2.84120
H        -15.73430        1.50930       -3.07510
H        -16.28170       -0.11730       -2.64550
H        -14.54560       -2.66760        1.07940
H         -9.65320       -6.29960        2.66350
H        -14.32700       -7.39620        3.96800
