161

C          9.65170        3.79010        0.02770
C          9.15860        5.03090        0.33800
C          7.74990        5.43080        0.26420
O          6.81610        4.78030       -0.17540
C          7.67370        6.78710        0.83140
C          6.52640        7.55490        1.01880
C          6.76240        8.78100        1.59300
C          8.04580        9.21230        1.95280
C          9.18560        8.46430        1.77380
C          8.96870        7.21200        1.19130
C          9.91750        6.14800        0.86360
C         11.27860        6.22480        1.01720
C         11.96400        7.34700        1.52710
N         12.59150        8.21980        1.93100
C         12.20250        5.21480        0.67820
N         13.02260        4.45090        0.42400
C          7.54280       10.53570        2.47300
C          7.75680       11.76260        1.56130
C          6.76930       12.77910        2.08740
C          5.55230       12.37110        1.75090
C          5.69680       11.07230        0.99080
C          7.03200       11.32930        0.28040
C          6.11090       10.05400        2.07400
C          8.98410        2.64460       -0.43150
C          9.62660        1.41640       -0.56630
C          8.80450        0.38150       -0.99410
S          9.28250       -1.30840       -1.05310
C         11.06430       -1.16720       -1.47240
C         11.54660       -2.49300       -2.02600
C          7.49820        0.81510       -1.23420
S          7.29940        2.49890       -0.85810
C          6.35750        0.07700       -1.65750
C          6.23590       -0.99810       -2.52520
C          7.30340       -1.50980       -3.38040
C          7.42710       -2.87460       -3.62260
C          8.43870       -3.34000       -4.44100
C          9.33030       -2.45640       -5.02330
C          9.21430       -1.08820       -4.80280
C         10.15620       -0.12440       -5.46670
C          9.66230        0.22510       -6.87150
C          8.19200       -0.62730       -3.99090
C          4.90480       -1.46150       -2.57330
S          4.13740       -2.79010       -3.41410
C          2.62180       -2.33530       -2.71090
C          1.29900       -2.79740       -2.63060
C          0.71030       -3.98800       -3.10970
C         -0.62700       -4.30950       -2.70430
N         -1.02810       -5.48370       -3.16520
S          0.17310       -6.12700       -4.04060
N          1.25230       -4.93320       -3.86140
C         -1.35380       -3.36760       -1.94410
C         -2.68800       -3.37430       -1.51030
S         -4.05400       -4.43640       -1.49070
C         -4.98320       -3.18330       -0.70430
C         -6.31430       -3.13540       -0.25020
C         -7.25440       -4.24870       -0.38940
C         -8.51440       -4.05350       -0.94830
C         -9.37470       -5.12400       -1.08910
C         -8.98750       -6.38940       -0.68260
C         -7.73030       -6.60250       -0.13420
C         -7.27440       -7.97950        0.25260
C         -6.46400       -8.60690       -0.88360
C         -6.86920       -5.52420        0.00320
C         -6.61480       -1.90260        0.30020
S         -5.24970       -0.78950        0.22860
C         -4.25990       -2.00530       -0.49690
C         -2.93540       -2.12560       -0.93440
N         -1.79840       -1.36380       -0.96780
C         -0.79690       -2.11370       -1.56040
C          0.58520       -1.88080       -1.80360
N          1.47760       -0.92040       -1.36390
C          2.70210       -1.19940       -1.90320
C          4.01070       -0.71120       -1.80630
S          4.81480        0.56860       -0.97370
C          1.37350        0.10860       -0.35710
C          1.38170        1.51030       -0.96730
C         -1.87690        0.04410       -0.65590
C         -1.96220        0.30190        0.84900
C         -7.78280       -1.48220        0.99100
C         -8.14170       -0.16550        1.21800
C         -9.28440       -0.04420        1.99970
S        -10.07610        1.44200        2.45670
C         -8.89900        2.73730        1.93050
C         -7.67620        2.80360        2.82530
C         -9.80820       -1.28860        2.41360
S         -8.85420       -2.60630        1.76200
C        -10.91220       -1.39760        3.25710
C        -11.50170       -2.50970        3.81420
C        -11.07460       -3.89550        3.61550
O        -10.19550       -4.31030        2.87850
C        -11.92490       -4.71480        4.50030
C        -11.88870       -6.07890        4.70910
C        -12.77340       -6.65410        5.61480
C        -12.78690       -8.12050        5.90040
C        -13.66640       -5.80490        6.26930
F        -14.52560       -6.35220        7.15120
C        -13.72520       -4.43400        6.07430
C        -12.83330       -3.87940        5.17100
C        -12.61050       -2.49800        4.74260
C        -13.34600       -1.41740        5.15980
C        -14.41800       -1.50050        6.07250
N        -15.29750       -1.49440        6.81070
C        -13.16710       -0.08000        4.74950
N        -13.10270        1.03420        4.47600
H         10.71170        3.62890        0.18130
H          5.55650        7.18030        0.73120
H         10.16330        8.80880        2.06580
H          7.75020       10.74340        3.52100
H          8.79000       12.08560        1.46830
H          7.04460       13.63250        2.67880
H          4.60800       12.81570        2.00520
H          4.85280       10.76780        0.37770
H          7.45880       10.44780       -0.19450
H          6.96280       12.13700       -0.44630
H          5.36420        9.93770        2.85740
H         10.66590        1.29590       -0.31780
H         11.61010       -0.89910       -0.56780
H         11.15330       -0.37510       -2.21470
H         10.97910       -2.75780       -2.91550
H         12.60080       -2.42220       -2.28540
H         11.42050       -3.28160       -1.28800
H          6.75000       -3.56800       -3.14900
H          8.53770       -4.40060       -4.61930
H         10.12440       -2.82800       -5.65580
H         11.15170       -0.56890       -5.53590
H         10.23010        0.79050       -4.87440
H          8.67810        0.68560       -6.82160
H          9.58890       -0.67250       -7.48110
H         10.34690        0.91870       -7.35410
H          8.07990        0.43540       -3.82650
H         -8.80820       -3.06760       -1.27800
H        -10.35290       -4.97220       -1.52090
H         -9.66890       -7.22060       -0.79400
H         -8.13830       -8.60930        0.47290
H         -6.65340       -7.92400        1.14900
H         -6.11760       -9.59860       -0.60190
H         -7.07450       -8.69370       -1.77970
H         -5.60000       -7.98940       -1.11820
H         -5.89160       -5.67330        0.43860
H          2.24520        0.01320        0.30010
H          0.48580       -0.06480        0.24320
H          1.20060        2.24900       -0.19180
H          0.62300        1.61610       -1.73990
H          2.34870        1.71710       -1.41730
H         -2.78700        0.43540       -1.12520
H         -1.02910        0.55530       -1.10370
H         -1.88190        1.36780        1.04290
H         -1.17360       -0.21510        1.39120
H         -2.91480       -0.04700        1.23710
H         -7.58510        0.65380        0.79970
H         -9.48310        3.65450        2.00460
H         -8.64500        2.56770        0.88540
H         -7.97450        2.99570        3.85300
H         -7.11810        1.87030        2.79860
H         -7.02260        3.60900        2.49600
H        -11.33640       -0.43760        3.52910
H        -11.17380       -6.68490        4.17340
H        -12.60160       -8.29830        6.95930
H        -13.76520       -8.54010        5.66850
H        -12.03040       -8.63490        5.31510
H        -14.44630       -3.85410        6.62570
