
  xtb     02132208303D
 energy: -338.173121040816 gnorm: 0.000399646908 xtb: 6.4.1 (unknown)
205229  0     0  0            999 V2000
   -8.7886   -7.4641   -0.6642 C   0  0  0  0  0  0  0  0  0  0  0  0
   -8.0834   -7.5929   -1.8192 C   0  0  0  0  0  0  0  0  0  0  0  0
   -8.6898   -8.2472   -3.0090 C   0  0  0  0  0  0  0  0  0  0  0  0
   -9.6742   -8.9509   -3.0287 O   0  0  0  0  0  0  0  0  0  0  0  0
   -7.8713   -7.7963   -4.1529 C   0  0  0  0  0  0  0  0  0  0  0  0
   -8.1174   -8.0183   -5.5057 C   0  0  0  0  0  0  0  0  0  0  0  0
   -7.1930   -7.4442   -6.3453 C   0  0  0  0  0  0  0  0  0  0  0  0
   -6.1052   -6.6927   -5.8796 C   0  0  0  0  0  0  0  0  0  0  0  0
   -5.8443   -6.4705   -4.5485 C   0  0  0  0  0  0  0  0  0  0  0  0
   -6.7674   -7.0550   -3.6788 C   0  0  0  0  0  0  0  0  0  0  0  0
   -6.7958   -7.0680   -2.2201 C   0  0  0  0  0  0  0  0  0  0  0  0
   -5.7161   -6.8888   -1.3941 C   0  0  0  0  0  0  0  0  0  0  0  0
   -4.4529   -6.4412   -1.8247 C   0  0  0  0  0  0  0  0  0  0  0  0
   -3.4114   -6.0562   -2.1175 N   0  0  0  0  0  0  0  0  0  0  0  0
   -5.7427   -7.2252   -0.0246 C   0  0  0  0  0  0  0  0  0  0  0  0
   -5.7196   -7.5450    1.0782 N   0  0  0  0  0  0  0  0  0  0  0  0
   -5.5996   -6.4138   -7.2729 C   0  0  0  0  0  0  0  0  0  0  0  0
   -4.3752   -7.2217   -7.7687 C   0  0  0  0  0  0  0  0  0  0  0  0
   -4.3836   -8.5227   -7.0048 C   0  0  0  0  0  0  0  0  0  0  0  0
   -5.4080   -9.2422   -7.4430 C   0  0  0  0  0  0  0  0  0  0  0  0
   -6.1107   -8.4408   -8.5109 C   0  0  0  0  0  0  0  0  0  0  0  0
   -4.9124   -7.7010   -9.1267 C   0  0  0  0  0  0  0  0  0  0  0  0
   -6.8061   -7.2585   -7.7910 C   0  0  0  0  0  0  0  0  0  0  0  0
   -8.5751   -6.5435    0.3901 C   0  0  0  0  0  0  0  0  0  0  0  0
   -9.0509   -6.6401    1.6803 C   0  0  0  0  0  0  0  0  0  0  0  0
   -8.6769   -5.5743    2.5062 C   0  0  0  0  0  0  0  0  0  0  0  0
   -8.9905   -5.4958    4.2346 S   0  0  0  0  0  0  0  0  0  0  0  0
   -8.5753   -7.2160    4.7195 C   0  0  0  0  0  0  0  0  0  0  0  0
   -7.1308   -7.5645    4.4227 C   0  0  0  0  0  0  0  0  0  0  0  0
   -7.9620   -4.5951    1.8326 C   0  0  0  0  0  0  0  0  0  0  0  0
   -7.7200   -5.0370    0.1704 S   0  0  0  0  0  0  0  0  0  0  0  0
   -7.3922   -3.3859    2.3176 C   0  0  0  0  0  0  0  0  0  0  0  0
   -7.8816   -2.4834    3.2456 C   0  0  0  0  0  0  0  0  0  0  0  0
   -9.2244   -2.5018    3.8207 C   0  0  0  0  0  0  0  0  0  0  0  0
  -10.3335   -2.8251    3.0415 C   0  0  0  0  0  0  0  0  0  0  0  0
  -11.5968   -2.7987    3.5981 C   0  0  0  0  0  0  0  0  0  0  0  0
  -11.7694   -2.4473    4.9257 C   0  0  0  0  0  0  0  0  0  0  0  0
  -10.6763   -2.1160    5.7154 C   0  0  0  0  0  0  0  0  0  0  0  0
  -10.8506   -1.6794    7.1411 C   0  0  0  0  0  0  0  0  0  0  0  0
  -10.8414   -0.1520    7.2319 C   0  0  0  0  0  0  0  0  0  0  0  0
   -9.4108   -2.1433    5.1514 C   0  0  0  0  0  0  0  0  0  0  0  0
   -6.9439   -1.4595    3.4916 C   0  0  0  0  0  0  0  0  0  0  0  0
   -6.9901   -0.0361    4.5046 S   0  0  0  0  0  0  0  0  0  0  0  0
   -5.4126    0.3929    3.9379 C   0  0  0  0  0  0  0  0  0  0  0  0
   -4.4250    1.3614    4.1756 C   0  0  0  0  0  0  0  0  0  0  0  0
   -4.3696    2.4228    5.1046 C   0  0  0  0  0  0  0  0  0  0  0  0
   -3.1479    3.1643    5.2370 C   0  0  0  0  0  0  0  0  0  0  0  0
   -3.2154    4.0847    6.1861 N   0  0  0  0  0  0  0  0  0  0  0  0
   -4.6906    4.0280    6.8515 S   0  0  0  0  0  0  0  0  0  0  0  0
   -5.3005    2.8239    5.9561 N   0  0  0  0  0  0  0  0  0  0  0  0
   -2.0783    2.8814    4.3602 C   0  0  0  0  0  0  0  0  0  0  0  0
   -0.8239    3.4916    4.2040 C   0  0  0  0  0  0  0  0  0  0  0  0
    0.1382    4.7295    4.9372 S   0  0  0  0  0  0  0  0  0  0  0  0
    1.4038    4.3958    3.7714 C   0  0  0  0  0  0  0  0  0  0  0  0
    2.6886    4.9353    3.5843 C   0  0  0  0  0  0  0  0  0  0  0  0
    3.1431    6.0941    4.3568 C   0  0  0  0  0  0  0  0  0  0  0  0
    3.6411    7.2252    3.7115 C   0  0  0  0  0  0  0  0  0  0  0  0
    3.9857    8.3409    4.4486 C   0  0  0  0  0  0  0  0  0  0  0  0
    3.8307    8.3457    5.8252 C   0  0  0  0  0  0  0  0  0  0  0  0
    3.3304    7.2302    6.4830 C   0  0  0  0  0  0  0  0  0  0  0  0
    3.0947    7.2419    7.9653 C   0  0  0  0  0  0  0  0  0  0  0  0
    1.6290    7.5674    8.2608 C   0  0  0  0  0  0  0  0  0  0  0  0
    2.9883    6.1109    5.7378 C   0  0  0  0  0  0  0  0  0  0  0  0
    3.3637    4.2924    2.5530 C   0  0  0  0  0  0  0  0  0  0  0  0
    2.3577    3.0988    1.7376 S   0  0  0  0  0  0  0  0  0  0  0  0
    1.0714    3.3913    2.8623 C   0  0  0  0  0  0  0  0  0  0  0  0
   -0.2062    2.8778    3.1113 C   0  0  0  0  0  0  0  0  0  0  0  0
   -1.0173    1.9008    2.5933 N   0  0  0  0  0  0  0  0  0  0  0  0
   -2.1732    1.8720    3.3596 C   0  0  0  0  0  0  0  0  0  0  0  0
   -3.3159    1.0313    3.3456 C   0  0  0  0  0  0  0  0  0  0  0  0
   -3.6172   -0.1296    2.6561 N   0  0  0  0  0  0  0  0  0  0  0  0
   -4.8854   -0.5086    3.0100 C   0  0  0  0  0  0  0  0  0  0  0  0
   -5.7644   -1.5673    2.7503 C   0  0  0  0  0  0  0  0  0  0  0  0
   -5.7951   -2.9534    1.7212 S   0  0  0  0  0  0  0  0  0  0  0  0
   -2.7404   -1.0911    2.0243 C   0  0  0  0  0  0  0  0  0  0  0  0
   -2.9622   -1.1886    0.5168 C   0  0  0  0  0  0  0  0  0  0  0  0
   -0.8347    1.5199    1.2079 C   0  0  0  0  0  0  0  0  0  0  0  0
   -1.7961    2.2848    0.3023 C   0  0  0  0  0  0  0  0  0  0  0  0
    4.7480    4.3572    2.1975 C   0  0  0  0  0  0  0  0  0  0  0  0
    5.7343    4.9855    2.9534 C   0  0  0  0  0  0  0  0  0  0  0  0
    7.0714    4.9661    2.5791 C   0  0  0  0  0  0  0  0  0  0  0  0
    7.5169    4.3207    1.4347 C   0  0  0  0  0  0  0  0  0  0  0  0
    6.5523    3.5945    0.6795 C   0  0  0  0  0  0  0  0  0  0  0  0
    6.9286    2.8194   -0.3463 N   0  0  0  0  0  0  0  0  0  0  0  0
    6.0422    2.1503   -1.0444 C   0  0  0  0  0  0  0  0  0  0  0  0
    6.5900    1.3622   -2.1550 C   0  0  0  0  0  0  0  0  0  0  0  0
    5.9605    1.2781   -3.3954 C   0  0  0  0  0  0  0  0  0  0  0  0
    6.5633    0.5622   -4.4097 C   0  0  0  0  0  0  0  0  0  0  0  0
    7.7803   -0.0732   -4.2205 C   0  0  0  0  0  0  0  0  0  0  0  0
    8.4277    0.0245   -2.9921 C   0  0  0  0  0  0  0  0  0  0  0  0
    9.6378   -0.5059   -2.6817 O   0  0  0  0  0  0  0  0  0  0  0  0
   10.2821   -1.3825   -3.5844 C   0  0  0  0  0  0  0  0  0  0  0  0
    9.6661   -2.7782   -3.5858 C   0  0  0  0  0  0  0  0  0  0  0  0
    7.8194    0.7478   -1.9687 C   0  0  0  0  0  0  0  0  0  0  0  0
    4.6598    2.2316   -0.7024 C   0  0  0  0  0  0  0  0  0  0  0  0
    4.2918    2.9640    0.3227 N   0  0  0  0  0  0  0  0  0  0  0  0
    5.1878    3.6386    1.0467 C   0  0  0  0  0  0  0  0  0  0  0  0
    3.5762    1.5045   -1.3755 C   0  0  0  0  0  0  0  0  0  0  0  0
    3.6690    0.1487   -1.6659 C   0  0  0  0  0  0  0  0  0  0  0  0
    2.5791   -0.4989   -2.2218 C   0  0  0  0  0  0  0  0  0  0  0  0
    1.4178    0.1911   -2.5060 C   0  0  0  0  0  0  0  0  0  0  0  0
    1.3214    1.5568   -2.2291 C   0  0  0  0  0  0  0  0  0  0  0  0
    0.1318    2.1429   -2.5381 O   0  0  0  0  0  0  0  0  0  0  0  0
    0.0251    3.5557   -2.5161 C   0  0  0  0  0  0  0  0  0  0  0  0
    0.7691    4.2198   -3.6699 C   0  0  0  0  0  0  0  0  0  0  0  0
    2.4029    2.2030   -1.6468 C   0  0  0  0  0  0  0  0  0  0  0  0
    8.9004    4.2283    1.0566 C   0  0  0  0  0  0  0  0  0  0  0  0
    9.2807    4.0799   -0.2359 C   0  0  0  0  0  0  0  0  0  0  0  0
    8.3928    4.3677   -1.4034 C   0  0  0  0  0  0  0  0  0  0  0  0
    7.4835    5.1700   -1.4577 O   0  0  0  0  0  0  0  0  0  0  0  0
    9.0261    3.6834   -2.5486 C   0  0  0  0  0  0  0  0  0  0  0  0
    8.5127    3.5499   -3.8360 C   0  0  0  0  0  0  0  0  0  0  0  0
    9.3500    2.8992   -4.7081 C   0  0  0  0  0  0  0  0  0  0  0  0
   10.6148    2.4256   -4.3328 C   0  0  0  0  0  0  0  0  0  0  0  0
   11.1379    2.5571   -3.0703 C   0  0  0  0  0  0  0  0  0  0  0  0
   10.2996    3.2178   -2.1643 C   0  0  0  0  0  0  0  0  0  0  0  0
   10.5255    3.5497   -0.7602 C   0  0  0  0  0  0  0  0  0  0  0  0
   11.6935    3.3709   -0.0669 C   0  0  0  0  0  0  0  0  0  0  0  0
   11.8829    3.7418    1.2807 C   0  0  0  0  0  0  0  0  0  0  0  0
   12.1055    4.0237    2.3714 N   0  0  0  0  0  0  0  0  0  0  0  0
   12.8758    2.8312   -0.6131 C   0  0  0  0  0  0  0  0  0  0  0  0
   13.8715    2.4032   -0.9927 N   0  0  0  0  0  0  0  0  0  0  0  0
   10.9222    1.9135   -5.7190 C   0  0  0  0  0  0  0  0  0  0  0  0
   11.8685    2.7792   -6.5781 C   0  0  0  0  0  0  0  0  0  0  0  0
   11.6080    2.3038   -7.9894 C   0  0  0  0  0  0  0  0  0  0  0  0
   10.4059    2.7386   -8.3458 C   0  0  0  0  0  0  0  0  0  0  0  0
    9.8351    3.5164   -7.1821 C   0  0  0  0  0  0  0  0  0  0  0  0
   11.1241    4.1200   -6.6099 C   0  0  0  0  0  0  0  0  0  0  0  0
    9.5079    2.4316   -6.1342 C   0  0  0  0  0  0  0  0  0  0  0  0
   -9.6694   -8.0921   -0.5743 H   0  0  0  0  0  0  0  0  0  0  0  0
   -8.9695   -8.5966   -5.8272 H   0  0  0  0  0  0  0  0  0  0  0  0
   -5.0110   -5.8849   -4.1953 H   0  0  0  0  0  0  0  0  0  0  0  0
   -5.5509   -5.3655   -7.5612 H   0  0  0  0  0  0  0  0  0  0  0  0
   -3.4391   -6.6697   -7.7661 H   0  0  0  0  0  0  0  0  0  0  0  0
   -3.7004   -8.7533   -6.2086 H   0  0  0  0  0  0  0  0  0  0  0  0
   -5.7517  -10.1954   -7.0862 H   0  0  0  0  0  0  0  0  0  0  0  0
   -6.7544   -8.9997   -9.1851 H   0  0  0  0  0  0  0  0  0  0  0  0
   -4.2232   -8.3698   -9.6400 H   0  0  0  0  0  0  0  0  0  0  0  0
   -5.1998   -6.8876   -9.7916 H   0  0  0  0  0  0  0  0  0  0  0  0
   -7.5418   -6.7641   -8.4225 H   0  0  0  0  0  0  0  0  0  0  0  0
   -9.6152   -7.4903    2.0184 H   0  0  0  0  0  0  0  0  0  0  0  0
   -8.7735   -7.2295    5.7912 H   0  0  0  0  0  0  0  0  0  0  0  0
   -9.2702   -7.8938    4.2261 H   0  0  0  0  0  0  0  0  0  0  0  0
   -6.9285   -7.5423    3.3538 H   0  0  0  0  0  0  0  0  0  0  0  0
   -6.4645   -6.8592    4.9141 H   0  0  0  0  0  0  0  0  0  0  0  0
   -6.9126   -8.5644    4.7921 H   0  0  0  0  0  0  0  0  0  0  0  0
  -10.2033   -3.0779    1.9994 H   0  0  0  0  0  0  0  0  0  0  0  0
  -12.4544   -3.0499    2.9911 H   0  0  0  0  0  0  0  0  0  0  0  0
  -12.7621   -2.4298    5.3524 H   0  0  0  0  0  0  0  0  0  0  0  0
  -11.7942   -2.0613    7.5351 H   0  0  0  0  0  0  0  0  0  0  0  0
  -10.0377   -2.0796    7.7503 H   0  0  0  0  0  0  0  0  0  0  0  0
   -9.9030    0.2440    6.8506 H   0  0  0  0  0  0  0  0  0  0  0  0
  -10.9614    0.1686    8.2640 H   0  0  0  0  0  0  0  0  0  0  0  0
  -11.6538    0.2660    6.6414 H   0  0  0  0  0  0  0  0  0  0  0  0
   -8.5526   -1.9049    5.7620 H   0  0  0  0  0  0  0  0  0  0  0  0
    3.7491    7.2226    2.6368 H   0  0  0  0  0  0  0  0  0  0  0  0
    4.3712    9.2161    3.9466 H   0  0  0  0  0  0  0  0  0  0  0  0
    4.0983    9.2253    6.3928 H   0  0  0  0  0  0  0  0  0  0  0  0
    3.7356    7.9876    8.4396 H   0  0  0  0  0  0  0  0  0  0  0  0
    3.3368    6.2639    8.3863 H   0  0  0  0  0  0  0  0  0  0  0  0
    1.3735    8.5484    7.8661 H   0  0  0  0  0  0  0  0  0  0  0  0
    1.4476    7.5661    9.3329 H   0  0  0  0  0  0  0  0  0  0  0  0
    0.9766    6.8322    7.7952 H   0  0  0  0  0  0  0  0  0  0  0  0
    2.6067    5.2337    6.2398 H   0  0  0  0  0  0  0  0  0  0  0  0
   -1.7088   -0.8416    2.2738 H   0  0  0  0  0  0  0  0  0  0  0  0
   -2.9560   -2.0704    2.4673 H   0  0  0  0  0  0  0  0  0  0  0  0
   -2.2636   -1.9038    0.0914 H   0  0  0  0  0  0  0  0  0  0  0  0
   -2.8270   -0.2295    0.0268 H   0  0  0  0  0  0  0  0  0  0  0  0
   -3.9711   -1.5374    0.3129 H   0  0  0  0  0  0  0  0  0  0  0  0
   -0.9521    0.4483    1.0673 H   0  0  0  0  0  0  0  0  0  0  0  0
    0.1968    1.7718    0.9488 H   0  0  0  0  0  0  0  0  0  0  0  0
   -2.8292    2.0739    0.5713 H   0  0  0  0  0  0  0  0  0  0  0  0
   -1.6296    1.9986   -0.7323 H   0  0  0  0  0  0  0  0  0  0  0  0
   -1.6321    3.3558    0.4016 H   0  0  0  0  0  0  0  0  0  0  0  0
    5.4610    5.4957    3.8626 H   0  0  0  0  0  0  0  0  0  0  0  0
    7.7902    5.4900    3.1923 H   0  0  0  0  0  0  0  0  0  0  0  0
    5.0213    1.7800   -3.5664 H   0  0  0  0  0  0  0  0  0  0  0  0
    6.0789    0.4922   -5.3726 H   0  0  0  0  0  0  0  0  0  0  0  0
    8.2117   -0.6297   -5.0376 H   0  0  0  0  0  0  0  0  0  0  0  0
   10.2894   -0.9605   -4.5964 H   0  0  0  0  0  0  0  0  0  0  0  0
   11.3132   -1.4294   -3.2240 H   0  0  0  0  0  0  0  0  0  0  0  0
    9.6930   -3.1930   -2.5815 H   0  0  0  0  0  0  0  0  0  0  0  0
    8.6304   -2.7450   -3.9162 H   0  0  0  0  0  0  0  0  0  0  0  0
   10.2290   -3.4271   -4.2510 H   0  0  0  0  0  0  0  0  0  0  0  0
    8.3218    0.8227   -1.0174 H   0  0  0  0  0  0  0  0  0  0  0  0
    4.5734   -0.3945   -1.4395 H   0  0  0  0  0  0  0  0  0  0  0  0
    2.6369   -1.5550   -2.4378 H   0  0  0  0  0  0  0  0  0  0  0  0
    0.5666   -0.3054   -2.9444 H   0  0  0  0  0  0  0  0  0  0  0  0
   -1.0477    3.7449   -2.6112 H   0  0  0  0  0  0  0  0  0  0  0  0
    0.3626    3.9544   -1.5521 H   0  0  0  0  0  0  0  0  0  0  0  0
    1.8390    4.0406   -3.5988 H   0  0  0  0  0  0  0  0  0  0  0  0
    0.4145    3.8196   -4.6166 H   0  0  0  0  0  0  0  0  0  0  0  0
    0.5905    5.2912   -3.6504 H   0  0  0  0  0  0  0  0  0  0  0  0
    2.3697    3.2485   -1.3876 H   0  0  0  0  0  0  0  0  0  0  0  0
    9.6230    4.1736    1.8597 H   0  0  0  0  0  0  0  0  0  0  0  0
    7.5359    3.9328   -4.0860 H   0  0  0  0  0  0  0  0  0  0  0  0
   12.1108    2.1856   -2.7950 H   0  0  0  0  0  0  0  0  0  0  0  0
   11.1388    0.8500   -5.8034 H   0  0  0  0  0  0  0  0  0  0  0  0
   12.9032    2.7876   -6.2469 H   0  0  0  0  0  0  0  0  0  0  0  0
   12.2788    1.6743   -8.5443 H   0  0  0  0  0  0  0  0  0  0  0  0
    9.8724    2.5447   -9.2580 H   0  0  0  0  0  0  0  0  0  0  0  0
    9.0172    4.1972   -7.4023 H   0  0  0  0  0  0  0  0  0  0  0  0
   11.5856    4.8301   -7.2941 H   0  0  0  0  0  0  0  0  0  0  0  0
   11.0008    4.5826   -5.6327 H   0  0  0  0  0  0  0  0  0  0  0  0
    8.7683    1.7125   -6.4815 H   0  0  0  0  0  0  0  0  0  0  0  0
  1  2  2  0  0  0  0
  2  3  1  0  0  0  0
  3  4  2  0  0  0  0
  3  5  1  0  0  0  0
  5  6  2  0  0  0  0
  6  7  1  0  0  0  0
  7  8  2  0  0  0  0
  8  9  1  0  0  0  0
  9 10  2  0  0  0  0
 10 11  1  0  0  0  0
 11 12  2  0  0  0  0
 12 13  1  0  0  0  0
 13 14  3  0  0  0  0
 12 15  1  0  0  0  0
 15 16  3  0  0  0  0
  8 17  1  0  0  0  0
 17 18  1  0  0  0  0
 18 19  1  0  0  0  0
 19 20  2  0  0  0  0
 20 21  1  0  0  0  0
 21 22  1  0  0  0  0
 21 23  1  0  0  0  0
  1 24  1  0  0  0  0
 24 25  2  0  0  0  0
 25 26  1  0  0  0  0
 26 27  1  0  0  0  0
 27 28  1  0  0  0  0
 28 29  1  0  0  0  0
 26 30  2  0  0  0  0
 30 31  1  0  0  0  0
 30 32  1  0  0  0  0
 32 33  2  0  0  0  0
 33 34  1  0  0  0  0
 34 35  2  0  0  0  0
 35 36  1  0  0  0  0
 36 37  2  0  0  0  0
 37 38  1  0  0  0  0
 38 39  1  0  0  0  0
 39 40  1  0  0  0  0
 38 41  2  0  0  0  0
 33 42  1  0  0  0  0
 42 43  1  0  0  0  0
 43 44  1  0  0  0  0
 44 45  1  0  0  0  0
 45 46  1  0  0  0  0
 46 47  1  0  0  0  0
 47 48  2  0  0  0  0
 48 49  1  0  0  0  0
 49 50  1  0  0  0  0
 47 51  1  0  0  0  0
 51 52  1  0  0  0  0
 52 53  1  0  0  0  0
 53 54  1  0  0  0  0
 54 55  1  0  0  0  0
 55 56  1  0  0  0  0
 56 57  2  0  0  0  0
 57 58  1  0  0  0  0
 58 59  2  0  0  0  0
 59 60  1  0  0  0  0
 60 61  1  0  0  0  0
 61 62  1  0  0  0  0
 60 63  2  0  0  0  0
 55 64  2  0  0  0  0
 64 65  1  0  0  0  0
 65 66  1  0  0  0  0
 66 67  1  0  0  0  0
 67 68  1  0  0  0  0
 68 69  1  0  0  0  0
 69 70  1  0  0  0  0
 70 71  1  0  0  0  0
 71 72  1  0  0  0  0
 72 73  1  0  0  0  0
 73 74  1  0  0  0  0
 71 75  1  0  0  0  0
 75 76  1  0  0  0  0
 68 77  1  0  0  0  0
 77 78  1  0  0  0  0
 64 79  1  0  0  0  0
 79 80  2  0  0  0  0
 80 81  1  0  0  0  0
 81 82  2  0  0  0  0
 82 83  1  0  0  0  0
 83 84  2  0  0  0  0
 84 85  1  0  0  0  0
 85 86  1  0  0  0  0
 86 87  2  0  0  0  0
 87 88  1  0  0  0  0
 88 89  2  0  0  0  0
 89 90  1  0  0  0  0
 90 91  1  0  0  0  0
 91 92  1  0  0  0  0
 92 93  1  0  0  0  0
 90 94  2  0  0  0  0
 85 95  2  0  0  0  0
 95 96  1  0  0  0  0
 96 97  2  0  0  0  0
 95 98  1  0  0  0  0
 98 99  2  0  0  0  0
 99100  1  0  0  0  0
100101  2  0  0  0  0
101102  1  0  0  0  0
102103  1  0  0  0  0
103104  1  0  0  0  0
104105  1  0  0  0  0
102106  2  0  0  0  0
 82107  1  0  0  0  0
107108  2  0  0  0  0
108109  1  0  0  0  0
109110  2  0  0  0  0
109111  1  0  0  0  0
111112  2  0  0  0  0
112113  1  0  0  0  0
113114  2  0  0  0  0
114115  1  0  0  0  0
115116  2  0  0  0  0
116117  1  0  0  0  0
117118  2  0  0  0  0
118119  1  0  0  0  0
119120  3  0  0  0  0
118121  1  0  0  0  0
121122  3  0  0  0  0
114123  1  0  0  0  0
123124  1  0  0  0  0
124125  1  0  0  0  0
125126  2  0  0  0  0
126127  1  0  0  0  0
127128  1  0  0  0  0
127129  1  0  0  0  0
 11  2  1  0  0  0  0
 23 17  1  0  0  0  0
 31 24  1  0  0  0  0
 74 32  1  0  0  0  0
 97 79  1  0  0  0  0
106 98  1  0  0  0  0
117108  1  0  0  0  0
129123  1  0  0  0  0
 10  5  1  0  0  0  0
 22 18  1  0  0  0  0
 41 34  1  0  0  0  0
 73 42  2  0  0  0  0
 97 83  1  0  0  0  0
116111  1  0  0  0  0
128124  1  0  0  0  0
 23  7  1  0  0  0  0
 72 44  2  0  0  0  0
 94 86  1  0  0  0  0
129113  1  0  0  0  0
 70 45  2  0  0  0  0
 50 46  2  0  0  0  0
 69 51  2  0  0  0  0
 67 52  2  0  0  0  0
 66 54  2  0  0  0  0
 63 56  1  0  0  0  0
  1130  1  0  0  0  0
  6131  1  0  0  0  0
  9132  1  0  0  0  0
 17133  1  0  0  0  0
 18134  1  0  0  0  0
 19135  1  0  0  0  0
 20136  1  0  0  0  0
 21137  1  0  0  0  0
 22138  1  0  0  0  0
 22139  1  0  0  0  0
 23140  1  0  0  0  0
 25141  1  0  0  0  0
 28142  1  0  0  0  0
 28143  1  0  0  0  0
 29144  1  0  0  0  0
 29145  1  0  0  0  0
 29146  1  0  0  0  0
 35147  1  0  0  0  0
 36148  1  0  0  0  0
 37149  1  0  0  0  0
 39150  1  0  0  0  0
 39151  1  0  0  0  0
 40152  1  0  0  0  0
 40153  1  0  0  0  0
 40154  1  0  0  0  0
 41155  1  0  0  0  0
 57156  1  0  0  0  0
 58157  1  0  0  0  0
 59158  1  0  0  0  0
 61159  1  0  0  0  0
 61160  1  0  0  0  0
 62161  1  0  0  0  0
 62162  1  0  0  0  0
 62163  1  0  0  0  0
 63164  1  0  0  0  0
 75165  1  0  0  0  0
 75166  1  0  0  0  0
 76167  1  0  0  0  0
 76168  1  0  0  0  0
 76169  1  0  0  0  0
 77170  1  0  0  0  0
 77171  1  0  0  0  0
 78172  1  0  0  0  0
 78173  1  0  0  0  0
 78174  1  0  0  0  0
 80175  1  0  0  0  0
 81176  1  0  0  0  0
 87177  1  0  0  0  0
 88178  1  0  0  0  0
 89179  1  0  0  0  0
 92180  1  0  0  0  0
 92181  1  0  0  0  0
 93182  1  0  0  0  0
 93183  1  0  0  0  0
 93184  1  0  0  0  0
 94185  1  0  0  0  0
 99186  1  0  0  0  0
100187  1  0  0  0  0
101188  1  0  0  0  0
104189  1  0  0  0  0
104190  1  0  0  0  0
105191  1  0  0  0  0
105192  1  0  0  0  0
105193  1  0  0  0  0
106194  1  0  0  0  0
107195  1  0  0  0  0
112196  1  0  0  0  0
115197  1  0  0  0  0
123198  1  0  0  0  0
124199  1  0  0  0  0
125200  1  0  0  0  0
126201  1  0  0  0  0
127202  1  0  0  0  0
128203  1  0  0  0  0
128204  1  0  0  0  0
129205  1  0  0  0  0
M  END
