195

C         -3.96630       -6.17810       -6.27940
C         -5.27960       -6.51390       -6.13150
C         -5.91630       -7.03380       -4.90570
O         -5.36820       -7.48720       -3.92050
C         -7.36810       -6.88970       -5.11250
C         -8.37510       -7.13530       -4.18180
C         -9.64090       -6.86550       -4.64330
C         -9.88880       -6.38420       -5.93630
C         -8.90590       -6.14460       -6.86650
C         -7.60990       -6.41650       -6.41860
C         -6.32990       -6.26090       -7.10340
C         -6.16530       -5.97210       -8.43230
C         -4.92500       -5.87880       -9.09900
N         -3.96070       -5.79470       -9.71740
C         -7.22590       -5.76550       -9.33940
N         -8.03760       -5.58740      -10.13170
C        -11.37880       -6.32070       -5.71350
C        -12.25080       -7.43660       -6.33940
C        -11.36450       -8.65070       -6.46740
C        -11.12960       -9.11090       -5.24590
C        -11.85300       -8.21640       -4.26960
C        -13.08250       -7.83610       -5.11010
C        -11.10330       -6.86120       -4.27480
C         -2.89800       -6.24950       -5.35780
C         -1.69470       -5.61540       -5.59860
C         -0.78570       -5.69000       -4.53270
C          0.46480       -5.04100       -4.40810
C          0.97400       -4.16570       -5.44440
C          0.30210       -3.21760       -6.16140
C          1.13120       -2.54890       -7.08740
Cl         0.54280       -1.29800       -8.11530
C          2.42960       -2.96930       -7.08970
C          3.55040       -2.52500       -7.96280
C          3.70480       -3.45000       -9.17250
S          2.64770       -4.22620       -5.92260
C          1.13910       -5.23790       -3.21580
C          0.65660       -6.05860       -2.16110
C         -0.57500       -6.73070       -2.29780
C         -1.12000       -7.60200       -1.27720
C         -1.83860       -8.75030       -1.47180
C         -2.25470       -9.36300       -0.27520
C         -1.87730       -8.68410        0.84230
C         -2.09600       -9.04400        2.27090
C         -0.81930       -9.61230        2.89450
S         -0.97160       -7.26820        0.42790
C         -1.28270       -6.50090       -3.47870
S         -2.90320       -7.05190       -3.80190
C          1.50880       -6.01130       -1.03290
C          2.56240       -5.15420       -1.17170
S          2.60940       -4.42110       -2.76310
C          3.46500       -4.68900       -0.16860
C          3.81040       -5.24480        1.05190
C          3.49160       -6.61120        1.46590
C          3.05760       -6.86550        2.76410
C          2.74380       -8.15640        3.14580
C          2.85550       -9.19940        2.24360
C          3.29250       -8.96520        0.94510
C          3.45540      -10.09880       -0.02600
C          4.87080      -10.67330        0.05540
C          3.61710       -7.67100        0.57160
C          4.50100       -4.31040        1.85450
S          5.11870       -4.35880        3.49290
C          5.52210       -2.67600        3.37780
C          5.88020       -1.60550        4.21740
C          6.05360       -1.52010        5.61790
C          6.04070       -0.22520        6.24860
N          6.10720       -0.30770        7.56760
S          6.19280       -1.87000        7.98390
N          6.13610       -2.50630        6.49600
C          5.97000        0.93320        5.44310
C          5.83140        2.30450        5.73800
S          5.52780        3.33700        7.09660
C          5.31760        4.68980        6.00560
C          4.88720        6.02420        6.18380
C          4.66380        6.65600        7.48410
C          4.05720        5.95870        8.52510
C          3.84590        6.58330        9.74010
C          4.22730        7.90040        9.92730
C          4.84610        8.60740        8.90340
C          5.21080       10.05480        9.06460
C          4.13020       10.93980        8.43920
C          5.06950        7.97160        7.69300
C          4.75260        6.67370        4.97080
S          5.24560        5.67300        3.61290
C          5.54050        4.34590        4.67250
C          5.83330        2.98680        4.52010
N          5.98730        2.10530        3.47900
C          6.00740        0.83310        4.02770
C          5.83360       -0.43100        3.41760
N          5.45460       -0.77810        2.13650
C          5.25030       -2.13100        2.12020
C          4.67780       -3.06500        1.24970
S          4.03670       -3.03970       -0.35030
C          4.93630        0.04070        1.06390
C          5.83950        0.01170       -0.16780
C          6.63390        2.53460        2.25620
C          7.96580        3.22660        2.54570
C          4.09450        7.92060        4.65320
C          3.01270        8.37720        5.41630
C          2.26890        9.45700        5.00410
C          2.58110       10.13130        3.81780
C          3.72440        9.73750        3.11010
C          4.44910        8.63820        3.50490
C          1.76700       11.19560        3.28970
C          0.41050       11.24520        3.29000
C         -0.49840       10.09870        3.57340
O         -0.22620        9.01830        4.04900
C         -1.82190       10.51160        3.07100
C         -2.97980        9.73550        3.06130
C         -4.07310       10.36950        2.52400
C         -4.02050       11.67950        2.02650
C         -2.88720       12.45660        2.03270
C         -1.76080       11.83050        2.57920
C         -0.40160       12.32840        2.75460
C          0.02050       13.61050        2.52530
C         -0.79810       14.64290        2.02120
N         -1.40620       15.52450        1.60760
C          1.32140       14.09000        2.79060
N          2.34860       14.56010        2.99670
C         -5.47520       11.67000        1.62620
C         -5.77760       11.47390        0.12530
C         -7.22270       11.03060        0.10250
C         -7.27260        9.79200        0.57590
C         -5.86210        9.37730        0.92710
C         -5.08670       10.13390       -0.15920
C         -5.53390       10.21160        2.18380
H         -3.68220       -5.70690       -7.21350
H         -8.13900       -7.49570       -3.19280
H         -9.11190       -5.76580       -7.85370
H        -11.83210       -5.33610       -5.80980
H        -12.78990       -7.13910       -7.23470
H        -10.96490       -9.00400       -7.39990
H        -10.49410       -9.92610       -4.95330
H        -12.03120       -8.62970       -3.28030
H        -13.73910       -8.68300       -5.30300
H        -13.65800       -7.01260       -4.68930
H        -11.38010       -6.23100       -3.43160
H         -1.49240       -5.10180       -6.52120
H         -0.73130       -2.96670       -6.00910
H          4.47890       -2.52070       -7.38850
H          3.34660       -1.50790       -8.30400
H          4.52430       -3.11130       -9.80080
H          3.91160       -4.46650       -8.84560
H          2.79190       -3.45430       -9.76290
H         -2.03550       -9.16550       -2.44310
H         -2.82280      -10.27580       -0.24590
H         -2.89700       -9.78400        2.32950
H         -2.40430       -8.15830        2.83150
H         -0.01590       -8.88090        2.83940
H         -0.50650      -10.50770        2.36200
H         -0.98990       -9.86830        3.93720
H          1.32940       -6.54860       -0.12180
H          2.94920       -6.05190        3.46440
H          2.40610       -8.34870        4.15360
H          2.60070      -10.20450        2.54750
H          2.73300      -10.88540        0.20080
H          3.26690       -9.74450       -1.04160
H          5.07290      -11.04080        1.05900
H          5.60430       -9.90580       -0.18120
H          4.98910      -11.49540       -0.64660
H          3.97250       -7.47820       -0.43060
H          3.73550        4.93950        8.37600
H          3.37210        6.04020       10.54440
H          4.04670        8.38390       10.87660
H          5.31310       10.29970       10.12330
H          6.16540       10.25330        8.57290
H          4.02090       10.71480        7.38000
H          4.38830       11.99060        8.54680
H          3.17250       10.76590        8.92510
H          5.56470        8.50600        6.89470
H          3.95690       -0.36340        0.78270
H          4.78250        1.05500        1.42950
H          6.85710        0.31250        0.07150
H          5.44550        0.68170       -0.92630
H          5.87380       -0.99280       -0.58090
H          5.97020        3.22370        1.72270
H          6.82830        1.66040        1.64120
H          8.61610        2.56750        3.11700
H          7.81530        4.14250        3.11020
H          8.45620        3.47610        1.60860
H          2.73270        7.84920        6.31380
H          1.44080        9.79220        5.60680
H          4.00280       10.27220        2.21330
H          5.29860        8.31330        2.92070
H          2.30880       11.98260        2.77750
H         -2.97470        8.73130        3.45540
H         -2.86180       13.46160        1.64590
H         -6.09940       12.43120        2.09000
H         -5.51460       12.31820       -0.50600
H         -8.03940       11.66230       -0.19390
H         -8.13900        9.18240        0.75400
H         -5.67530        8.31140        1.02620
H         -4.00900       10.14830       -0.00680
H         -5.30810        9.76100       -1.15780
H         -6.19700        9.99980        3.02050
