230

C         -4.02850      -10.66680       -9.21760
C         -5.28170      -11.03400       -8.81790
C         -6.15560      -10.42340       -7.78550
O         -5.89590       -9.55480       -6.97700
C         -7.46440      -11.08490       -7.91950
C         -8.61330      -10.79670       -7.18560
C         -9.70200      -11.55960       -7.52930
C         -9.65190      -12.53820       -8.53200
C         -8.52330      -12.83720       -9.25680
C         -7.40110      -12.07300       -8.92030
C         -6.04120      -12.10710       -9.45000
C         -5.57130      -13.03780      -10.33880
C         -4.24340      -13.16430      -10.80260
N         -3.19470      -13.36880      -11.22450
C         -6.35640      -14.06340      -10.90890
N         -6.92440      -14.92190      -11.41750
C        -11.10590      -12.90000       -8.36140
C        -12.11060      -12.36300       -9.41080
C        -11.51230      -11.09580       -9.96950
C        -11.55950      -10.17210       -9.01890
C        -12.19050      -10.79830       -7.79980
C        -13.17360      -11.76960       -8.47240
C        -11.16070      -11.81230       -7.24270
C         -3.14610       -9.66920       -8.74220
C         -3.22860       -8.78770       -7.69410
C         -2.10580       -7.94960       -7.56220
C         -1.87820       -6.96520       -6.57410
C         -2.78560       -6.75510       -5.46680
C         -3.13860       -5.56790       -4.88490
C         -4.00950       -5.75460       -3.79690
F         -4.50010       -4.72100       -3.08730
C         -4.32650       -7.05200       -3.51640
C         -5.19270       -7.57930       -2.42590
C         -4.37410       -8.33100       -1.37500
S         -3.52870       -8.09480       -4.63660
C         -0.71790       -6.21530       -6.71060
C          0.23960       -6.43010       -7.73410
C          0.05900       -7.47560       -8.66050
C          1.09040       -7.87970       -9.59530
S          2.74300       -8.04590       -9.05890
C          3.24890       -8.71700      -10.57120
C          4.63300       -9.19960      -10.83870
C          5.66520       -8.07640      -11.01660
C          6.04030       -7.40920       -9.70040
C          2.17890       -8.76670      -11.41660
C          0.95710       -8.31220      -10.88370
F          2.27870       -9.23250      -12.67410
C         -1.13600       -8.18440       -8.57340
S         -1.62720       -9.47890       -9.62010
C          1.31390       -5.50930       -7.66020
C          1.23020       -4.65140       -6.60380
S         -0.20780       -4.94380       -5.64000
C          2.08690       -3.58500       -6.18570
C          2.80960       -2.66720       -6.92090
C          2.87090       -2.55820       -8.38510
C          2.33830       -1.41440       -8.97270
C          2.38040       -1.25770      -10.34470
C          2.94700       -2.23870      -11.13710
C          3.49560       -3.38020      -10.56610
C          4.05340       -4.46450      -11.44140
C          2.91150       -5.30740      -12.01300
C          3.46380       -3.52500       -9.18640
C          3.38760       -1.68860       -6.08540
S          4.35680       -0.27430       -6.42380
C          4.36860        0.09550       -4.73120
C          4.85320        1.08790       -3.85670
C          5.71180        2.19860       -4.02210
C          6.09860        2.96970       -2.86640
N          6.95530        3.93180       -3.16910
S          7.24670        3.88380       -4.76030
N          6.29180        2.63030       -5.13050
C          5.49660        2.69300       -1.61750
C          5.50660        3.35310       -0.37300
S          6.27200        4.70630        0.39150
C          5.28570        4.43800        1.80720
C          5.18200        5.10220        3.04710
C          6.05710        6.19090        3.48860
C          6.28440        7.30550        2.68870
C          7.14760        8.29410        3.12310
C          7.80620        8.16790        4.33440
C          7.60610        7.05080        5.13590
C          8.32350        6.88300        6.44610
C          7.40620        7.17980        7.63340
C          6.71730        6.07670        4.70730
C          4.22610        4.51430        3.84740
S          3.48010        3.10910        3.10790
C          4.42820        3.34400        1.68260
C          4.55640        2.72170        0.43490
N          3.97520        1.67650       -0.24050
C          4.56090        1.63590       -1.49350
C          4.37420        0.74150       -2.56810
N          3.68950       -0.45770       -2.63250
C          3.67410       -0.83610       -3.95250
C          3.11810       -1.85970       -4.72740
S          2.12870       -3.24580       -4.45750
C          3.59620       -1.44610       -1.57670
C          4.63870       -2.54940       -1.75620
C          2.62340        1.26850        0.08660
C          1.64130        2.42910       -0.07180
C          3.71480        5.03130        5.08210
C          3.40680        6.33490        5.32900
C          2.84550        6.55390        6.61020
C          2.31540        7.74940        7.12530
C          2.37980        8.99390        6.37870
S          0.95860        9.96800        6.13770
C          1.82890       11.15720        5.23230
C          1.13810       12.33980        4.64840
C          0.46470       11.98490        3.32070
C          3.14050       10.80330        5.12520
Cl         4.32210       11.73060        4.29520
C          3.45840        9.58240        5.77680
Cl         5.06430        8.97860        5.84470
C          1.68900        7.68010        8.36450
C          1.60860        6.47920        9.11910
C          2.14610        5.27240        8.60770
C          2.05870        4.01200        9.31020
C          2.99220        3.01100        9.35120
C          2.57590        1.88820       10.08930
C          1.32190        2.01200       10.60630
C          0.54040        1.02100       11.39670
C         -0.55770        0.37760       10.54690
S          0.63040        3.54350       10.19240
C          2.74400        5.35210        7.35680
S          3.35100        3.99400        6.44270
C          0.96810        6.70070       10.34770
C          0.53060        7.99880       10.53510
S          0.94160        9.02330        9.17600
C         -0.17910        8.37450       11.69570
C         -0.76000        9.56260       12.03440
C         -0.76870       10.79190       11.22040
O         -0.20350       10.98680       10.16150
C         -1.60500       11.76010       11.94810
C         -1.93270       13.05090       11.54000
C         -2.75070       13.72280       12.41530
C         -3.20440       13.15430       13.61350
C         -2.88220       11.88510       14.03100
C         -2.05480       11.17980       13.15140
C         -1.52300        9.82180       13.24390
C         -1.71530        8.96730       14.29860
C         -2.46260        9.27870       15.45440
N         -3.05320        9.45290       16.42360
C         -1.19990        7.65880       14.41270
N         -0.82560        6.58820       14.59730
C         -3.99740       14.38130       13.98790
C         -5.53260       14.33460       13.78760
C         -5.79090       13.34050       12.68260
C         -5.36240       13.87630       11.54750
C         -4.80690       15.24290       11.86440
C         -5.73470       15.65090       13.01990
C         -3.49310       15.01370       12.65250
H         -3.61910      -11.21450      -10.05850
H         -8.60530      -10.03240       -6.42420
H         -8.50540      -13.59250      -10.02410
H        -11.31060      -13.93140       -8.08150
H        -12.43940      -13.09990      -10.13850
H        -11.07790      -11.02010      -10.94910
H        -11.17210       -9.17040       -9.04540
H        -12.59280      -10.11060       -7.06040
H        -13.97050      -11.25730       -9.00930
H        -13.60180      -12.49850       -7.78570
H        -11.39990      -12.13370       -6.23080
H         -4.09030       -8.74580       -7.05550
H         -2.83310       -4.59850       -5.23120
H         -5.93940       -8.25450       -2.85140
H         -5.71140       -6.73830       -1.96060
H         -5.02580       -8.70410       -0.58930
H         -3.63350       -7.67160       -0.92830
H         -3.85880       -9.17350       -1.83100
H          4.59550       -9.79550      -11.75380
H          4.95620       -9.84880      -10.02070
H          5.27190       -7.33530      -11.71450
H          6.56200       -8.50900      -11.46410
H          6.48110       -8.13430       -9.01970
H          5.16630       -6.98000       -9.21570
H          6.76510       -6.61600       -9.87100
H          0.04280       -8.29230      -11.44630
H          2.11450       -5.48600       -8.37250
H          1.88700       -0.65600       -8.35060
H          1.96770       -0.36790      -10.79650
H          2.97420       -2.11620      -12.21020
H          4.72440       -5.09990      -10.86250
H          4.62160       -4.02430      -12.26350
H          2.25060       -4.69120      -12.61810
H          2.32240       -5.74280      -11.20860
H          3.29680       -6.11130      -12.63590
H          3.93390       -4.38290       -8.72560
H          5.77810        7.39770        1.73940
H          7.31260        9.16790        2.51020
H          8.48690        8.94220        4.65850
H          8.68500        5.85470        6.52560
H          9.18700        7.55000        6.48220
H          7.10030        8.22300        7.62750
H          6.51160        6.56170        7.59030
H          7.92210        6.97900        8.56970
H          6.55420        5.19790        5.31560
H          2.59160       -1.88210       -1.58650
H          3.77600       -0.95750       -0.62010
H          5.63720       -2.11910       -1.79500
H          4.46290       -3.10810       -2.67090
H          4.58640       -3.23720       -0.91690
H          2.61170        0.90900        1.12030
H          2.31600        0.46690       -0.58100
H          1.87970        3.23890        0.61190
H          1.67420        2.81060       -1.09020
H          0.63340        2.08380        0.14050
H          3.52980        7.10320        4.58910
H          1.87380       13.12970        4.48640
H          0.38560       12.69960        5.35210
H         -0.03580       12.85790        2.91040
H         -0.27030       11.19780        3.47050
H          1.20470       11.63840        2.60370
H          3.96470        3.09280        8.90070
H          3.18860        1.01630       10.23530
H          0.08330        1.51470       12.25750
H          1.22070        0.24980       11.76410
H         -1.11490       -0.34550       11.13680
H         -0.12330       -0.13200        9.68960
H         -1.24720        1.13690       10.18500
H          0.81830        5.94280       11.09530
H         -0.28750        7.55720       12.39870
H         -1.55900       13.44790       10.60910
H         -3.24080       11.46560       14.95580
H         -3.71510       14.86550       14.92050
H         -6.10280       14.19490       14.70190
H         -6.19360       12.35760       12.84360
H         -5.33490       13.43020       10.57060
H         -4.71720       15.93050       11.02750
H         -6.76530       15.79790       12.70050
H         -5.38950       16.52850       13.56470
H         -2.88290       15.91280       12.71210
