
  xtb     02232222113D
 energy: -360.002092035632 gnorm: 0.000791837707 xtb: 6.4.1 (unknown)
207232  0     0  0            999 V2000
   -1.6826    6.3453  -10.2435 C   0  0  0  0  0  0  0  0  0  0  0  0
   -1.2178    7.6150  -10.0630 C   0  0  0  0  0  0  0  0  0  0  0  0
   -0.6681    8.2423   -8.8336 C   0  0  0  0  0  0  0  0  0  0  0  0
   -0.7280    7.8535   -7.6851 O   0  0  0  0  0  0  0  0  0  0  0  0
    0.0093    9.4717   -9.2800 C   0  0  0  0  0  0  0  0  0  0  0  0
    0.7468   10.3447   -8.4828 C   0  0  0  0  0  0  0  0  0  0  0  0
    1.2908   11.4027   -9.1689 C   0  0  0  0  0  0  0  0  0  0  0  0
    1.1143   11.5815  -10.5484 C   0  0  0  0  0  0  0  0  0  0  0  0
    0.3801   10.7344  -11.3434 C   0  0  0  0  0  0  0  0  0  0  0  0
   -0.1837    9.6500  -10.6637 C   0  0  0  0  0  0  0  0  0  0  0  0
   -1.0175    8.5591  -11.1562 C   0  0  0  0  0  0  0  0  0  0  0  0
   -1.5746    8.4903  -12.4049 C   0  0  0  0  0  0  0  0  0  0  0  0
   -2.4779    7.5009  -12.8520 C   0  0  0  0  0  0  0  0  0  0  0  0
   -3.2339    6.7578  -13.2934 N   0  0  0  0  0  0  0  0  0  0  0  0
   -1.3643    9.4444  -13.4236 C   0  0  0  0  0  0  0  0  0  0  0  0
   -1.2351   10.1740  -14.3003 N   0  0  0  0  0  0  0  0  0  0  0  0
    1.9552   12.8330  -10.5736 C   0  0  0  0  0  0  0  0  0  0  0  0
    3.4005   12.7194  -11.1191 C   0  0  0  0  0  0  0  0  0  0  0  0
    3.8357   11.2932  -10.8898 C   0  0  0  0  0  0  0  0  0  0  0  0
    4.0005   11.1250   -9.5845 C   0  0  0  0  0  0  0  0  0  0  0  0
    3.6799   12.4347   -8.9075 C   0  0  0  0  0  0  0  0  0  0  0  0
    4.1627   13.4206   -9.9832 C   0  0  0  0  0  0  0  0  0  0  0  0
    2.1494   12.6351   -9.0372 C   0  0  0  0  0  0  0  0  0  0  0  0
   -1.9089    5.3028   -9.3124 C   0  0  0  0  0  0  0  0  0  0  0  0
   -1.9439    5.2913   -7.9417 C   0  0  0  0  0  0  0  0  0  0  0  0
   -2.1829    4.0172   -7.3898 C   0  0  0  0  0  0  0  0  0  0  0  0
   -2.2078    3.6731   -6.0234 C   0  0  0  0  0  0  0  0  0  0  0  0
   -2.1042    4.7014   -4.9828 C   0  0  0  0  0  0  0  0  0  0  0  0
   -2.9165    5.8339   -5.0192 C   0  0  0  0  0  0  0  0  0  0  0  0
   -2.8067    6.7839   -4.0325 C   0  0  0  0  0  0  0  0  0  0  0  0
   -3.6142    7.8588   -4.0759 F   0  0  0  0  0  0  0  0  0  0  0  0
   -1.8964    6.6980   -2.9634 C   0  0  0  0  0  0  0  0  0  0  0  0
   -1.9017    7.7390   -2.1082 O   0  0  0  0  0  0  0  0  0  0  0  0
   -1.1823    7.7056   -0.8856 C   0  0  0  0  0  0  0  0  0  0  0  0
   -1.8348    6.7954    0.1481 C   0  0  0  0  0  0  0  0  0  0  0  0
   -1.0990    5.5514   -2.9660 C   0  0  0  0  0  0  0  0  0  0  0  0
   -0.1715    5.3434   -1.9983 F   0  0  0  0  0  0  0  0  0  0  0  0
   -1.2011    4.5733   -3.9373 C   0  0  0  0  0  0  0  0  0  0  0  0
   -2.3240    2.3274   -5.7290 C   0  0  0  0  0  0  0  0  0  0  0  0
   -2.4503    1.3195   -6.7222 C   0  0  0  0  0  0  0  0  0  0  0  0
   -2.4653    1.6665   -8.0843 C   0  0  0  0  0  0  0  0  0  0  0  0
   -2.6069    0.6501   -9.1344 C   0  0  0  0  0  0  0  0  0  0  0  0
   -1.7990   -0.4784   -9.1555 C   0  0  0  0  0  0  0  0  0  0  0  0
   -1.9300   -1.4254  -10.1539 C   0  0  0  0  0  0  0  0  0  0  0  0
   -2.8701   -1.3156  -11.1805 C   0  0  0  0  0  0  0  0  0  0  0  0
   -3.0983   -2.1275  -12.2307 O   0  0  0  0  0  0  0  0  0  0  0  0
   -2.4589   -3.3878  -12.3583 C   0  0  0  0  0  0  0  0  0  0  0  0
   -3.0512   -4.4333  -11.4218 C   0  0  0  0  0  0  0  0  0  0  0  0
   -3.6720   -0.1613  -11.1200 C   0  0  0  0  0  0  0  0  0  0  0  0
   -3.5546    0.8002  -10.1449 C   0  0  0  0  0  0  0  0  0  0  0  0
   -4.6047   -0.0043  -12.0755 F   0  0  0  0  0  0  0  0  0  0  0  0
   -1.0840   -2.4850  -10.0906 F   0  0  0  0  0  0  0  0  0  0  0  0
   -2.3299    3.0141   -8.3856 C   0  0  0  0  0  0  0  0  0  0  0  0
   -2.2207    3.6974   -9.9800 S   0  0  0  0  0  0  0  0  0  0  0  0
   -2.5761    0.0298   -6.1556 C   0  0  0  0  0  0  0  0  0  0  0  0
   -2.5469    0.0211   -4.7892 C   0  0  0  0  0  0  0  0  0  0  0  0
   -2.3737    1.6389   -4.1289 S   0  0  0  0  0  0  0  0  0  0  0  0
   -2.5540   -1.0892   -3.8960 C   0  0  0  0  0  0  0  0  0  0  0  0
   -2.7621   -2.4348   -4.1514 C   0  0  0  0  0  0  0  0  0  0  0  0
   -3.2317   -3.0239   -5.4082 C   0  0  0  0  0  0  0  0  0  0  0  0
   -4.3556   -2.5203   -6.0605 C   0  0  0  0  0  0  0  0  0  0  0  0
   -4.7989   -3.1175   -7.2239 C   0  0  0  0  0  0  0  0  0  0  0  0
   -4.1373   -4.2197   -7.7405 C   0  0  0  0  0  0  0  0  0  0  0  0
   -3.0242   -4.7437   -7.0972 C   0  0  0  0  0  0  0  0  0  0  0  0
   -2.2951   -5.9387   -7.6421 C   0  0  0  0  0  0  0  0  0  0  0  0
   -0.8999   -5.5665   -8.1468 C   0  0  0  0  0  0  0  0  0  0  0  0
   -2.5831   -4.1368   -5.9290 C   0  0  0  0  0  0  0  0  0  0  0  0
   -2.4928   -3.2147   -3.0086 C   0  0  0  0  0  0  0  0  0  0  0  0
   -2.5221   -4.9394   -2.7210 S   0  0  0  0  0  0  0  0  0  0  0  0
   -2.0107   -4.6530   -1.0921 C   0  0  0  0  0  0  0  0  0  0  0  0
   -1.6250   -5.3785    0.0476 C   0  0  0  0  0  0  0  0  0  0  0  0
   -1.4267   -6.7625    0.2468 C   0  0  0  0  0  0  0  0  0  0  0  0
   -0.8346   -7.2091    1.4760 C   0  0  0  0  0  0  0  0  0  0  0  0
   -0.6389   -8.5183    1.4961 N   0  0  0  0  0  0  0  0  0  0  0  0
   -1.1592   -9.1366    0.0937 S   0  0  0  0  0  0  0  0  0  0  0  0
   -1.6527   -7.7577   -0.5964 N   0  0  0  0  0  0  0  0  0  0  0  0
   -0.5972   -6.2673    2.5008 C   0  0  0  0  0  0  0  0  0  0  0  0
   -0.1653   -6.4258    3.8273 C   0  0  0  0  0  0  0  0  0  0  0  0
    0.4085   -7.6756    4.8778 S   0  0  0  0  0  0  0  0  0  0  0  0
    0.4714   -6.5148    6.1811 C   0  0  0  0  0  0  0  0  0  0  0  0
    0.8857   -6.6131    7.5213 C   0  0  0  0  0  0  0  0  0  0  0  0
    1.5060   -7.8030    8.1103 C   0  0  0  0  0  0  0  0  0  0  0  0
    0.8982   -9.0493    8.0094 C   0  0  0  0  0  0  0  0  0  0  0  0
    1.4942  -10.1513    8.5968 C   0  0  0  0  0  0  0  0  0  0  0  0
    2.6916  -10.0200    9.2774 C   0  0  0  0  0  0  0  0  0  0  0  0
    3.3246   -8.7841    9.3656 C   0  0  0  0  0  0  0  0  0  0  0  0
    4.6495   -8.6351   10.0557 C   0  0  0  0  0  0  0  0  0  0  0  0
    5.7917   -8.8712    9.0659 C   0  0  0  0  0  0  0  0  0  0  0  0
    2.7274   -7.6853    8.7693 C   0  0  0  0  0  0  0  0  0  0  0  0
    0.7351   -5.4040    8.1801 C   0  0  0  0  0  0  0  0  0  0  0  0
    0.1372   -4.1312    7.1328 S   0  0  0  0  0  0  0  0  0  0  0  0
    0.0612   -5.2324    5.8031 C   0  0  0  0  0  0  0  0  0  0  0  0
   -0.2826   -5.1783    4.4472 C   0  0  0  0  0  0  0  0  0  0  0  0
   -0.7355   -4.2505    3.5474 N   0  0  0  0  0  0  0  0  0  0  0  0
   -0.9103   -4.8890    2.3339 C   0  0  0  0  0  0  0  0  0  0  0  0
   -1.2941   -4.4245    1.0494 C   0  0  0  0  0  0  0  0  0  0  0  0
   -1.4401   -3.1523    0.5150 N   0  0  0  0  0  0  0  0  0  0  0  0
   -1.8552   -3.3004   -0.7832 C   0  0  0  0  0  0  0  0  0  0  0  0
   -2.1200   -2.4765   -1.8836 C   0  0  0  0  0  0  0  0  0  0  0  0
   -2.0786   -0.7874   -2.2307 S   0  0  0  0  0  0  0  0  0  0  0  0
   -0.7568   -1.9300    0.8817 C   0  0  0  0  0  0  0  0  0  0  0  0
    0.7514   -2.0670    0.6851 C   0  0  0  0  0  0  0  0  0  0  0  0
   -1.2577   -2.9867    4.0147 C   0  0  0  0  0  0  0  0  0  0  0  0
   -0.1514   -1.9815    4.3313 C   0  0  0  0  0  0  0  0  0  0  0  0
    0.9995   -5.1277    9.5499 C   0  0  0  0  0  0  0  0  0  0  0  0
    1.0301   -6.0272   10.5915 C   0  0  0  0  0  0  0  0  0  0  0  0
    1.4038   -5.4533   11.8110 C   0  0  0  0  0  0  0  0  0  0  0  0
    1.6352   -6.3027   13.3157 S   0  0  0  0  0  0  0  0  0  0  0  0
    1.5965   -8.0626   12.8170 C   0  0  0  0  0  0  0  0  0  0  0  0
    0.1924   -8.6341   12.7643 C   0  0  0  0  0  0  0  0  0  0  0  0
    1.6745   -4.0880   11.7157 C   0  0  0  0  0  0  0  0  0  0  0  0
    1.3894   -3.5244   10.0852 S   0  0  0  0  0  0  0  0  0  0  0  0
    2.0785   -3.2278   12.7537 C   0  0  0  0  0  0  0  0  0  0  0  0
    2.7122   -2.0263   12.6315 C   0  0  0  0  0  0  0  0  0  0  0  0
    2.6433   -1.0141   13.7140 C   0  0  0  0  0  0  0  0  0  0  0  0
    2.2700   -1.1868   14.8528 O   0  0  0  0  0  0  0  0  0  0  0  0
    3.0653    0.2544   13.0827 C   0  0  0  0  0  0  0  0  0  0  0  0
    3.0410    1.5269   13.6491 C   0  0  0  0  0  0  0  0  0  0  0  0
    3.4614    2.5248   12.8026 C   0  0  0  0  0  0  0  0  0  0  0  0
    3.8748    2.2813   11.4861 C   0  0  0  0  0  0  0  0  0  0  0  0
    3.9169    1.0304   10.9172 C   0  0  0  0  0  0  0  0  0  0  0  0
    3.4950    0.0017   11.7630 C   0  0  0  0  0  0  0  0  0  0  0  0
    3.4289   -1.4383   11.5245 C   0  0  0  0  0  0  0  0  0  0  0  0
    4.1579   -2.1226   10.5827 C   0  0  0  0  0  0  0  0  0  0  0  0
    4.2959   -3.5255   10.5691 C   0  0  0  0  0  0  0  0  0  0  0  0
    4.4787   -4.6601   10.5461 N   0  0  0  0  0  0  0  0  0  0  0  0
    4.9158   -1.5063    9.5692 C   0  0  0  0  0  0  0  0  0  0  0  0
    5.5316   -1.0611    8.7077 N   0  0  0  0  0  0  0  0  0  0  0  0
    4.1361    3.7418   11.2126 C   0  0  0  0  0  0  0  0  0  0  0  0
    3.0727    4.4907   10.3816 C   0  0  0  0  0  0  0  0  0  0  0  0
    3.3383    5.9481   10.6830 C   0  0  0  0  0  0  0  0  0  0  0  0
    2.9517    6.1788   11.9312 C   0  0  0  0  0  0  0  0  0  0  0  0
    2.4179    4.8815   12.4941 C   0  0  0  0  0  0  0  0  0  0  0  0
    1.8091    4.2733   11.2241 C   0  0  0  0  0  0  0  0  0  0  0  0
    3.6800    4.0130   12.6821 C   0  0  0  0  0  0  0  0  0  0  0  0
   -1.8759    6.0449  -11.2672 H   0  0  0  0  0  0  0  0  0  0  0  0
    0.8574   10.1673   -7.4245 H   0  0  0  0  0  0  0  0  0  0  0  0
    0.2555   10.8851  -12.4026 H   0  0  0  0  0  0  0  0  0  0  0  0
    1.4539   13.7371  -10.9128 H   0  0  0  0  0  0  0  0  0  0  0  0
    3.5342   13.1060  -12.1257 H   0  0  0  0  0  0  0  0  0  0  0  0
    3.9209   10.5603  -11.6706 H   0  0  0  0  0  0  0  0  0  0  0  0
    4.2503   10.2231   -9.0569 H   0  0  0  0  0  0  0  0  0  0  0  0
    4.0685   12.5622   -7.9005 H   0  0  0  0  0  0  0  0  0  0  0  0
    5.2424   13.3959  -10.1227 H   0  0  0  0  0  0  0  0  0  0  0  0
    3.8372   14.4454   -9.8101 H   0  0  0  0  0  0  0  0  0  0  0  0
    1.7743   13.4102   -8.3719 H   0  0  0  0  0  0  0  0  0  0  0  0
   -1.7678    6.1693   -7.3498 H   0  0  0  0  0  0  0  0  0  0  0  0
   -3.6515    5.9695   -5.7961 H   0  0  0  0  0  0  0  0  0  0  0  0
   -1.2163    8.7433   -0.5432 H   0  0  0  0  0  0  0  0  0  0  0  0
   -0.1374    7.4269   -1.0497 H   0  0  0  0  0  0  0  0  0  0  0  0
   -2.8775    7.0740    0.2809 H   0  0  0  0  0  0  0  0  0  0  0  0
   -1.3166    6.8985    1.0969 H   0  0  0  0  0  0  0  0  0  0  0  0
   -1.7871    5.7544   -0.1608 H   0  0  0  0  0  0  0  0  0  0  0  0
   -0.5375    3.7257   -3.8730 H   0  0  0  0  0  0  0  0  0  0  0  0
   -1.0290   -0.6264   -8.4149 H   0  0  0  0  0  0  0  0  0  0  0  0
   -2.6484   -3.6662  -13.3984 H   0  0  0  0  0  0  0  0  0  0  0  0
   -1.3782   -3.2986  -12.2139 H   0  0  0  0  0  0  0  0  0  0  0  0
   -2.5891   -5.3969  -11.6161 H   0  0  0  0  0  0  0  0  0  0  0  0
   -2.8760   -4.1657  -10.3832 H   0  0  0  0  0  0  0  0  0  0  0  0
   -4.1233   -4.5124  -11.5880 H   0  0  0  0  0  0  0  0  0  0  0  0
   -4.2157    1.6514  -10.1710 H   0  0  0  0  0  0  0  0  0  0  0  0
   -2.6804   -0.8618   -6.7431 H   0  0  0  0  0  0  0  0  0  0  0  0
   -4.8812   -1.6733   -5.6449 H   0  0  0  0  0  0  0  0  0  0  0  0
   -5.6700   -2.7268   -7.7288 H   0  0  0  0  0  0  0  0  0  0  0  0
   -4.5038   -4.6871   -8.6430 H   0  0  0  0  0  0  0  0  0  0  0  0
   -2.1991   -6.6888   -6.8531 H   0  0  0  0  0  0  0  0  0  0  0  0
   -2.8713   -6.3781   -8.4585 H   0  0  0  0  0  0  0  0  0  0  0  0
   -0.9590   -4.8032   -8.9182 H   0  0  0  0  0  0  0  0  0  0  0  0
   -0.2885   -5.1811   -7.3348 H   0  0  0  0  0  0  0  0  0  0  0  0
   -0.4059   -6.4409   -8.5635 H   0  0  0  0  0  0  0  0  0  0  0  0
   -1.7188   -4.5335   -5.4172 H   0  0  0  0  0  0  0  0  0  0  0  0
   -0.0431   -9.1472    7.4898 H   0  0  0  0  0  0  0  0  0  0  0  0
    1.0172  -11.1177    8.5263 H   0  0  0  0  0  0  0  0  0  0  0  0
    3.1440  -10.8841    9.7427 H   0  0  0  0  0  0  0  0  0  0  0  0
    4.7266   -9.3557   10.8733 H   0  0  0  0  0  0  0  0  0  0  0  0
    4.7387   -7.6283   10.4682 H   0  0  0  0  0  0  0  0  0  0  0  0
    5.7413   -8.1480    8.2554 H   0  0  0  0  0  0  0  0  0  0  0  0
    5.7271   -9.8703    8.6397 H   0  0  0  0  0  0  0  0  0  0  0  0
    6.7518   -8.7658    9.5647 H   0  0  0  0  0  0  0  0  0  0  0  0
    3.2132   -6.7218    8.8276 H   0  0  0  0  0  0  0  0  0  0  0  0
   -1.1434   -1.1465    0.2252 H   0  0  0  0  0  0  0  0  0  0  0  0
   -0.9821   -1.6437    1.9048 H   0  0  0  0  0  0  0  0  0  0  0  0
    1.2461   -1.1343    0.9422 H   0  0  0  0  0  0  0  0  0  0  0  0
    0.9747   -2.3027   -0.3529 H   0  0  0  0  0  0  0  0  0  0  0  0
    1.1490   -2.8641    1.3100 H   0  0  0  0  0  0  0  0  0  0  0  0
   -1.9634   -2.6052    3.2755 H   0  0  0  0  0  0  0  0  0  0  0  0
   -1.8215   -3.1823    4.9345 H   0  0  0  0  0  0  0  0  0  0  0  0
   -0.5907   -1.0235    4.5960 H   0  0  0  0  0  0  0  0  0  0  0  0
    0.5180   -1.8435    3.4873 H   0  0  0  0  0  0  0  0  0  0  0  0
    0.4378   -2.3301    5.1749 H   0  0  0  0  0  0  0  0  0  0  0  0
    0.7767   -7.0600   10.4532 H   0  0  0  0  0  0  0  0  0  0  0  0
    2.1185   -8.1471   11.8649 H   0  0  0  0  0  0  0  0  0  0  0  0
    2.1841   -8.5628   13.5869 H   0  0  0  0  0  0  0  0  0  0  0  0
   -0.2775   -8.5723   13.7430 H   0  0  0  0  0  0  0  0  0  0  0  0
   -0.4295   -8.0950   12.0536 H   0  0  0  0  0  0  0  0  0  0  0  0
    0.2356   -9.6787   12.4622 H   0  0  0  0  0  0  0  0  0  0  0  0
    1.7983   -3.5271   13.7590 H   0  0  0  0  0  0  0  0  0  0  0  0
    2.7169    1.6745   14.6674 H   0  0  0  0  0  0  0  0  0  0  0  0
    4.2342    0.8502    9.9030 H   0  0  0  0  0  0  0  0  0  0  0  0
    5.1552    3.9961   10.9276 H   0  0  0  0  0  0  0  0  0  0  0  0
    3.0315    4.2074    9.3332 H   0  0  0  0  0  0  0  0  0  0  0  0
    3.8168    6.6247    9.9994 H   0  0  0  0  0  0  0  0  0  0  0  0
    3.0426    7.0866   12.4984 H   0  0  0  0  0  0  0  0  0  0  0  0
    1.7797    4.9541   13.3706 H   0  0  0  0  0  0  0  0  0  0  0  0
    1.5186    3.2295   11.3273 H   0  0  0  0  0  0  0  0  0  0  0  0
    0.9637    4.8521   10.8552 H   0  0  0  0  0  0  0  0  0  0  0  0
    4.3963    4.4469   13.3771 H   0  0  0  0  0  0  0  0  0  0  0  0
  1  2  2  0  0  0  0
  2  3  1  0  0  0  0
  3  4  2  0  0  0  0
  3  5  1  0  0  0  0
  5  6  2  0  0  0  0
  6  7  1  0  0  0  0
  7  8  2  0  0  0  0
  8  9  1  0  0  0  0
  9 10  2  0  0  0  0
 10 11  1  0  0  0  0
 11 12  2  0  0  0  0
 12 13  1  0  0  0  0
 13 14  3  0  0  0  0
 12 15  1  0  0  0  0
 15 16  3  0  0  0  0
  8 17  1  0  0  0  0
 17 18  1  0  0  0  0
 18 19  1  0  0  0  0
 19 20  2  0  0  0  0
 20 21  1  0  0  0  0
 21 22  1  0  0  0  0
 21 23  1  0  0  0  0
  1 24  1  0  0  0  0
 24 25  2  0  0  0  0
 25 26  1  0  0  0  0
 26 27  2  0  0  0  0
 27 28  1  0  0  0  0
 28 29  2  0  0  0  0
 29 30  1  0  0  0  0
 30 31  1  0  0  0  0
 30 32  2  0  0  0  0
 32 33  1  0  0  0  0
 33 34  1  0  0  0  0
 34 35  1  0  0  0  0
 32 36  1  0  0  0  0
 36 37  1  0  0  0  0
 36 38  2  0  0  0  0
 27 39  1  0  0  0  0
 39 40  2  0  0  0  0
 40 41  1  0  0  0  0
 41 42  1  0  0  0  0
 42 43  2  0  0  0  0
 43 44  1  0  0  0  0
 44 45  2  0  0  0  0
 45 46  1  0  0  0  0
 46 47  1  0  0  0  0
 47 48  1  0  0  0  0
 45 49  1  0  0  0  0
 49 50  2  0  0  0  0
 49 51  1  0  0  0  0
 44 52  1  0  0  0  0
 41 53  2  0  0  0  0
 53 54  1  0  0  0  0
 40 55  1  0  0  0  0
 55 56  2  0  0  0  0
 56 57  1  0  0  0  0
 56 58  1  0  0  0  0
 58 59  2  0  0  0  0
 59 60  1  0  0  0  0
 60 61  2  0  0  0  0
 61 62  1  0  0  0  0
 62 63  2  0  0  0  0
 63 64  1  0  0  0  0
 64 65  1  0  0  0  0
 65 66  1  0  0  0  0
 64 67  2  0  0  0  0
 59 68  1  0  0  0  0
 68 69  1  0  0  0  0
 69 70  1  0  0  0  0
 70 71  1  0  0  0  0
 71 72  1  0  0  0  0
 72 73  1  0  0  0  0
 73 74  2  0  0  0  0
 74 75  1  0  0  0  0
 75 76  1  0  0  0  0
 73 77  1  0  0  0  0
 77 78  1  0  0  0  0
 78 79  1  0  0  0  0
 79 80  1  0  0  0  0
 80 81  1  0  0  0  0
 81 82  1  0  0  0  0
 82 83  2  0  0  0  0
 83 84  1  0  0  0  0
 84 85  2  0  0  0  0
 85 86  1  0  0  0  0
 86 87  1  0  0  0  0
 87 88  1  0  0  0  0
 86 89  2  0  0  0  0
 81 90  2  0  0  0  0
 90 91  1  0  0  0  0
 91 92  1  0  0  0  0
 92 93  1  0  0  0  0
 93 94  1  0  0  0  0
 94 95  1  0  0  0  0
 95 96  1  0  0  0  0
 96 97  1  0  0  0  0
 97 98  1  0  0  0  0
 98 99  1  0  0  0  0
 99100  1  0  0  0  0
 97101  1  0  0  0  0
101102  1  0  0  0  0
 94103  1  0  0  0  0
103104  1  0  0  0  0
 90105  1  0  0  0  0
105106  2  0  0  0  0
106107  1  0  0  0  0
107108  1  0  0  0  0
108109  1  0  0  0  0
109110  1  0  0  0  0
107111  2  0  0  0  0
111112  1  0  0  0  0
111113  1  0  0  0  0
113114  2  0  0  0  0
114115  1  0  0  0  0
115116  2  0  0  0  0
115117  1  0  0  0  0
117118  2  0  0  0  0
118119  1  0  0  0  0
119120  2  0  0  0  0
120121  1  0  0  0  0
121122  2  0  0  0  0
122123  1  0  0  0  0
123124  2  0  0  0  0
124125  1  0  0  0  0
125126  3  0  0  0  0
124127  1  0  0  0  0
127128  3  0  0  0  0
120129  1  0  0  0  0
129130  1  0  0  0  0
130131  1  0  0  0  0
131132  2  0  0  0  0
132133  1  0  0  0  0
133134  1  0  0  0  0
133135  1  0  0  0  0
 11  2  1  0  0  0  0
 23 17  1  0  0  0  0
 54 24  1  0  0  0  0
100 58  1  0  0  0  0
112105  1  0  0  0  0
123114  1  0  0  0  0
135129  1  0  0  0  0
 10  5  1  0  0  0  0
 22 18  1  0  0  0  0
 53 26  1  0  0  0  0
 67 60  1  0  0  0  0
 99 68  2  0  0  0  0
122117  1  0  0  0  0
134130  1  0  0  0  0
 23  7  1  0  0  0  0
 38 28  1  0  0  0  0
 57 39  1  0  0  0  0
 98 70  2  0  0  0  0
135119  1  0  0  0  0
 50 42  1  0  0  0  0
 96 71  2  0  0  0  0
 76 72  2  0  0  0  0
 95 77  2  0  0  0  0
 93 78  2  0  0  0  0
 92 80  2  0  0  0  0
 89 82  1  0  0  0  0
  1136  1  0  0  0  0
  6137  1  0  0  0  0
  9138  1  0  0  0  0
 17139  1  0  0  0  0
 18140  1  0  0  0  0
 19141  1  0  0  0  0
 20142  1  0  0  0  0
 21143  1  0  0  0  0
 22144  1  0  0  0  0
 22145  1  0  0  0  0
 23146  1  0  0  0  0
 25147  1  0  0  0  0
 29148  1  0  0  0  0
 34149  1  0  0  0  0
 34150  1  0  0  0  0
 35151  1  0  0  0  0
 35152  1  0  0  0  0
 35153  1  0  0  0  0
 38154  1  0  0  0  0
 43155  1  0  0  0  0
 47156  1  0  0  0  0
 47157  1  0  0  0  0
 48158  1  0  0  0  0
 48159  1  0  0  0  0
 48160  1  0  0  0  0
 50161  1  0  0  0  0
 55162  1  0  0  0  0
 61163  1  0  0  0  0
 62164  1  0  0  0  0
 63165  1  0  0  0  0
 65166  1  0  0  0  0
 65167  1  0  0  0  0
 66168  1  0  0  0  0
 66169  1  0  0  0  0
 66170  1  0  0  0  0
 67171  1  0  0  0  0
 83172  1  0  0  0  0
 84173  1  0  0  0  0
 85174  1  0  0  0  0
 87175  1  0  0  0  0
 87176  1  0  0  0  0
 88177  1  0  0  0  0
 88178  1  0  0  0  0
 88179  1  0  0  0  0
 89180  1  0  0  0  0
101181  1  0  0  0  0
101182  1  0  0  0  0
102183  1  0  0  0  0
102184  1  0  0  0  0
102185  1  0  0  0  0
103186  1  0  0  0  0
103187  1  0  0  0  0
104188  1  0  0  0  0
104189  1  0  0  0  0
104190  1  0  0  0  0
106191  1  0  0  0  0
109192  1  0  0  0  0
109193  1  0  0  0  0
110194  1  0  0  0  0
110195  1  0  0  0  0
110196  1  0  0  0  0
113197  1  0  0  0  0
118198  1  0  0  0  0
121199  1  0  0  0  0
129200  1  0  0  0  0
130201  1  0  0  0  0
131202  1  0  0  0  0
132203  1  0  0  0  0
133204  1  0  0  0  0
134205  1  0  0  0  0
134206  1  0  0  0  0
135207  1  0  0  0  0
M  END
