
  xtb     02092207533D
 energy: -416.039433682693 gnorm: 0.000713514046 xtb: 6.4.1 (unknown)
251281  0     0  0            999 V2000
    4.7128   -5.8258   14.6214 C   0  0  0  0  0  0  0  0  0  0  0  0
    5.9272   -6.4459   14.6128 C   0  0  0  0  0  0  0  0  0  0  0  0
    6.8919   -6.5970   13.4942 C   0  0  0  0  0  0  0  0  0  0  0  0
    6.7005   -6.4833   12.3017 O   0  0  0  0  0  0  0  0  0  0  0  0
    8.1822   -6.9305   14.1254 C   0  0  0  0  0  0  0  0  0  0  0  0
    9.4139   -7.0490   13.4837 C   0  0  0  0  0  0  0  0  0  0  0  0
   10.4572   -7.3422   14.3278 C   0  0  0  0  0  0  0  0  0  0  0  0
   10.2896   -7.5095   15.7098 C   0  0  0  0  0  0  0  0  0  0  0  0
    9.0797   -7.4081   16.3534 C   0  0  0  0  0  0  0  0  0  0  0  0
    8.0036   -7.1085   15.5111 C   0  0  0  0  0  0  0  0  0  0  0  0
    6.5908   -6.9202   15.8202 C   0  0  0  0  0  0  0  0  0  0  0  0
    5.9911   -7.2201   17.0138 C   0  0  0  0  0  0  0  0  0  0  0  0
    6.6777   -7.7024   18.1484 C   0  0  0  0  0  0  0  0  0  0  0  0
    7.1719   -8.0944   19.1076 N   0  0  0  0  0  0  0  0  0  0  0  0
    4.6045   -7.1523   17.2725 C   0  0  0  0  0  0  0  0  0  0  0  0
    3.4923   -7.1576   17.5582 N   0  0  0  0  0  0  0  0  0  0  0  0
   11.7593   -7.7605   15.9385 C   0  0  0  0  0  0  0  0  0  0  0  0
   12.5742   -6.5876   16.5240 C   0  0  0  0  0  0  0  0  0  0  0  0
   14.0060   -6.9392   16.1898 C   0  0  0  0  0  0  0  0  0  0  0  0
   14.1650   -6.7834   14.8817 C   0  0  0  0  0  0  0  0  0  0  0  0
   12.8435   -6.3231   14.3098 C   0  0  0  0  0  0  0  0  0  0  0  0
   12.3248   -5.4856   15.4860 C   0  0  0  0  0  0  0  0  0  0  0  0
   11.9458   -7.5760   14.3982 C   0  0  0  0  0  0  0  0  0  0  0  0
    3.9593   -5.2473   13.5725 C   0  0  0  0  0  0  0  0  0  0  0  0
    4.0860   -5.3015   12.2067 C   0  0  0  0  0  0  0  0  0  0  0  0
    3.1286   -4.5357   11.5133 C   0  0  0  0  0  0  0  0  0  0  0  0
    3.0024   -4.3623   10.1143 C   0  0  0  0  0  0  0  0  0  0  0  0
    3.9260   -4.9379    9.1610 C   0  0  0  0  0  0  0  0  0  0  0  0
    3.6312   -5.4015    7.9074 C   0  0  0  0  0  0  0  0  0  0  0  0
    4.7508   -5.8390    7.1684 C   0  0  0  0  0  0  0  0  0  0  0  0
    4.6731   -6.3428    5.7629 C   0  0  0  0  0  0  0  0  0  0  0  0
    4.5710   -5.1730    4.7826 C   0  0  0  0  0  0  0  0  0  0  0  0
    5.9033   -5.6786    7.8848 C   0  0  0  0  0  0  0  0  0  0  0  0
    7.4867   -6.0693    7.3707 Cl  0  0  0  0  0  0  0  0  0  0  0  0
    5.6394   -5.0235    9.4643 S   0  0  0  0  0  0  0  0  0  0  0  0
    1.9566   -3.5531    9.6867 C   0  0  0  0  0  0  0  0  0  0  0  0
    1.0453   -2.9292   10.5732 C   0  0  0  0  0  0  0  0  0  0  0  0
    1.1649   -3.1050   11.9637 C   0  0  0  0  0  0  0  0  0  0  0  0
    0.2565   -2.4179   12.8639 C   0  0  0  0  0  0  0  0  0  0  0  0
   -1.1047   -2.3536   12.7969 C   0  0  0  0  0  0  0  0  0  0  0  0
   -1.6992   -1.5363   13.7857 C   0  0  0  0  0  0  0  0  0  0  0  0
   -3.1733   -1.3573   13.9598 C   0  0  0  0  0  0  0  0  0  0  0  0
   -3.7335   -2.3984   14.9303 C   0  0  0  0  0  0  0  0  0  0  0  0
   -0.7513   -0.9776   14.5925 C   0  0  0  0  0  0  0  0  0  0  0  0
    0.8637   -1.4446   14.1735 S   0  0  0  0  0  0  0  0  0  0  0  0
   -1.0274    0.0913   15.8987 Cl  0  0  0  0  0  0  0  0  0  0  0  0
    2.2171   -3.8977   12.3990 C   0  0  0  0  0  0  0  0  0  0  0  0
    2.5828   -4.2573   14.0551 S   0  0  0  0  0  0  0  0  0  0  0  0
    0.1532   -2.0609    9.9070 C   0  0  0  0  0  0  0  0  0  0  0  0
    0.3765   -1.9692    8.5634 C   0  0  0  0  0  0  0  0  0  0  0  0
    1.6596   -3.0473    8.0426 S   0  0  0  0  0  0  0  0  0  0  0  0
   -0.2460   -1.0766    7.6450 C   0  0  0  0  0  0  0  0  0  0  0  0
   -0.9673    0.0636    7.9487 C   0  0  0  0  0  0  0  0  0  0  0  0
   -1.2121    0.5580    9.3157 C   0  0  0  0  0  0  0  0  0  0  0  0
   -0.1434    1.0787   10.0372 C   0  0  0  0  0  0  0  0  0  0  0  0
   -0.3218    1.5193   11.3345 C   0  0  0  0  0  0  0  0  0  0  0  0
   -1.5786    1.4519   11.9090 C   0  0  0  0  0  0  0  0  0  0  0  0
   -2.6475    0.9531   11.1860 C   0  0  0  0  0  0  0  0  0  0  0  0
   -2.4869    0.4931    9.8857 C   0  0  0  0  0  0  0  0  0  0  0  0
   -3.6302   -0.0711    9.0831 C   0  0  0  0  0  0  0  0  0  0  0  0
   -4.7545   -0.6838    9.9109 C   0  0  0  0  0  0  0  0  0  0  0  0
   -1.3717    0.7373    6.7838 C   0  0  0  0  0  0  0  0  0  0  0  0
   -2.2215    2.2427    6.5343 S   0  0  0  0  0  0  0  0  0  0  0  0
   -2.0170    2.0405    4.8269 C   0  0  0  0  0  0  0  0  0  0  0  0
   -2.2635    2.7450    3.6386 C   0  0  0  0  0  0  0  0  0  0  0  0
   -2.7578    4.0503    3.4275 C   0  0  0  0  0  0  0  0  0  0  0  0
   -2.7169    4.5980    2.1026 C   0  0  0  0  0  0  0  0  0  0  0  0
   -3.1437    5.8504    2.0594 N   0  0  0  0  0  0  0  0  0  0  0  0
   -3.5663    6.2996    3.5567 S   0  0  0  0  0  0  0  0  0  0  0  0
   -3.2183    4.9135    4.3191 N   0  0  0  0  0  0  0  0  0  0  0  0
   -2.3035    3.7709    1.0361 C   0  0  0  0  0  0  0  0  0  0  0  0
   -2.2662    4.0049   -0.3473 C   0  0  0  0  0  0  0  0  0  0  0  0
   -2.5143    5.2991   -1.4694 S   0  0  0  0  0  0  0  0  0  0  0  0
   -2.1888    4.1924   -2.7843 C   0  0  0  0  0  0  0  0  0  0  0  0
   -2.1134    4.3771   -4.1821 C   0  0  0  0  0  0  0  0  0  0  0  0
   -2.2483    5.7067   -4.7863 C   0  0  0  0  0  0  0  0  0  0  0  0
   -3.3717    6.5199   -4.6126 C   0  0  0  0  0  0  0  0  0  0  0  0
   -4.6425    6.1222   -3.9049 C   0  0  0  0  0  0  0  0  0  0  0  0
   -5.0694    4.6585   -3.9977 C   0  0  0  0  0  0  0  0  0  0  0  0
   -3.3184    7.8112   -5.1324 C   0  0  0  0  0  0  0  0  0  0  0  0
   -2.2140    8.2894   -5.8101 C   0  0  0  0  0  0  0  0  0  0  0  0
   -1.1128    7.4707   -5.9900 C   0  0  0  0  0  0  0  0  0  0  0  0
   -1.1373    6.1929   -5.4727 C   0  0  0  0  0  0  0  0  0  0  0  0
   -1.7463    3.2081   -4.8253 C   0  0  0  0  0  0  0  0  0  0  0  0
   -1.5528    1.8670   -3.6903 S   0  0  0  0  0  0  0  0  0  0  0  0
   -1.8936    2.9004   -2.3509 C   0  0  0  0  0  0  0  0  0  0  0  0
   -1.9268    2.7949   -0.9548 C   0  0  0  0  0  0  0  0  0  0  0  0
   -1.7082    1.8350   -0.0037 N   0  0  0  0  0  0  0  0  0  0  0  0
   -1.9185    2.4152    1.2384 C   0  0  0  0  0  0  0  0  0  0  0  0
   -1.7789    1.9393    2.5698 C   0  0  0  0  0  0  0  0  0  0  0  0
   -1.2262    0.7893    3.1113 N   0  0  0  0  0  0  0  0  0  0  0  0
   -1.3535    0.8637    4.4725 C   0  0  0  0  0  0  0  0  0  0  0  0
   -0.9690    0.1203    5.5961 C   0  0  0  0  0  0  0  0  0  0  0  0
   -0.0781   -1.3266    5.9156 S   0  0  0  0  0  0  0  0  0  0  0  0
   -0.3109   -0.1661    2.5305 C   0  0  0  0  0  0  0  0  0  0  0  0
    0.9519    0.5118    2.0050 C   0  0  0  0  0  0  0  0  0  0  0  0
   -1.6788    0.4425   -0.3907 C   0  0  0  0  0  0  0  0  0  0  0  0
   -2.9203   -0.3025    0.0933 C   0  0  0  0  0  0  0  0  0  0  0  0
   -1.4388    2.8802   -6.1805 C   0  0  0  0  0  0  0  0  0  0  0  0
   -1.6696    3.4874   -7.4076 C   0  0  0  0  0  0  0  0  0  0  0  0
   -2.4051    4.6454   -7.6841 N   0  0  0  0  0  0  0  0  0  0  0  0
   -1.8516    5.4732   -8.6764 C   0  0  0  0  0  0  0  0  0  0  0  0
   -2.6128    6.0237   -9.7056 C   0  0  0  0  0  0  0  0  0  0  0  0
   -2.0198    6.8282  -10.6572 C   0  0  0  0  0  0  0  0  0  0  0  0
   -0.6575    7.1016  -10.6292 C   0  0  0  0  0  0  0  0  0  0  0  0
   -0.0333    7.9962  -11.6563 C   0  0  0  0  0  0  0  0  0  0  0  0
    0.1015    6.5276   -9.6184 C   0  0  0  0  0  0  0  0  0  0  0  0
   -0.4803    5.7258   -8.6577 C   0  0  0  0  0  0  0  0  0  0  0  0
   -3.7994    4.6039   -7.5017 C   0  0  0  0  0  0  0  0  0  0  0  0
   -4.5211    5.7918   -7.4165 C   0  0  0  0  0  0  0  0  0  0  0  0
   -5.8933    5.7634   -7.2735 C   0  0  0  0  0  0  0  0  0  0  0  0
   -6.5864    4.5605   -7.2078 C   0  0  0  0  0  0  0  0  0  0  0  0
   -8.0785    4.5337   -7.0813 C   0  0  0  0  0  0  0  0  0  0  0  0
   -5.8592    3.3800   -7.2894 C   0  0  0  0  0  0  0  0  0  0  0  0
   -4.4850    3.3937   -7.4352 C   0  0  0  0  0  0  0  0  0  0  0  0
   -1.1479    2.7076   -8.4654 C   0  0  0  0  0  0  0  0  0  0  0  0
   -1.1983    2.8980  -10.1772 S   0  0  0  0  0  0  0  0  0  0  0  0
   -0.5622    1.2632  -10.3987 C   0  0  0  0  0  0  0  0  0  0  0  0
   -0.2083    0.6680   -9.1764 C   0  0  0  0  0  0  0  0  0  0  0  0
    0.3064   -0.5861   -9.0014 N   0  0  0  0  0  0  0  0  0  0  0  0
    1.2081   -1.1622   -9.9062 C   0  0  0  0  0  0  0  0  0  0  0  0
    2.1910   -0.3878  -10.5202 C   0  0  0  0  0  0  0  0  0  0  0  0
    3.0712   -0.9663  -11.4120 C   0  0  0  0  0  0  0  0  0  0  0  0
    3.0048   -2.3234  -11.7085 C   0  0  0  0  0  0  0  0  0  0  0  0
    3.9410   -2.9305  -12.7057 C   0  0  0  0  0  0  0  0  0  0  0  0
    2.0332   -3.0905  -11.0768 C   0  0  0  0  0  0  0  0  0  0  0  0
    1.1422   -2.5240  -10.1869 C   0  0  0  0  0  0  0  0  0  0  0  0
   -0.0886   -1.3197   -7.8614 C   0  0  0  0  0  0  0  0  0  0  0  0
    0.8581   -1.9839   -7.0912 C   0  0  0  0  0  0  0  0  0  0  0  0
    0.4647   -2.6666   -5.9558 C   0  0  0  0  0  0  0  0  0  0  0  0
   -0.8675   -2.6988   -5.5655 C   0  0  0  0  0  0  0  0  0  0  0  0
   -1.2982   -3.4197   -4.3249 C   0  0  0  0  0  0  0  0  0  0  0  0
   -1.8083   -2.0496   -6.3584 C   0  0  0  0  0  0  0  0  0  0  0  0
   -1.4324   -1.3693   -7.4982 C   0  0  0  0  0  0  0  0  0  0  0  0
   -0.5850    1.5006   -8.0956 C   0  0  0  0  0  0  0  0  0  0  0  0
   -0.5887    1.3419   -6.3766 S   0  0  0  0  0  0  0  0  0  0  0  0
   -0.5377    0.7047  -11.6881 C   0  0  0  0  0  0  0  0  0  0  0  0
   -1.3520    1.0401  -12.7364 C   0  0  0  0  0  0  0  0  0  0  0  0
   -0.9417    0.7379  -14.1257 C   0  0  0  0  0  0  0  0  0  0  0  0
   -0.0297    0.0195  -14.4784 O   0  0  0  0  0  0  0  0  0  0  0  0
   -1.8425    1.5399  -14.9814 C   0  0  0  0  0  0  0  0  0  0  0  0
   -1.7838    1.6907  -16.3649 C   0  0  0  0  0  0  0  0  0  0  0  0
   -2.7454    2.5279  -16.8793 C   0  0  0  0  0  0  0  0  0  0  0  0
   -3.6933    3.1781  -16.0788 C   0  0  0  0  0  0  0  0  0  0  0  0
   -3.7678    3.0354  -14.7135 C   0  0  0  0  0  0  0  0  0  0  0  0
   -2.8043    2.1809  -14.1731 C   0  0  0  0  0  0  0  0  0  0  0  0
   -2.6015    1.7573  -12.7894 C   0  0  0  0  0  0  0  0  0  0  0  0
   -3.5558    1.8012  -11.8000 C   0  0  0  0  0  0  0  0  0  0  0  0
   -3.4452    1.0940  -10.5878 C   0  0  0  0  0  0  0  0  0  0  0  0
   -3.4263    0.4808   -9.6153 N   0  0  0  0  0  0  0  0  0  0  0  0
   -4.7821    2.4827  -11.8995 C   0  0  0  0  0  0  0  0  0  0  0  0
   -5.7876    3.0388  -11.9047 N   0  0  0  0  0  0  0  0  0  0  0  0
   -4.3401    3.8609  -17.2585 C   0  0  0  0  0  0  0  0  0  0  0  0
   -5.6766    3.2657  -17.7496 C   0  0  0  0  0  0  0  0  0  0  0  0
   -5.8170    3.8024  -19.1556 C   0  0  0  0  0  0  0  0  0  0  0  0
   -4.9223    3.1833  -19.9150 C   0  0  0  0  0  0  0  0  0  0  0  0
   -4.1621    2.2175  -19.0348 C   0  0  0  0  0  0  0  0  0  0  0  0
   -5.2758    1.8174  -18.0586 C   0  0  0  0  0  0  0  0  0  0  0  0
   -3.2862    3.1319  -18.1523 C   0  0  0  0  0  0  0  0  0  0  0  0
    4.2538   -5.6866   15.5941 H   0  0  0  0  0  0  0  0  0  0  0  0
    9.4972   -6.9116   12.4170 H   0  0  0  0  0  0  0  0  0  0  0  0
    8.9663   -7.5382   17.4166 H   0  0  0  0  0  0  0  0  0  0  0  0
   12.0137   -8.7201   16.3842 H   0  0  0  0  0  0  0  0  0  0  0  0
   12.3567   -6.3565   17.5631 H   0  0  0  0  0  0  0  0  0  0  0  0
   14.7165   -7.3063   16.9069 H   0  0  0  0  0  0  0  0  0  0  0  0
   15.0348   -6.9944   14.2878 H   0  0  0  0  0  0  0  0  0  0  0  0
   12.8713   -5.8506   13.3317 H   0  0  0  0  0  0  0  0  0  0  0  0
   11.2814   -5.1894   15.3942 H   0  0  0  0  0  0  0  0  0  0  0  0
   12.9387   -4.6045   15.6657 H   0  0  0  0  0  0  0  0  0  0  0  0
   12.3247   -8.4134   13.8154 H   0  0  0  0  0  0  0  0  0  0  0  0
    4.8502   -5.8858   11.7310 H   0  0  0  0  0  0  0  0  0  0  0  0
    2.6287   -5.4706    7.5253 H   0  0  0  0  0  0  0  0  0  0  0  0
    3.7938   -6.9817    5.6603 H   0  0  0  0  0  0  0  0  0  0  0  0
    5.5604   -6.9351    5.5360 H   0  0  0  0  0  0  0  0  0  0  0  0
    5.4545   -4.5436    4.8559 H   0  0  0  0  0  0  0  0  0  0  0  0
    3.6968   -4.5659    5.0069 H   0  0  0  0  0  0  0  0  0  0  0  0
    4.4902   -5.5412    3.7628 H   0  0  0  0  0  0  0  0  0  0  0  0
   -1.6800   -2.9037   12.0734 H   0  0  0  0  0  0  0  0  0  0  0  0
   -3.3747   -0.3570   14.3460 H   0  0  0  0  0  0  0  0  0  0  0  0
   -3.6622   -1.4599   12.9900 H   0  0  0  0  0  0  0  0  0  0  0  0
   -4.8080   -2.2735   15.0388 H   0  0  0  0  0  0  0  0  0  0  0  0
   -3.5339   -3.4038   14.5664 H   0  0  0  0  0  0  0  0  0  0  0  0
   -3.2709   -2.2891   15.9079 H   0  0  0  0  0  0  0  0  0  0  0  0
   -0.6013   -1.4984   10.4197 H   0  0  0  0  0  0  0  0  0  0  0  0
    0.8322    1.1212    9.5750 H   0  0  0  0  0  0  0  0  0  0  0  0
    0.5149    1.9105   11.8928 H   0  0  0  0  0  0  0  0  0  0  0  0
   -1.7287    1.7903   12.9232 H   0  0  0  0  0  0  0  0  0  0  0  0
   -3.6208    0.9215   11.6487 H   0  0  0  0  0  0  0  0  0  0  0  0
   -4.0401    0.7289    8.4580 H   0  0  0  0  0  0  0  0  0  0  0  0
   -3.2348   -0.8346    8.4071 H   0  0  0  0  0  0  0  0  0  0  0  0
   -4.3598   -1.4268   10.6011 H   0  0  0  0  0  0  0  0  0  0  0  0
   -5.4681   -1.1744    9.2529 H   0  0  0  0  0  0  0  0  0  0  0  0
   -5.2900    0.0727   10.4783 H   0  0  0  0  0  0  0  0  0  0  0  0
   -5.4427    6.7358   -4.3249 H   0  0  0  0  0  0  0  0  0  0  0  0
   -4.5504    6.4026   -2.8504 H   0  0  0  0  0  0  0  0  0  0  0  0
   -6.1455    4.5870   -3.8557 H   0  0  0  0  0  0  0  0  0  0  0  0
   -4.5968    4.0470   -3.2350 H   0  0  0  0  0  0  0  0  0  0  0  0
   -4.8288    4.2449   -4.9718 H   0  0  0  0  0  0  0  0  0  0  0  0
   -4.1760    8.4565   -5.0022 H   0  0  0  0  0  0  0  0  0  0  0  0
   -2.2133    9.2965   -6.2002 H   0  0  0  0  0  0  0  0  0  0  0  0
   -0.2437    7.8272   -6.5216 H   0  0  0  0  0  0  0  0  0  0  0  0
   -0.2725    5.5521   -5.5669 H   0  0  0  0  0  0  0  0  0  0  0  0
   -0.8068   -0.7484    1.7533 H   0  0  0  0  0  0  0  0  0  0  0  0
   -0.0399   -0.8613    3.3291 H   0  0  0  0  0  0  0  0  0  0  0  0
    1.6159   -0.2289    1.5675 H   0  0  0  0  0  0  0  0  0  0  0  0
    1.4739    1.0053    2.8215 H   0  0  0  0  0  0  0  0  0  0  0  0
    0.7133    1.2603    1.2533 H   0  0  0  0  0  0  0  0  0  0  0  0
   -1.6519    0.4272   -1.4834 H   0  0  0  0  0  0  0  0  0  0  0  0
   -0.7626   -0.0365   -0.0425 H   0  0  0  0  0  0  0  0  0  0  0  0
   -2.8645   -1.3471   -0.2014 H   0  0  0  0  0  0  0  0  0  0  0  0
   -3.0173   -0.2460    1.1749 H   0  0  0  0  0  0  0  0  0  0  0  0
   -3.8115    0.1358   -0.3498 H   0  0  0  0  0  0  0  0  0  0  0  0
   -3.6670    5.8027   -9.7744 H   0  0  0  0  0  0  0  0  0  0  0  0
   -2.6284    7.2410  -11.4491 H   0  0  0  0  0  0  0  0  0  0  0  0
   -0.1812    9.0415  -11.3823 H   0  0  0  0  0  0  0  0  0  0  0  0
   -0.4882    7.8394  -12.6322 H   0  0  0  0  0  0  0  0  0  0  0  0
    1.0361    7.8143  -11.7323 H   0  0  0  0  0  0  0  0  0  0  0  0
    1.1664    6.7089   -9.5808 H   0  0  0  0  0  0  0  0  0  0  0  0
    0.1321    5.2799   -7.8885 H   0  0  0  0  0  0  0  0  0  0  0  0
   -3.9968    6.7330   -7.4699 H   0  0  0  0  0  0  0  0  0  0  0  0
   -6.4365    6.6958   -7.2149 H   0  0  0  0  0  0  0  0  0  0  0  0
   -8.5320    4.4139   -8.0656 H   0  0  0  0  0  0  0  0  0  0  0  0
   -8.4489    5.4599   -6.6481 H   0  0  0  0  0  0  0  0  0  0  0  0
   -8.3995    3.6992   -6.4617 H   0  0  0  0  0  0  0  0  0  0  0  0
   -6.3741    2.4311   -7.2516 H   0  0  0  0  0  0  0  0  0  0  0  0
   -3.9501    2.4592   -7.5216 H   0  0  0  0  0  0  0  0  0  0  0  0
    2.2573    0.6666  -10.2938 H   0  0  0  0  0  0  0  0  0  0  0  0
    3.8237   -0.3541  -11.8868 H   0  0  0  0  0  0  0  0  0  0  0  0
    4.0088   -4.0074  -12.5730 H   0  0  0  0  0  0  0  0  0  0  0  0
    4.9356   -2.4982  -12.6178 H   0  0  0  0  0  0  0  0  0  0  0  0
    3.5785   -2.7335  -13.7150 H   0  0  0  0  0  0  0  0  0  0  0  0
    1.9644   -4.1467  -11.2927 H   0  0  0  0  0  0  0  0  0  0  0  0
    0.3837   -3.1284   -9.7121 H   0  0  0  0  0  0  0  0  0  0  0  0
    1.8985   -1.9536   -7.3802 H   0  0  0  0  0  0  0  0  0  0  0  0
    1.2099   -3.1717   -5.3583 H   0  0  0  0  0  0  0  0  0  0  0  0
   -1.8957   -2.7628   -3.6947 H   0  0  0  0  0  0  0  0  0  0  0  0
   -1.9125   -4.2821   -4.5830 H   0  0  0  0  0  0  0  0  0  0  0  0
   -0.4391   -3.7664   -3.7562 H   0  0  0  0  0  0  0  0  0  0  0  0
   -2.8509   -2.0782   -6.0781 H   0  0  0  0  0  0  0  0  0  0  0  0
   -2.1705   -0.8732   -8.1109 H   0  0  0  0  0  0  0  0  0  0  0  0
    0.2269   -0.0311  -11.9128 H   0  0  0  0  0  0  0  0  0  0  0  0
   -1.0343    1.1782  -16.9476 H   0  0  0  0  0  0  0  0  0  0  0  0
   -4.4937    3.5461  -14.1019 H   0  0  0  0  0  0  0  0  0  0  0  0
   -4.3407    4.9492  -17.2372 H   0  0  0  0  0  0  0  0  0  0  0  0
   -6.5172    3.4208  -17.0789 H   0  0  0  0  0  0  0  0  0  0  0  0
   -6.4918    4.5913  -19.4324 H   0  0  0  0  0  0  0  0  0  0  0  0
   -4.7004    3.3517  -20.9526 H   0  0  0  0  0  0  0  0  0  0  0  0
   -3.6244    1.4176  -19.5369 H   0  0  0  0  0  0  0  0  0  0  0  0
   -6.0751    1.2650  -18.5501 H   0  0  0  0  0  0  0  0  0  0  0  0
   -4.9271    1.2595  -17.1917 H   0  0  0  0  0  0  0  0  0  0  0  0
   -2.5859    3.7345  -18.7282 H   0  0  0  0  0  0  0  0  0  0  0  0
  1  2  2  0  0  0  0
  2  3  1  0  0  0  0
  3  4  2  0  0  0  0
  3  5  1  0  0  0  0
  5  6  2  0  0  0  0
  6  7  1  0  0  0  0
  7  8  2  0  0  0  0
  8  9  1  0  0  0  0
  9 10  2  0  0  0  0
 10 11  1  0  0  0  0
 11 12  2  0  0  0  0
 12 13  1  0  0  0  0
 13 14  3  0  0  0  0
 12 15  1  0  0  0  0
 15 16  3  0  0  0  0
  8 17  1  0  0  0  0
 17 18  1  0  0  0  0
 18 19  1  0  0  0  0
 19 20  2  0  0  0  0
 20 21  1  0  0  0  0
 21 22  1  0  0  0  0
 21 23  1  0  0  0  0
  1 24  1  0  0  0  0
 24 25  2  0  0  0  0
 25 26  1  0  0  0  0
 26 27  2  0  0  0  0
 27 28  1  0  0  0  0
 28 29  2  0  0  0  0
 29 30  1  0  0  0  0
 30 31  1  0  0  0  0
 31 32  1  0  0  0  0
 30 33  2  0  0  0  0
 33 34  1  0  0  0  0
 33 35  1  0  0  0  0
 27 36  1  0  0  0  0
 36 37  2  0  0  0  0
 37 38  1  0  0  0  0
 38 39  1  0  0  0  0
 39 40  2  0  0  0  0
 40 41  1  0  0  0  0
 41 42  1  0  0  0  0
 42 43  1  0  0  0  0
 41 44  2  0  0  0  0
 44 45  1  0  0  0  0
 44 46  1  0  0  0  0
 38 47  2  0  0  0  0
 47 48  1  0  0  0  0
 37 49  1  0  0  0  0
 49 50  2  0  0  0  0
 50 51  1  0  0  0  0
 50 52  1  0  0  0  0
 52 53  2  0  0  0  0
 53 54  1  0  0  0  0
 54 55  2  0  0  0  0
 55 56  1  0  0  0  0
 56 57  2  0  0  0  0
 57 58  1  0  0  0  0
 58 59  2  0  0  0  0
 59 60  1  0  0  0  0
 60 61  1  0  0  0  0
 53 62  1  0  0  0  0
 62 63  1  0  0  0  0
 63 64  1  0  0  0  0
 64 65  1  0  0  0  0
 65 66  1  0  0  0  0
 66 67  1  0  0  0  0
 67 68  2  0  0  0  0
 68 69  1  0  0  0  0
 69 70  1  0  0  0  0
 67 71  1  0  0  0  0
 71 72  1  0  0  0  0
 72 73  1  0  0  0  0
 73 74  1  0  0  0  0
 74 75  1  0  0  0  0
 75 76  1  0  0  0  0
 76 77  2  0  0  0  0
 77 78  1  0  0  0  0
 78 79  1  0  0  0  0
 77 80  1  0  0  0  0
 80 81  2  0  0  0  0
 81 82  1  0  0  0  0
 82 83  2  0  0  0  0
 75 84  2  0  0  0  0
 84 85  1  0  0  0  0
 85 86  1  0  0  0  0
 86 87  1  0  0  0  0
 87 88  1  0  0  0  0
 88 89  1  0  0  0  0
 89 90  1  0  0  0  0
 90 91  1  0  0  0  0
 91 92  1  0  0  0  0
 92 93  1  0  0  0  0
 93 94  1  0  0  0  0
 91 95  1  0  0  0  0
 95 96  1  0  0  0  0
 88 97  1  0  0  0  0
 97 98  1  0  0  0  0
 84 99  1  0  0  0  0
 99100  2  0  0  0  0
100101  1  0  0  0  0
101102  1  0  0  0  0
102103  2  0  0  0  0
103104  1  0  0  0  0
104105  2  0  0  0  0
105106  1  0  0  0  0
105107  1  0  0  0  0
107108  2  0  0  0  0
101109  1  0  0  0  0
109110  2  0  0  0  0
110111  1  0  0  0  0
111112  2  0  0  0  0
112113  1  0  0  0  0
112114  1  0  0  0  0
114115  2  0  0  0  0
100116  1  0  0  0  0
116117  1  0  0  0  0
117118  1  0  0  0  0
118119  2  0  0  0  0
119120  1  0  0  0  0
120121  1  0  0  0  0
121122  2  0  0  0  0
122123  1  0  0  0  0
123124  2  0  0  0  0
124125  1  0  0  0  0
124126  1  0  0  0  0
126127  2  0  0  0  0
120128  1  0  0  0  0
128129  2  0  0  0  0
129130  1  0  0  0  0
130131  2  0  0  0  0
131132  1  0  0  0  0
131133  1  0  0  0  0
133134  2  0  0  0  0
119135  1  0  0  0  0
135136  1  0  0  0  0
118137  1  0  0  0  0
137138  2  0  0  0  0
138139  1  0  0  0  0
139140  2  0  0  0  0
139141  1  0  0  0  0
141142  2  0  0  0  0
142143  1  0  0  0  0
143144  2  0  0  0  0
144145  1  0  0  0  0
145146  2  0  0  0  0
146147  1  0  0  0  0
147148  2  0  0  0  0
148149  1  0  0  0  0
149150  3  0  0  0  0
148151  1  0  0  0  0
151152  3  0  0  0  0
144153  1  0  0  0  0
153154  1  0  0  0  0
154155  1  0  0  0  0
155156  2  0  0  0  0
156157  1  0  0  0  0
157158  1  0  0  0  0
157159  1  0  0  0  0
 11  2  1  0  0  0  0
 23 17  1  0  0  0  0
 48 24  1  0  0  0  0
 94 52  1  0  0  0  0
136 99  1  0  0  0  0
147138  1  0  0  0  0
159153  1  0  0  0  0
 10  5  1  0  0  0  0
 22 18  1  0  0  0  0
 47 26  1  0  0  0  0
 59 54  1  0  0  0  0
 93 62  2  0  0  0  0
108102  1  0  0  0  0
115109  1  0  0  0  0
135116  2  0  0  0  0
146141  1  0  0  0  0
158154  1  0  0  0  0
 23  7  1  0  0  0  0
 35 28  1  0  0  0  0
 51 36  1  0  0  0  0
 92 64  2  0  0  0  0
127121  1  0  0  0  0
134128  1  0  0  0  0
159143  1  0  0  0  0
 45 39  1  0  0  0  0
 90 65  2  0  0  0  0
 70 66  2  0  0  0  0
 89 71  2  0  0  0  0
 87 72  2  0  0  0  0
 86 74  2  0  0  0  0
 83 76  1  0  0  0  0
  1160  1  0  0  0  0
  6161  1  0  0  0  0
  9162  1  0  0  0  0
 17163  1  0  0  0  0
 18164  1  0  0  0  0
 19165  1  0  0  0  0
 20166  1  0  0  0  0
 21167  1  0  0  0  0
 22168  1  0  0  0  0
 22169  1  0  0  0  0
 23170  1  0  0  0  0
 25171  1  0  0  0  0
 29172  1  0  0  0  0
 31173  1  0  0  0  0
 31174  1  0  0  0  0
 32175  1  0  0  0  0
 32176  1  0  0  0  0
 32177  1  0  0  0  0
 40178  1  0  0  0  0
 42179  1  0  0  0  0
 42180  1  0  0  0  0
 43181  1  0  0  0  0
 43182  1  0  0  0  0
 43183  1  0  0  0  0
 49184  1  0  0  0  0
 55185  1  0  0  0  0
 56186  1  0  0  0  0
 57187  1  0  0  0  0
 58188  1  0  0  0  0
 60189  1  0  0  0  0
 60190  1  0  0  0  0
 61191  1  0  0  0  0
 61192  1  0  0  0  0
 61193  1  0  0  0  0
 78194  1  0  0  0  0
 78195  1  0  0  0  0
 79196  1  0  0  0  0
 79197  1  0  0  0  0
 79198  1  0  0  0  0
 80199  1  0  0  0  0
 81200  1  0  0  0  0
 82201  1  0  0  0  0
 83202  1  0  0  0  0
 95203  1  0  0  0  0
 95204  1  0  0  0  0
 96205  1  0  0  0  0
 96206  1  0  0  0  0
 96207  1  0  0  0  0
 97208  1  0  0  0  0
 97209  1  0  0  0  0
 98210  1  0  0  0  0
 98211  1  0  0  0  0
 98212  1  0  0  0  0
103213  1  0  0  0  0
104214  1  0  0  0  0
106215  1  0  0  0  0
106216  1  0  0  0  0
106217  1  0  0  0  0
107218  1  0  0  0  0
108219  1  0  0  0  0
110220  1  0  0  0  0
111221  1  0  0  0  0
113222  1  0  0  0  0
113223  1  0  0  0  0
113224  1  0  0  0  0
114225  1  0  0  0  0
115226  1  0  0  0  0
122227  1  0  0  0  0
123228  1  0  0  0  0
125229  1  0  0  0  0
125230  1  0  0  0  0
125231  1  0  0  0  0
126232  1  0  0  0  0
127233  1  0  0  0  0
129234  1  0  0  0  0
130235  1  0  0  0  0
132236  1  0  0  0  0
132237  1  0  0  0  0
132238  1  0  0  0  0
133239  1  0  0  0  0
134240  1  0  0  0  0
137241  1  0  0  0  0
142242  1  0  0  0  0
145243  1  0  0  0  0
153244  1  0  0  0  0
154245  1  0  0  0  0
155246  1  0  0  0  0
156247  1  0  0  0  0
157248  1  0  0  0  0
158249  1  0  0  0  0
158250  1  0  0  0  0
159251  1  0  0  0  0
M  END
