228

C         -9.64890       -1.97770        0.31750
C         -8.51640       -2.73970        0.11990
C         -7.37000       -2.37150       -0.70740
O         -7.30470       -1.47920       -1.54110
C         -6.27760       -3.28730       -0.34620
C         -4.96600       -3.25300       -0.81430
C         -4.15160       -4.21520       -0.26770
C         -4.61420       -5.14940        0.66830
C         -5.91100       -5.20320        1.12600
C         -6.75450       -4.22660        0.58860
C         -8.17370       -3.95370        0.83110
C         -9.02070       -4.75060        1.55790
C         -8.62560       -5.92550        2.22950
N         -8.37250       -6.88710        2.80430
C        -10.40980       -4.55110        1.69850
N        -11.54770       -4.48700        1.84240
C         -3.26190       -5.80740        0.79640
C         -2.43950       -5.46090        2.05550
C         -1.02540       -5.84450        1.68270
C         -0.58780       -4.96050        0.79510
C         -1.69850       -3.96440        0.55210
C         -2.33450       -3.93410        1.94780
C         -2.74720       -4.76570       -0.24890
C         -9.96800       -0.72630       -0.21220
S         -9.06300        0.10880       -1.44980
C        -10.00810        1.57330       -1.32270
C        -10.99750        1.40620       -0.36090
S        -12.21750        2.44610        0.29890
C        -12.74660        1.16910        1.35760
C        -13.86860        1.52190        2.23090
O        -14.36620        2.62380        2.22430
O        -14.27170        0.51130        3.00250
C        -15.35000        0.77890        3.90020
C        -14.85780        1.45040        5.17390
C        -12.01950        0.01120        1.22700
C        -11.00180        0.12160        0.24180
Cl       -12.33340       -1.39190        2.15270
C         -9.47610        2.68450       -2.02450
C         -9.56790        4.05890       -1.80810
C        -10.67650        4.76100       -1.16450
C        -11.96920        4.59100       -1.65630
C        -13.00870        5.32950       -1.12210
C        -12.77130        6.22320       -0.09390
C        -11.48780        6.40220        0.40850
C        -11.21620        7.41310        1.48420
C        -10.82230        8.75370        0.86030
C        -10.44470        5.67530       -0.14350
C         -8.44900        4.73040       -2.33930
S         -7.79390        6.34620       -2.12230
C         -6.30650        5.83900       -2.86740
C         -4.95990        6.24440       -2.98560
C         -4.25060        7.42560       -2.66570
C         -2.80930        7.43260       -2.75360
N         -2.29530        8.60950       -2.43800
S         -3.50140        9.62140       -2.06350
N         -4.73490        8.59460       -2.28100
C         -2.12260        6.22570       -3.03090
C         -0.79070        5.81590       -2.83050
S          0.72240        6.45090       -2.25850
C          1.36600        4.82270       -2.20310
C          2.57400        4.28360       -1.72650
C          3.68100        5.13300       -1.26910
C          4.87650        5.16300       -1.98070
C          5.88690        6.01850       -1.58820
C          5.71360        6.84250       -0.49070
C          4.52390        6.83030        0.22500
C          4.30410        7.77460        1.37110
C          3.64380        9.06170        0.87220
C          3.50940        5.97520       -0.17910
C          2.56650        2.89700       -1.77470
S          1.09940        2.26950       -2.51270
C          0.46070        3.86310       -2.65580
C         -0.76470        4.42900       -3.01720
N         -1.99960        3.96680       -3.37920
C         -2.85170        5.05690       -3.37810
C         -4.25520        5.12110       -3.49930
N         -5.14840        4.11410       -3.80310
C         -6.37500        4.52820       -3.35570
C         -7.57590        3.89880       -3.04430
S         -8.12410        2.26880       -3.08470
C         -5.02510        3.12550       -4.85310
C         -6.01800        3.38860       -5.98390
C         -2.31700        2.56690       -3.18240
C         -3.06190        2.33680       -1.87150
C          3.51340        1.97610       -1.25440
C          3.41660        0.58810       -1.21160
N          2.35650       -0.19600       -1.68490
C          2.76060       -1.32540       -2.42820
C          2.32160       -2.60930       -2.11720
C          2.77730       -3.68910       -2.84380
C          3.68460       -3.52660       -3.88510
C          4.19360       -4.71740       -4.63790
C          4.12020       -2.24330       -4.18550
C          3.66490       -1.15250       -3.47070
C          1.11260       -0.18990       -1.04970
C          0.00210       -0.72080       -1.70730
C         -1.23570       -0.72660       -1.09770
C         -1.41550       -0.19370        0.17350
C         -2.75330       -0.21530        0.84950
C         -0.31130        0.36060        0.81030
C          0.93510        0.36420        0.21680
C          4.56200        0.00430       -0.63090
S          4.98290       -1.62860       -0.26360
C          6.47670       -1.07300        0.49860
C          6.57000        0.34440        0.51570
N          7.54920        1.07060        1.14150
C          7.95820        2.29630        0.58420
C          8.18440        3.40360        1.39760
C          8.65310        4.57900        0.84960
C          8.90540        4.68680       -0.51400
C          9.48450        5.94810       -1.07710
C          8.64120        3.58900       -1.32180
C          8.17450        2.40460       -0.78590
C          8.09450        0.67210        2.37690
C          9.43750        0.90840        2.65970
C          9.96880        0.50420        3.86810
C          9.18920       -0.14880        4.81570
C          9.79570       -0.62090        6.10090
C          7.84490       -0.36000        4.53210
C          7.29560        0.05170        3.33450
C          5.49430        0.92510       -0.17270
S          4.99530        2.55710       -0.49920
C          7.49590       -1.90950        0.94660
C          7.54960       -3.28280        1.04420
C          6.45540       -4.21730        0.77900
O          5.35260       -3.97040        0.31810
C          6.93550       -5.54670        1.19880
C          6.23290       -6.74710        1.14730
C          6.93770       -7.82810        1.62050
C          8.24600       -7.72130        2.10770
C          8.95330       -6.54260        2.15600
C          8.25390       -5.43060        1.68150
C          8.67100       -4.03300        1.55570
C          9.92540       -3.55210        1.84900
C         10.95730       -4.31420        2.43030
N         11.83820       -4.86170        2.92510
C         10.38450       -2.24820        1.58450
N         10.85850       -1.22230        1.37000
C          8.33170       -9.19240        2.42950
C          8.17760       -9.61800        3.91070
C          7.34350       -8.55360        4.57910
C          6.10560       -8.65760        4.11440
C          6.08080       -9.79400        3.12250
C          7.12560      -10.72770        3.75390
C          6.87430       -9.31250        1.88270
H        -10.35970       -2.34190        1.04720
H         -4.66000       -2.52130       -1.54610
H         -6.24910       -5.93290        1.84260
H         -3.22400       -6.86480        0.54150
H         -2.83050       -5.87340        2.98170
H         -0.52570       -6.72130        2.05080
H          0.35280       -4.94860        0.27640
H         -1.41110       -3.01390        0.11140
H         -1.66350       -3.51340        2.69510
H         -3.29400       -3.42140        1.98730
H         -2.36720       -5.12930       -1.20190
H        -15.78630       -0.19930        4.11220
H        -16.08240        1.41590        3.39370
H        -14.09380        0.83970        5.64940
H        -15.68890        1.57940        5.86120
H        -14.43790        2.42590        4.94070
H        -12.14450        3.89790       -2.46550
H        -14.00920        5.20270       -1.50690
H        -13.59020        6.78910        0.32510
H        -12.10700        7.54690        2.10030
H        -10.40490        7.06290        2.12520
H        -11.62520        9.12630        0.22820
H         -9.93080        8.63830        0.24790
H        -10.62030        9.48930        1.63530
H         -9.44090        5.80630        0.23390
H          5.00220        4.52530       -2.84330
H          6.80880        6.04720       -2.14700
H          6.50620        7.51190       -0.18850
H          5.25860        8.01600        1.84290
H          3.66110        7.30680        2.11910
H          2.69010        8.83820        0.39960
H          4.28000        9.55280        0.13930
H          3.47190        9.74720        1.69870
H          2.57410        5.95730        0.36210
H         -5.20180        2.12730       -4.43800
H         -4.01610        3.19330       -5.26050
H         -5.83460        2.68890       -6.79460
H         -7.04070        3.25770       -5.64250
H         -5.90050        4.40150       -6.36310
H         -1.36480        2.03200       -3.15250
H         -2.88880        2.17120       -4.01930
H         -2.45730        2.68120       -1.03560
H         -3.25310        1.27630       -1.74460
H         -4.00990        2.86800       -1.86040
H          1.64110       -2.75680       -1.29230
H          2.43880       -4.68230       -2.58680
H          3.37310       -5.37450       -4.92100
H          4.87660       -5.28900       -4.00920
H          4.72680       -4.41410       -5.53540
H          4.82700       -2.09260       -4.98890
H          4.01270       -0.15800       -3.71110
H          0.12070       -1.12760       -2.70020
H         -2.07900       -1.15210       -1.62440
H         -3.48970       -0.74270        0.24770
H         -3.11140        0.79890        1.02400
H         -2.67990       -0.71130        1.81640
H         -0.42830        0.78670        1.79660
H          1.78030        0.78880        0.73840
H          7.99910        3.33120        2.45900
H          8.83400        5.42840        1.49200
H          8.94600        6.81910       -0.70930
H         10.52520        6.04810       -0.76770
H          9.45360        5.94470       -2.16380
H          8.82260        3.65070       -2.38510
H          8.00090        1.54920       -1.42230
H         10.06210        1.39160        1.92540
H         11.01470        0.68010        4.06920
H         10.47590       -1.45100        5.90920
H         10.37040        0.17580        6.56980
H          9.02950       -0.95740        6.79480
H          7.21450       -0.84850        5.26120
H          6.24760       -0.11440        3.13220
H          8.38210       -1.38220        1.27550
H          5.22560       -6.78300        0.76230
H          9.96140       -6.47990        2.53020
H          9.11560       -9.74830        1.91880
H          9.11000       -9.87740        4.40490
H          7.74000       -7.81970        5.25610
H          5.26120       -8.02770        4.32510
H          5.10380      -10.21490        2.89850
H          7.44150      -11.53470        3.09420
H          6.80100      -11.13890        4.70870
H          6.70830       -9.94490        1.01240
