
  xtb     02092207373D
 energy: -396.088275807978 gnorm: 0.000739103206 xtb: 6.4.1 (unknown)
230256  0     0  0            999 V2000
   -1.0235    0.1049    8.8289 C   0  0  0  0  0  0  0  0  0  0  0  0
   -0.2605   -0.8706    8.2740 C   0  0  0  0  0  0  0  0  0  0  0  0
    0.2027   -0.8601    6.8516 C   0  0  0  0  0  0  0  0  0  0  0  0
    0.2150    0.0873    6.0968 O   0  0  0  0  0  0  0  0  0  0  0  0
    0.7764   -2.1888    6.6060 C   0  0  0  0  0  0  0  0  0  0  0  0
    1.2108   -2.6927    5.3813 C   0  0  0  0  0  0  0  0  0  0  0  0
    1.6997   -3.9737    5.4543 C   0  0  0  0  0  0  0  0  0  0  0  0
    1.7508   -4.7031    6.6514 C   0  0  0  0  0  0  0  0  0  0  0  0
    1.3281   -4.2150    7.8651 C   0  0  0  0  0  0  0  0  0  0  0  0
    0.8308   -2.9064    7.8198 C   0  0  0  0  0  0  0  0  0  0  0  0
    0.2899   -2.0710    8.8889 C   0  0  0  0  0  0  0  0  0  0  0  0
    0.2957   -2.3709   10.2241 C   0  0  0  0  0  0  0  0  0  0  0  0
   -0.2190   -1.5339   11.2366 C   0  0  0  0  0  0  0  0  0  0  0  0
   -0.6146   -0.9009   12.1089 N   0  0  0  0  0  0  0  0  0  0  0  0
    0.8530   -3.5433   10.7771 C   0  0  0  0  0  0  0  0  0  0  0  0
    1.2905   -4.4703   11.2936 N   0  0  0  0  0  0  0  0  0  0  0  0
    2.3589   -5.9112    5.9783 C   0  0  0  0  0  0  0  0  0  0  0  0
    3.8730   -6.1204    6.1893 C   0  0  0  0  0  0  0  0  0  0  0  0
    4.2817   -7.0375    5.0594 C   0  0  0  0  0  0  0  0  0  0  0  0
    4.2438   -6.3336    3.9350 C   0  0  0  0  0  0  0  0  0  0  0  0
    3.7979   -4.9331    4.2844 C   0  0  0  0  0  0  0  0  0  0  0  0
    4.4433   -4.7937    5.6694 C   0  0  0  0  0  0  0  0  0  0  0  0
    2.3063   -5.0930    4.6492 C   0  0  0  0  0  0  0  0  0  0  0  0
   -1.7111    1.0612    8.0072 C   0  0  0  0  0  0  0  0  0  0  0  0
   -1.8089    2.4187    8.1269 C   0  0  0  0  0  0  0  0  0  0  0  0
   -2.3940    3.0421    6.9921 C   0  0  0  0  0  0  0  0  0  0  0  0
   -2.5274    4.4145    6.6948 C   0  0  0  0  0  0  0  0  0  0  0  0
   -2.0198    5.4589    7.5942 C   0  0  0  0  0  0  0  0  0  0  0  0
   -0.7380    5.3716    8.1330 C   0  0  0  0  0  0  0  0  0  0  0  0
   -0.2692    6.3687    8.9696 C   0  0  0  0  0  0  0  0  0  0  0  0
   -1.0519    7.4709    9.2527 C   0  0  0  0  0  0  0  0  0  0  0  0
   -2.3210    7.5807    8.6931 C   0  0  0  0  0  0  0  0  0  0  0  0
   -3.2612    9.0211    9.1117 S   0  0  0  0  0  0  0  0  0  0  0  0
   -4.3229    9.2964    7.6496 C   0  0  0  0  0  0  0  0  0  0  0  0
   -3.5132    9.6412    6.4159 C   0  0  0  0  0  0  0  0  0  0  0  0
   -2.8079    6.5693    7.8812 C   0  0  0  0  0  0  0  0  0  0  0  0
   -3.0875    4.7347    5.4654 C   0  0  0  0  0  0  0  0  0  0  0  0
   -3.4552    3.7591    4.5050 C   0  0  0  0  0  0  0  0  0  0  0  0
   -3.2979    2.3965    4.7817 C   0  0  0  0  0  0  0  0  0  0  0  0
   -3.4667    1.3519    3.7606 C   0  0  0  0  0  0  0  0  0  0  0  0
   -4.6337    1.1980    3.0172 C   0  0  0  0  0  0  0  0  0  0  0  0
   -4.7144    0.1929    2.0702 C   0  0  0  0  0  0  0  0  0  0  0  0
   -3.6545   -0.6706    1.8490 C   0  0  0  0  0  0  0  0  0  0  0  0
   -2.4836   -0.5139    2.5793 C   0  0  0  0  0  0  0  0  0  0  0  0
   -1.0608   -1.5537    2.4603 S   0  0  0  0  0  0  0  0  0  0  0  0
   -1.2199   -2.4056    0.8553 C   0  0  0  0  0  0  0  0  0  0  0  0
   -1.0783   -1.4585   -0.3204 C   0  0  0  0  0  0  0  0  0  0  0  0
   -2.3945    0.5010    3.5234 C   0  0  0  0  0  0  0  0  0  0  0  0
   -2.8028    2.0794    6.0341 C   0  0  0  0  0  0  0  0  0  0  0  0
   -2.5136    0.4605    6.5732 S   0  0  0  0  0  0  0  0  0  0  0  0
   -3.8111    4.3358    3.2665 C   0  0  0  0  0  0  0  0  0  0  0  0
   -3.7170    5.6974    3.2340 C   0  0  0  0  0  0  0  0  0  0  0  0
   -3.2445    6.3489    4.7912 S   0  0  0  0  0  0  0  0  0  0  0  0
   -3.8709    6.4528    2.0315 C   0  0  0  0  0  0  0  0  0  0  0  0
   -3.2975    7.6317    1.6026 C   0  0  0  0  0  0  0  0  0  0  0  0
   -2.5216    8.5710    2.4219 C   0  0  0  0  0  0  0  0  0  0  0  0
   -2.9207    9.9011    2.4910 C   0  0  0  0  0  0  0  0  0  0  0  0
   -2.1836   10.8018    3.2362 C   0  0  0  0  0  0  0  0  0  0  0  0
   -1.0444   10.3865    3.9019 C   0  0  0  0  0  0  0  0  0  0  0  0
   -0.6203    9.0661    3.8243 C   0  0  0  0  0  0  0  0  0  0  0  0
    0.6024    8.6082    4.5650 C   0  0  0  0  0  0  0  0  0  0  0  0
    0.2279    8.1520    5.9759 C   0  0  0  0  0  0  0  0  0  0  0  0
   -1.3688    8.1649    3.0822 C   0  0  0  0  0  0  0  0  0  0  0  0
   -3.4554    7.8000    0.2082 C   0  0  0  0  0  0  0  0  0  0  0  0
   -2.6247    8.8383   -0.9298 S   0  0  0  0  0  0  0  0  0  0  0  0
   -3.1386    7.8000   -2.2222 C   0  0  0  0  0  0  0  0  0  0  0  0
   -2.7664    7.5099   -3.5543 C   0  0  0  0  0  0  0  0  0  0  0  0
   -1.8694    8.1088   -4.4677 C   0  0  0  0  0  0  0  0  0  0  0  0
   -1.4789    7.3824   -5.6513 C   0  0  0  0  0  0  0  0  0  0  0  0
   -0.6275    8.0642   -6.3995 N   0  0  0  0  0  0  0  0  0  0  0  0
   -0.3417    9.4913   -5.6908 S   0  0  0  0  0  0  0  0  0  0  0  0
   -1.2842    9.2928   -4.3911 N   0  0  0  0  0  0  0  0  0  0  0  0
   -1.9193    6.0482   -5.8172 C   0  0  0  0  0  0  0  0  0  0  0  0
   -1.4044    4.9703   -6.5622 C   0  0  0  0  0  0  0  0  0  0  0  0
   -0.0696    4.6158   -7.6160 S   0  0  0  0  0  0  0  0  0  0  0  0
   -0.3155    2.9013   -7.3340 C   0  0  0  0  0  0  0  0  0  0  0  0
    0.4575    1.7559   -7.6120 C   0  0  0  0  0  0  0  0  0  0  0  0
    1.6944    1.7626   -8.3945 C   0  0  0  0  0  0  0  0  0  0  0  0
    2.6772    2.7176   -8.1527 C   0  0  0  0  0  0  0  0  0  0  0  0
    3.8610    2.6808   -8.8663 C   0  0  0  0  0  0  0  0  0  0  0  0
    4.0730    1.7034   -9.8220 C   0  0  0  0  0  0  0  0  0  0  0  0
    3.0918    0.7573  -10.0952 C   0  0  0  0  0  0  0  0  0  0  0  0
    3.3327   -0.3341  -11.0972 C   0  0  0  0  0  0  0  0  0  0  0  0
    3.9514   -1.5537  -10.4105 C   0  0  0  0  0  0  0  0  0  0  0  0
    1.9064    0.7999   -9.3783 C   0  0  0  0  0  0  0  0  0  0  0  0
   -0.0760    0.6297   -6.9957 C   0  0  0  0  0  0  0  0  0  0  0  0
   -1.5931    0.9716   -6.1750 S   0  0  0  0  0  0  0  0  0  0  0  0
   -1.4398    2.6469   -6.5447 C   0  0  0  0  0  0  0  0  0  0  0  0
   -2.0578    3.8202   -6.1066 C   0  0  0  0  0  0  0  0  0  0  0  0
   -2.9983    4.1434   -5.1677 N   0  0  0  0  0  0  0  0  0  0  0  0
   -2.8945    5.5010   -4.9371 C   0  0  0  0  0  0  0  0  0  0  0  0
   -3.3996    6.2859   -3.8782 C   0  0  0  0  0  0  0  0  0  0  0  0
   -4.2441    5.8991   -2.8383 N   0  0  0  0  0  0  0  0  0  0  0  0
   -4.0060    6.7859   -1.8057 C   0  0  0  0  0  0  0  0  0  0  0  0
   -4.1731    6.7792   -0.4164 C   0  0  0  0  0  0  0  0  0  0  0  0
   -4.7271    5.6199    0.7350 S   0  0  0  0  0  0  0  0  0  0  0  0
   -5.5838    5.3830   -3.0784 C   0  0  0  0  0  0  0  0  0  0  0  0
   -6.0195    4.3172   -2.0796 C   0  0  0  0  0  0  0  0  0  0  0  0
   -3.5365    3.1054   -4.3178 C   0  0  0  0  0  0  0  0  0  0  0  0
   -2.6899    2.9157   -3.0613 C   0  0  0  0  0  0  0  0  0  0  0  0
    0.5357   -0.6172   -6.6823 C   0  0  0  0  0  0  0  0  0  0  0  0
    1.8360   -1.0137   -6.8417 C   0  0  0  0  0  0  0  0  0  0  0  0
    2.1709   -2.1820   -6.1209 C   0  0  0  0  0  0  0  0  0  0  0  0
    3.4417   -2.7668   -5.9727 C   0  0  0  0  0  0  0  0  0  0  0  0
    4.6274   -2.2126   -6.6409 C   0  0  0  0  0  0  0  0  0  0  0  0
    4.9265   -0.8553   -6.5636 C   0  0  0  0  0  0  0  0  0  0  0  0
    6.0395   -0.3543   -7.2158 C   0  0  0  0  0  0  0  0  0  0  0  0
    6.8786   -1.1972   -7.9176 C   0  0  0  0  0  0  0  0  0  0  0  0
    6.6049   -2.5615   -7.9686 C   0  0  0  0  0  0  0  0  0  0  0  0
    7.7288   -3.5859   -8.8651 S   0  0  0  0  0  0  0  0  0  0  0  0
    7.5027   -5.2240   -8.0699 C   0  0  0  0  0  0  0  0  0  0  0  0
    8.7431   -6.0656   -8.3000 C   0  0  0  0  0  0  0  0  0  0  0  0
    5.4706   -3.0624   -7.3492 C   0  0  0  0  0  0  0  0  0  0  0  0
    3.5269   -3.8562   -5.1214 C   0  0  0  0  0  0  0  0  0  0  0  0
    2.4154   -4.3637   -4.3956 C   0  0  0  0  0  0  0  0  0  0  0  0
    1.1376   -3.7938   -4.5631 C   0  0  0  0  0  0  0  0  0  0  0  0
   -0.0269   -4.2621   -3.8009 C   0  0  0  0  0  0  0  0  0  0  0  0
    0.0308   -4.4165   -2.4194 C   0  0  0  0  0  0  0  0  0  0  0  0
   -1.0798   -4.8731   -1.7295 C   0  0  0  0  0  0  0  0  0  0  0  0
   -2.2557   -5.1445   -2.3978 C   0  0  0  0  0  0  0  0  0  0  0  0
   -2.3340   -4.9573   -3.7773 C   0  0  0  0  0  0  0  0  0  0  0  0
   -3.9025   -5.2839   -4.5157 S   0  0  0  0  0  0  0  0  0  0  0  0
   -3.7305   -4.7673   -6.2597 C   0  0  0  0  0  0  0  0  0  0  0  0
   -3.1141   -5.8469   -7.1303 C   0  0  0  0  0  0  0  0  0  0  0  0
   -1.2150   -4.5321   -4.4744 C   0  0  0  0  0  0  0  0  0  0  0  0
    1.0532   -2.7250   -5.4331 C   0  0  0  0  0  0  0  0  0  0  0  0
   -0.3763   -1.7669   -5.7123 S   0  0  0  0  0  0  0  0  0  0  0  0
    2.7913   -5.3753   -3.4940 C   0  0  0  0  0  0  0  0  0  0  0  0
    4.1406   -5.6345   -3.4803 C   0  0  0  0  0  0  0  0  0  0  0  0
    4.9927   -4.6961   -4.6932 S   0  0  0  0  0  0  0  0  0  0  0  0
    4.8400   -6.5028   -2.6100 C   0  0  0  0  0  0  0  0  0  0  0  0
    4.4409   -6.8582   -1.3564 C   0  0  0  0  0  0  0  0  0  0  0  0
    5.0681   -8.0015   -0.6515 C   0  0  0  0  0  0  0  0  0  0  0  0
    6.0577   -8.6052   -0.9868 O   0  0  0  0  0  0  0  0  0  0  0  0
    4.1858   -8.2713    0.5133 C   0  0  0  0  0  0  0  0  0  0  0  0
    4.2560   -9.2913    1.4471 C   0  0  0  0  0  0  0  0  0  0  0  0
    5.5442  -10.4091    1.4467 Cl  0  0  0  0  0  0  0  0  0  0  0  0
    3.2397   -9.3795    2.4111 C   0  0  0  0  0  0  0  0  0  0  0  0
    3.3184  -10.5816    3.6223 Cl  0  0  0  0  0  0  0  0  0  0  0  0
    2.1511   -8.5098    2.3676 C   0  0  0  0  0  0  0  0  0  0  0  0
    0.8895   -8.6830    3.5088 Cl  0  0  0  0  0  0  0  0  0  0  0  0
    2.0761   -7.4920    1.4053 C   0  0  0  0  0  0  0  0  0  0  0  0
    0.6297   -6.5794    1.2828 Cl  0  0  0  0  0  0  0  0  0  0  0  0
    3.1380   -7.3272    0.5280 C   0  0  0  0  0  0  0  0  0  0  0  0
    3.4307   -6.3046   -0.4747 C   0  0  0  0  0  0  0  0  0  0  0  0
    3.1193   -4.9763   -0.3514 C   0  0  0  0  0  0  0  0  0  0  0  0
    3.6168   -3.9575   -1.1954 C   0  0  0  0  0  0  0  0  0  0  0  0
    3.9913   -3.0523   -1.7934 N   0  0  0  0  0  0  0  0  0  0  0  0
    2.4220   -4.3920    0.7264 C   0  0  0  0  0  0  0  0  0  0  0  0
    1.9122   -3.8116    1.5756 N   0  0  0  0  0  0  0  0  0  0  0  0
   -1.1597    0.1722    9.9005 H   0  0  0  0  0  0  0  0  0  0  0  0
    1.1353   -2.1105    4.4770 H   0  0  0  0  0  0  0  0  0  0  0  0
    1.3679   -4.7892    8.7759 H   0  0  0  0  0  0  0  0  0  0  0  0
    1.7858   -6.8338    6.0480 H   0  0  0  0  0  0  0  0  0  0  0  0
    4.1543   -6.4283    7.1927 H   0  0  0  0  0  0  0  0  0  0  0  0
    4.5041   -8.0812    5.1833 H   0  0  0  0  0  0  0  0  0  0  0  0
    4.4384   -6.6716    2.9334 H   0  0  0  0  0  0  0  0  0  0  0  0
    3.9988   -4.1565    3.5520 H   0  0  0  0  0  0  0  0  0  0  0  0
    5.5308   -4.8054    5.6189 H   0  0  0  0  0  0  0  0  0  0  0  0
    4.1145   -3.9194    6.2273 H   0  0  0  0  0  0  0  0  0  0  0  0
    1.7034   -5.4594    3.8224 H   0  0  0  0  0  0  0  0  0  0  0  0
   -1.4125    2.9583    8.9683 H   0  0  0  0  0  0  0  0  0  0  0  0
   -0.1026    4.5396    7.8701 H   0  0  0  0  0  0  0  0  0  0  0  0
    0.7217    6.2933    9.3921 H   0  0  0  0  0  0  0  0  0  0  0  0
   -0.6905    8.2569    9.8973 H   0  0  0  0  0  0  0  0  0  0  0  0
   -4.9477    8.4176    7.4970 H   0  0  0  0  0  0  0  0  0  0  0  0
   -4.9596   10.1290    7.9489 H   0  0  0  0  0  0  0  0  0  0  0  0
   -4.1761    9.8325    5.5747 H   0  0  0  0  0  0  0  0  0  0  0  0
   -2.8498    8.8233    6.1448 H   0  0  0  0  0  0  0  0  0  0  0  0
   -2.9121   10.5297    6.5935 H   0  0  0  0  0  0  0  0  0  0  0  0
   -3.8083    6.6171    7.4804 H   0  0  0  0  0  0  0  0  0  0  0  0
   -5.4780    1.8466    3.1975 H   0  0  0  0  0  0  0  0  0  0  0  0
   -5.6231    0.0684    1.4987 H   0  0  0  0  0  0  0  0  0  0  0  0
   -3.7568   -1.4582    1.1188 H   0  0  0  0  0  0  0  0  0  0  0  0
   -2.1649   -2.9481    0.8376 H   0  0  0  0  0  0  0  0  0  0  0  0
   -0.3979   -3.1214    0.8781 H   0  0  0  0  0  0  0  0  0  0  0  0
   -0.1069   -0.9705   -0.2909 H   0  0  0  0  0  0  0  0  0  0  0  0
   -1.1641   -2.0111   -1.2550 H   0  0  0  0  0  0  0  0  0  0  0  0
   -1.8499   -0.6912   -0.2964 H   0  0  0  0  0  0  0  0  0  0  0  0
   -1.4683    0.6221    4.0652 H   0  0  0  0  0  0  0  0  0  0  0  0
   -4.0625    3.7452    2.4038 H   0  0  0  0  0  0  0  0  0  0  0  0
   -3.8083   10.2211    1.9651 H   0  0  0  0  0  0  0  0  0  0  0  0
   -2.4967   11.8339    3.2930 H   0  0  0  0  0  0  0  0  0  0  0  0
   -0.4693   11.0962    4.4789 H   0  0  0  0  0  0  0  0  0  0  0  0
    1.3250    9.4241    4.6288 H   0  0  0  0  0  0  0  0  0  0  0  0
    1.0688    7.7778    4.0316 H   0  0  0  0  0  0  0  0  0  0  0  0
   -0.4969    7.3420    5.9326 H   0  0  0  0  0  0  0  0  0  0  0  0
    1.1063    7.7982    6.5101 H   0  0  0  0  0  0  0  0  0  0  0  0
   -0.2105    8.9723    6.5391 H   0  0  0  0  0  0  0  0  0  0  0  0
   -1.0395    7.1390    2.9962 H   0  0  0  0  0  0  0  0  0  0  0  0
    2.5210    3.4695   -7.3946 H   0  0  0  0  0  0  0  0  0  0  0  0
    4.6254    3.4180   -8.6702 H   0  0  0  0  0  0  0  0  0  0  0  0
    5.0053    1.6742  -10.3668 H   0  0  0  0  0  0  0  0  0  0  0  0
    2.3896   -0.6225  -11.5657 H   0  0  0  0  0  0  0  0  0  0  0  0
    4.0090    0.0202  -11.8769 H   0  0  0  0  0  0  0  0  0  0  0  0
    4.1347   -2.3450  -11.1333 H   0  0  0  0  0  0  0  0  0  0  0  0
    4.8960   -1.2870   -9.9423 H   0  0  0  0  0  0  0  0  0  0  0  0
    3.2865   -1.9357   -9.6382 H   0  0  0  0  0  0  0  0  0  0  0  0
    1.1316    0.0733   -9.5801 H   0  0  0  0  0  0  0  0  0  0  0  0
   -5.6113    5.0034   -4.1016 H   0  0  0  0  0  0  0  0  0  0  0  0
   -6.2920    6.2213   -3.0318 H   0  0  0  0  0  0  0  0  0  0  0  0
   -6.2370    4.7645   -1.1148 H   0  0  0  0  0  0  0  0  0  0  0  0
   -6.9229    3.8321   -2.4407 H   0  0  0  0  0  0  0  0  0  0  0  0
   -5.2481    3.5666   -1.9359 H   0  0  0  0  0  0  0  0  0  0  0  0
   -3.5294    2.1836   -4.9054 H   0  0  0  0  0  0  0  0  0  0  0  0
   -4.5684    3.3220   -4.0561 H   0  0  0  0  0  0  0  0  0  0  0  0
   -2.6888    3.8197   -2.4573 H   0  0  0  0  0  0  0  0  0  0  0  0
   -3.0859    2.0951   -2.4690 H   0  0  0  0  0  0  0  0  0  0  0  0
   -1.6639    2.6788   -3.3330 H   0  0  0  0  0  0  0  0  0  0  0  0
    2.5503   -0.4580   -7.4176 H   0  0  0  0  0  0  0  0  0  0  0  0
    4.3063   -0.2000   -5.9719 H   0  0  0  0  0  0  0  0  0  0  0  0
    6.2604    0.7011   -7.1635 H   0  0  0  0  0  0  0  0  0  0  0  0
    7.7546   -0.8168   -8.4198 H   0  0  0  0  0  0  0  0  0  0  0  0
    7.3401   -5.0446   -7.0073 H   0  0  0  0  0  0  0  0  0  0  0  0
    6.6240   -5.6995   -8.5074 H   0  0  0  0  0  0  0  0  0  0  0  0
    8.6215   -7.0384   -7.8283 H   0  0  0  0  0  0  0  0  0  0  0  0
    9.6167   -5.5770   -7.8752 H   0  0  0  0  0  0  0  0  0  0  0  0
    8.9138   -6.2115   -9.3642 H   0  0  0  0  0  0  0  0  0  0  0  0
    5.2153   -4.1073   -7.4300 H   0  0  0  0  0  0  0  0  0  0  0  0
    0.9287   -4.1422   -1.8864 H   0  0  0  0  0  0  0  0  0  0  0  0
   -1.0293   -5.0070   -0.6597 H   0  0  0  0  0  0  0  0  0  0  0  0
   -3.1275   -5.4916   -1.8650 H   0  0  0  0  0  0  0  0  0  0  0  0
   -3.1655   -3.8360   -6.2792 H   0  0  0  0  0  0  0  0  0  0  0  0
   -4.7540   -4.5614   -6.5734 H   0  0  0  0  0  0  0  0  0  0  0  0
   -3.7292   -6.7434   -7.1064 H   0  0  0  0  0  0  0  0  0  0  0  0
   -3.0472   -5.4977   -8.1591 H   0  0  0  0  0  0  0  0  0  0  0  0
   -2.1163   -6.1111   -6.7870 H   0  0  0  0  0  0  0  0  0  0  0  0
   -1.2334   -4.4149   -5.5455 H   0  0  0  0  0  0  0  0  0  0  0  0
    2.0902   -5.9222   -2.8885 H   0  0  0  0  0  0  0  0  0  0  0  0
    5.7602   -6.9492   -2.9687 H   0  0  0  0  0  0  0  0  0  0  0  0
  1  2  2  0  0  0  0
  2  3  1  0  0  0  0
  3  4  2  0  0  0  0
  3  5  1  0  0  0  0
  5  6  2  0  0  0  0
  6  7  1  0  0  0  0
  7  8  2  0  0  0  0
  8  9  1  0  0  0  0
  9 10  2  0  0  0  0
 10 11  1  0  0  0  0
 11 12  2  0  0  0  0
 12 13  1  0  0  0  0
 13 14  3  0  0  0  0
 12 15  1  0  0  0  0
 15 16  3  0  0  0  0
  8 17  1  0  0  0  0
 17 18  1  0  0  0  0
 18 19  1  0  0  0  0
 19 20  2  0  0  0  0
 20 21  1  0  0  0  0
 21 22  1  0  0  0  0
 21 23  1  0  0  0  0
  1 24  1  0  0  0  0
 24 25  2  0  0  0  0
 25 26  1  0  0  0  0
 26 27  2  0  0  0  0
 27 28  1  0  0  0  0
 28 29  2  0  0  0  0
 29 30  1  0  0  0  0
 30 31  2  0  0  0  0
 31 32  1  0  0  0  0
 32 33  1  0  0  0  0
 33 34  1  0  0  0  0
 34 35  1  0  0  0  0
 32 36  2  0  0  0  0
 27 37  1  0  0  0  0
 37 38  2  0  0  0  0
 38 39  1  0  0  0  0
 39 40  1  0  0  0  0
 40 41  2  0  0  0  0
 41 42  1  0  0  0  0
 42 43  2  0  0  0  0
 43 44  1  0  0  0  0
 44 45  1  0  0  0  0
 45 46  1  0  0  0  0
 46 47  1  0  0  0  0
 44 48  2  0  0  0  0
 39 49  2  0  0  0  0
 49 50  1  0  0  0  0
 38 51  1  0  0  0  0
 51 52  2  0  0  0  0
 52 53  1  0  0  0  0
 52 54  1  0  0  0  0
 54 55  2  0  0  0  0
 55 56  1  0  0  0  0
 56 57  2  0  0  0  0
 57 58  1  0  0  0  0
 58 59  2  0  0  0  0
 59 60  1  0  0  0  0
 60 61  1  0  0  0  0
 61 62  1  0  0  0  0
 60 63  2  0  0  0  0
 55 64  1  0  0  0  0
 64 65  1  0  0  0  0
 65 66  1  0  0  0  0
 66 67  1  0  0  0  0
 67 68  1  0  0  0  0
 68 69  1  0  0  0  0
 69 70  2  0  0  0  0
 70 71  1  0  0  0  0
 71 72  1  0  0  0  0
 69 73  1  0  0  0  0
 73 74  1  0  0  0  0
 74 75  1  0  0  0  0
 75 76  1  0  0  0  0
 76 77  1  0  0  0  0
 77 78  1  0  0  0  0
 78 79  2  0  0  0  0
 79 80  1  0  0  0  0
 80 81  2  0  0  0  0
 81 82  1  0  0  0  0
 82 83  1  0  0  0  0
 83 84  1  0  0  0  0
 82 85  2  0  0  0  0
 77 86  2  0  0  0  0
 86 87  1  0  0  0  0
 87 88  1  0  0  0  0
 88 89  1  0  0  0  0
 89 90  1  0  0  0  0
 90 91  1  0  0  0  0
 91 92  1  0  0  0  0
 92 93  1  0  0  0  0
 93 94  1  0  0  0  0
 94 95  1  0  0  0  0
 95 96  1  0  0  0  0
 93 97  1  0  0  0  0
 97 98  1  0  0  0  0
 90 99  1  0  0  0  0
 99100  1  0  0  0  0
 86101  1  0  0  0  0
101102  2  0  0  0  0
102103  1  0  0  0  0
103104  2  0  0  0  0
104105  1  0  0  0  0
105106  2  0  0  0  0
106107  1  0  0  0  0
107108  2  0  0  0  0
108109  1  0  0  0  0
109110  1  0  0  0  0
110111  1  0  0  0  0
111112  1  0  0  0  0
109113  2  0  0  0  0
104114  1  0  0  0  0
114115  2  0  0  0  0
115116  1  0  0  0  0
116117  1  0  0  0  0
117118  2  0  0  0  0
118119  1  0  0  0  0
119120  2  0  0  0  0
120121  1  0  0  0  0
121122  1  0  0  0  0
122123  1  0  0  0  0
123124  1  0  0  0  0
121125  2  0  0  0  0
116126  2  0  0  0  0
126127  1  0  0  0  0
115128  1  0  0  0  0
128129  2  0  0  0  0
129130  1  0  0  0  0
129131  1  0  0  0  0
131132  2  0  0  0  0
132133  1  0  0  0  0
133134  2  0  0  0  0
133135  1  0  0  0  0
135136  2  0  0  0  0
136137  1  0  0  0  0
136138  1  0  0  0  0
138139  1  0  0  0  0
138140  2  0  0  0  0
140141  1  0  0  0  0
140142  1  0  0  0  0
142143  1  0  0  0  0
142144  2  0  0  0  0
144145  1  0  0  0  0
145146  2  0  0  0  0
146147  1  0  0  0  0
147148  3  0  0  0  0
146149  1  0  0  0  0
149150  3  0  0  0  0
 11  2  1  0  0  0  0
 23 17  1  0  0  0  0
 50 24  1  0  0  0  0
 96 54  1  0  0  0  0
127101  1  0  0  0  0
145132  1  0  0  0  0
 10  5  1  0  0  0  0
 22 18  1  0  0  0  0
 49 26  1  0  0  0  0
 63 56  1  0  0  0  0
 95 64  2  0  0  0  0
126103  1  0  0  0  0
144135  1  0  0  0  0
 23  7  1  0  0  0  0
 36 28  1  0  0  0  0
 53 37  1  0  0  0  0
 94 66  2  0  0  0  0
113105  1  0  0  0  0
130114  1  0  0  0  0
 48 40  1  0  0  0  0
 92 67  2  0  0  0  0
125117  1  0  0  0  0
 72 68  2  0  0  0  0
 91 73  2  0  0  0  0
 89 74  2  0  0  0  0
 88 76  2  0  0  0  0
 85 78  1  0  0  0  0
  1151  1  0  0  0  0
  6152  1  0  0  0  0
  9153  1  0  0  0  0
 17154  1  0  0  0  0
 18155  1  0  0  0  0
 19156  1  0  0  0  0
 20157  1  0  0  0  0
 21158  1  0  0  0  0
 22159  1  0  0  0  0
 22160  1  0  0  0  0
 23161  1  0  0  0  0
 25162  1  0  0  0  0
 29163  1  0  0  0  0
 30164  1  0  0  0  0
 31165  1  0  0  0  0
 34166  1  0  0  0  0
 34167  1  0  0  0  0
 35168  1  0  0  0  0
 35169  1  0  0  0  0
 35170  1  0  0  0  0
 36171  1  0  0  0  0
 41172  1  0  0  0  0
 42173  1  0  0  0  0
 43174  1  0  0  0  0
 46175  1  0  0  0  0
 46176  1  0  0  0  0
 47177  1  0  0  0  0
 47178  1  0  0  0  0
 47179  1  0  0  0  0
 48180  1  0  0  0  0
 51181  1  0  0  0  0
 57182  1  0  0  0  0
 58183  1  0  0  0  0
 59184  1  0  0  0  0
 61185  1  0  0  0  0
 61186  1  0  0  0  0
 62187  1  0  0  0  0
 62188  1  0  0  0  0
 62189  1  0  0  0  0
 63190  1  0  0  0  0
 79191  1  0  0  0  0
 80192  1  0  0  0  0
 81193  1  0  0  0  0
 83194  1  0  0  0  0
 83195  1  0  0  0  0
 84196  1  0  0  0  0
 84197  1  0  0  0  0
 84198  1  0  0  0  0
 85199  1  0  0  0  0
 97200  1  0  0  0  0
 97201  1  0  0  0  0
 98202  1  0  0  0  0
 98203  1  0  0  0  0
 98204  1  0  0  0  0
 99205  1  0  0  0  0
 99206  1  0  0  0  0
100207  1  0  0  0  0
100208  1  0  0  0  0
100209  1  0  0  0  0
102210  1  0  0  0  0
106211  1  0  0  0  0
107212  1  0  0  0  0
108213  1  0  0  0  0
111214  1  0  0  0  0
111215  1  0  0  0  0
112216  1  0  0  0  0
112217  1  0  0  0  0
112218  1  0  0  0  0
113219  1  0  0  0  0
118220  1  0  0  0  0
119221  1  0  0  0  0
120222  1  0  0  0  0
123223  1  0  0  0  0
123224  1  0  0  0  0
124225  1  0  0  0  0
124226  1  0  0  0  0
124227  1  0  0  0  0
125228  1  0  0  0  0
128229  1  0  0  0  0
131230  1  0  0  0  0
M  END
