
  xtb     02212205133D
 energy: -321.262754684082 gnorm: 0.000508644107 xtb: 6.4.1 (unknown)
191214  0     0  0            999 V2000
    3.3263   -7.9833    6.6162 C   0  0  0  0  0  0  0  0  0  0  0  0
    3.6038   -7.0442    7.5531 C   0  0  0  0  0  0  0  0  0  0  0  0
    3.3109   -5.5935    7.3817 C   0  0  0  0  0  0  0  0  0  0  0  0
    3.0175   -5.0190    6.3565 O   0  0  0  0  0  0  0  0  0  0  0  0
    3.3592   -5.0228    8.7388 C   0  0  0  0  0  0  0  0  0  0  0  0
    3.0704   -3.7073    9.0986 C   0  0  0  0  0  0  0  0  0  0  0  0
    3.1795   -3.4587   10.4453 C   0  0  0  0  0  0  0  0  0  0  0  0
    3.5401   -4.4468   11.3729 C   0  0  0  0  0  0  0  0  0  0  0  0
    3.8220   -5.7486   11.0344 C   0  0  0  0  0  0  0  0  0  0  0  0
    3.7250   -6.0217    9.6659 C   0  0  0  0  0  0  0  0  0  0  0  0
    3.9520   -7.2675    8.9451 C   0  0  0  0  0  0  0  0  0  0  0  0
    4.5006   -8.4169    9.4459 C   0  0  0  0  0  0  0  0  0  0  0  0
    4.8712   -8.6030   10.7937 C   0  0  0  0  0  0  0  0  0  0  0  0
    5.1902   -8.8083   11.8770 N   0  0  0  0  0  0  0  0  0  0  0  0
    4.8267   -9.5342    8.6472 C   0  0  0  0  0  0  0  0  0  0  0  0
    5.1519  -10.4492    8.0351 N   0  0  0  0  0  0  0  0  0  0  0  0
    3.4500   -3.4959   12.5401 C   0  0  0  0  0  0  0  0  0  0  0  0
    4.7866   -2.9669   13.1024 C   0  0  0  0  0  0  0  0  0  0  0  0
    4.3885   -1.7318   13.8779 C   0  0  0  0  0  0  0  0  0  0  0  0
    4.0481   -0.7965   13.0004 C   0  0  0  0  0  0  0  0  0  0  0  0
    4.2104   -1.3836   11.6169 C   0  0  0  0  0  0  0  0  0  0  0  0
    5.4078   -2.3106   11.8626 C   0  0  0  0  0  0  0  0  0  0  0  0
    3.0494   -2.3949   11.5062 C   0  0  0  0  0  0  0  0  0  0  0  0
    3.0128   -7.7103    5.2440 C   0  0  0  0  0  0  0  0  0  0  0  0
    1.8816   -8.1306    4.5668 C   0  0  0  0  0  0  0  0  0  0  0  0
    1.9102   -7.5611    3.2652 C   0  0  0  0  0  0  0  0  0  0  0  0
    3.1515   -6.8377    3.1180 C   0  0  0  0  0  0  0  0  0  0  0  0
    3.6479   -6.2438    2.1829 O   0  0  0  0  0  0  0  0  0  0  0  0
    3.7688   -6.9623    4.3797 N   0  0  0  0  0  0  0  0  0  0  0  0
    5.1123   -6.4915    4.6053 C   0  0  0  0  0  0  0  0  0  0  0  0
    6.0918   -7.6482    4.7809 C   0  0  0  0  0  0  0  0  0  0  0  0
    0.7316   -7.8952    2.6150 C   0  0  0  0  0  0  0  0  0  0  0  0
   -0.0257   -8.6584    3.4749 N   0  0  0  0  0  0  0  0  0  0  0  0
   -1.4198   -9.0187    3.3237 C   0  0  0  0  0  0  0  0  0  0  0  0
   -1.6428  -10.5219    3.4436 C   0  0  0  0  0  0  0  0  0  0  0  0
    0.6114   -8.8018    4.7309 C   0  0  0  0  0  0  0  0  0  0  0  0
    0.1089   -9.3617    5.6804 O   0  0  0  0  0  0  0  0  0  0  0  0
    0.3480   -7.4150    1.3268 C   0  0  0  0  0  0  0  0  0  0  0  0
   -0.3543   -8.0015    0.2836 C   0  0  0  0  0  0  0  0  0  0  0  0
   -0.6599   -9.4271    0.1807 C   0  0  0  0  0  0  0  0  0  0  0  0
   -1.8428   -9.8671   -0.4081 C   0  0  0  0  0  0  0  0  0  0  0  0
   -2.0762  -11.2212   -0.5518 C   0  0  0  0  0  0  0  0  0  0  0  0
   -1.1368  -12.1433   -0.1237 C   0  0  0  0  0  0  0  0  0  0  0  0
    0.0507  -11.7227    0.4636 C   0  0  0  0  0  0  0  0  0  0  0  0
    1.0925  -12.7145    0.8949 C   0  0  0  0  0  0  0  0  0  0  0  0
    2.0927  -12.9642   -0.2354 C   0  0  0  0  0  0  0  0  0  0  0  0
    0.2785  -10.3624    0.6099 C   0  0  0  0  0  0  0  0  0  0  0  0
   -0.5735   -7.0774   -0.7567 C   0  0  0  0  0  0  0  0  0  0  0  0
   -1.4078   -7.1798   -2.2919 S   0  0  0  0  0  0  0  0  0  0  0  0
   -0.9890   -5.5294   -2.6063 C   0  0  0  0  0  0  0  0  0  0  0  0
   -1.1637   -4.5513   -3.5973 C   0  0  0  0  0  0  0  0  0  0  0  0
   -1.7847   -4.6167   -4.8634 C   0  0  0  0  0  0  0  0  0  0  0  0
   -1.7635   -3.4577   -5.7073 C   0  0  0  0  0  0  0  0  0  0  0  0
   -2.3471   -3.6719   -6.8761 N   0  0  0  0  0  0  0  0  0  0  0  0
   -2.8814   -5.1998   -6.9098 S   0  0  0  0  0  0  0  0  0  0  0  0
   -2.3881   -5.6477   -5.4341 N   0  0  0  0  0  0  0  0  0  0  0  0
   -1.1937   -2.2641   -5.2133 C   0  0  0  0  0  0  0  0  0  0  0  0
   -1.1395   -0.9750   -5.7646 C   0  0  0  0  0  0  0  0  0  0  0  0
   -1.6240   -0.1322   -7.1973 S   0  0  0  0  0  0  0  0  0  0  0  0
   -1.0113    1.3533   -6.5048 C   0  0  0  0  0  0  0  0  0  0  0  0
   -0.9936    2.6875   -6.9534 C   0  0  0  0  0  0  0  0  0  0  0  0
   -1.7402    3.1785   -8.1091 C   0  0  0  0  0  0  0  0  0  0  0  0
   -1.7933    2.4538   -9.2972 C   0  0  0  0  0  0  0  0  0  0  0  0
   -2.5636    2.9154  -10.3476 C   0  0  0  0  0  0  0  0  0  0  0  0
   -3.2892    4.0881  -10.2233 C   0  0  0  0  0  0  0  0  0  0  0  0
   -3.2525    4.8213   -9.0424 C   0  0  0  0  0  0  0  0  0  0  0  0
   -4.0627    6.0734   -8.8764 C   0  0  0  0  0  0  0  0  0  0  0  0
   -5.4555    5.7389   -8.3391 C   0  0  0  0  0  0  0  0  0  0  0  0
   -2.4780    4.3549   -7.9910 C   0  0  0  0  0  0  0  0  0  0  0  0
   -0.3608    3.5103   -6.0314 C   0  0  0  0  0  0  0  0  0  0  0  0
    0.1156    2.6662   -4.5716 S   0  0  0  0  0  0  0  0  0  0  0  0
   -0.4588    1.1803   -5.2308 C   0  0  0  0  0  0  0  0  0  0  0  0
   -0.5445   -0.1509   -4.8066 C   0  0  0  0  0  0  0  0  0  0  0  0
   -0.2184   -0.8766   -3.6940 N   0  0  0  0  0  0  0  0  0  0  0  0
   -0.6054   -2.1877   -3.9170 C   0  0  0  0  0  0  0  0  0  0  0  0
   -0.5157   -3.3692   -3.1338 C   0  0  0  0  0  0  0  0  0  0  0  0
    0.0614   -3.6447   -1.9045 N   0  0  0  0  0  0  0  0  0  0  0  0
   -0.2330   -4.9429   -1.5895 C   0  0  0  0  0  0  0  0  0  0  0  0
    0.0015   -5.8232   -0.5266 C   0  0  0  0  0  0  0  0  0  0  0  0
    0.8169   -5.7588    0.9890 S   0  0  0  0  0  0  0  0  0  0  0  0
    1.1426   -2.9818   -1.2070 C   0  0  0  0  0  0  0  0  0  0  0  0
    2.3748   -2.8373   -2.0962 C   0  0  0  0  0  0  0  0  0  0  0  0
    0.0680   -0.1800   -2.4592 C   0  0  0  0  0  0  0  0  0  0  0  0
   -1.0993   -0.2755   -1.4800 C   0  0  0  0  0  0  0  0  0  0  0  0
   -0.0749    4.9053   -6.0713 C   0  0  0  0  0  0  0  0  0  0  0  0
   -0.1995    5.7751   -4.9978 C   0  0  0  0  0  0  0  0  0  0  0  0
    0.1389    7.0793   -5.4385 C   0  0  0  0  0  0  0  0  0  0  0  0
    0.5696    6.9841   -6.8214 C   0  0  0  0  0  0  0  0  0  0  0  0
    1.0364    7.8054   -7.5764 O   0  0  0  0  0  0  0  0  0  0  0  0
    0.3906    5.6211   -7.1483 N   0  0  0  0  0  0  0  0  0  0  0  0
    0.9070    5.0794   -8.3880 C   0  0  0  0  0  0  0  0  0  0  0  0
    0.2417    5.6917   -9.6150 C   0  0  0  0  0  0  0  0  0  0  0  0
   -0.2173    7.9792   -4.4499 C   0  0  0  0  0  0  0  0  0  0  0  0
   -0.7181    7.2535   -3.3819 N   0  0  0  0  0  0  0  0  0  0  0  0
   -0.9042    7.7361   -2.0281 C   0  0  0  0  0  0  0  0  0  0  0  0
   -2.2643    7.3587   -1.4492 C   0  0  0  0  0  0  0  0  0  0  0  0
   -0.6875    5.8659   -3.6447 C   0  0  0  0  0  0  0  0  0  0  0  0
   -0.9817    5.0149   -2.8299 O   0  0  0  0  0  0  0  0  0  0  0  0
   -0.1181    9.3966   -4.5368 C   0  0  0  0  0  0  0  0  0  0  0  0
   -0.9798   10.3319   -4.0633 C   0  0  0  0  0  0  0  0  0  0  0  0
   -0.5501   11.7452   -3.8554 C   0  0  0  0  0  0  0  0  0  0  0  0
    0.4611   12.2628   -4.2671 O   0  0  0  0  0  0  0  0  0  0  0  0
   -1.5844   12.3348   -2.9822 C   0  0  0  0  0  0  0  0  0  0  0  0
   -1.5603   13.5907   -2.3785 C   0  0  0  0  0  0  0  0  0  0  0  0
   -2.6513   13.8516   -1.5843 C   0  0  0  0  0  0  0  0  0  0  0  0
   -3.6899   12.9298   -1.3915 C   0  0  0  0  0  0  0  0  0  0  0  0
   -3.7308   11.6893   -1.9823 C   0  0  0  0  0  0  0  0  0  0  0  0
   -2.6355   11.4094   -2.8037 C   0  0  0  0  0  0  0  0  0  0  0  0
   -2.3456   10.2197   -3.5976 C   0  0  0  0  0  0  0  0  0  0  0  0
   -3.2619    9.2963   -4.0285 C   0  0  0  0  0  0  0  0  0  0  0  0
   -2.9939    8.2988   -4.9883 C   0  0  0  0  0  0  0  0  0  0  0  0
   -2.8621    7.5004   -5.8029 N   0  0  0  0  0  0  0  0  0  0  0  0
   -4.6186    9.3001   -3.6408 C   0  0  0  0  0  0  0  0  0  0  0  0
   -5.7265    9.2540   -3.3443 N   0  0  0  0  0  0  0  0  0  0  0  0
   -4.4450   13.8521   -0.4679 C   0  0  0  0  0  0  0  0  0  0  0  0
   -5.6683   14.5763   -1.0689 C   0  0  0  0  0  0  0  0  0  0  0  0
   -5.9009   15.7349   -0.1262 C   0  0  0  0  0  0  0  0  0  0  0  0
   -4.9205   16.6095   -0.3120 C   0  0  0  0  0  0  0  0  0  0  0  0
   -4.0084   16.0567   -1.3836 C   0  0  0  0  0  0  0  0  0  0  0  0
   -5.0373   15.3217   -2.2522 C   0  0  0  0  0  0  0  0  0  0  0  0
   -3.2901   14.8817   -0.6865 C   0  0  0  0  0  0  0  0  0  0  0  0
    3.2144   -9.0200    6.9112 H   0  0  0  0  0  0  0  0  0  0  0  0
    2.7879   -2.9794    8.3542 H   0  0  0  0  0  0  0  0  0  0  0  0
    4.0838   -6.5034   11.7574 H   0  0  0  0  0  0  0  0  0  0  0  0
    2.7380   -3.7655   13.3175 H   0  0  0  0  0  0  0  0  0  0  0  0
    5.3823   -3.7063   13.6304 H   0  0  0  0  0  0  0  0  0  0  0  0
    4.3441   -1.6852   14.9501 H   0  0  0  0  0  0  0  0  0  0  0  0
    3.6625    0.1874   13.1930 H   0  0  0  0  0  0  0  0  0  0  0  0
    4.2815   -0.6799   10.7919 H   0  0  0  0  0  0  0  0  0  0  0  0
    5.6085   -3.0029   11.0469 H   0  0  0  0  0  0  0  0  0  0  0  0
    6.3143   -1.7569   12.1011 H   0  0  0  0  0  0  0  0  0  0  0  0
    2.0695   -1.9293   11.5933 H   0  0  0  0  0  0  0  0  0  0  0  0
    5.3697   -5.9092    3.7160 H   0  0  0  0  0  0  0  0  0  0  0  0
    5.1377   -5.8297    5.4733 H   0  0  0  0  0  0  0  0  0  0  0  0
    5.8331   -8.2502    5.6506 H   0  0  0  0  0  0  0  0  0  0  0  0
    7.0981   -7.2607    4.9142 H   0  0  0  0  0  0  0  0  0  0  0  0
    6.0801   -8.2885    3.9019 H   0  0  0  0  0  0  0  0  0  0  0  0
   -1.9801   -8.5145    4.1203 H   0  0  0  0  0  0  0  0  0  0  0  0
   -1.7703   -8.6505    2.3591 H   0  0  0  0  0  0  0  0  0  0  0  0
   -2.6986  -10.7413    3.3111 H   0  0  0  0  0  0  0  0  0  0  0  0
   -1.0768  -11.0578    2.6877 H   0  0  0  0  0  0  0  0  0  0  0  0
   -1.3327  -10.8606    4.4279 H   0  0  0  0  0  0  0  0  0  0  0  0
   -2.5785   -9.1495   -0.7378 H   0  0  0  0  0  0  0  0  0  0  0  0
   -2.9961  -11.5601   -1.0041 H   0  0  0  0  0  0  0  0  0  0  0  0
   -1.3251  -13.2001   -0.2448 H   0  0  0  0  0  0  0  0  0  0  0  0
    0.6145  -13.6571    1.1687 H   0  0  0  0  0  0  0  0  0  0  0  0
    1.6253  -12.3348    1.7694 H   0  0  0  0  0  0  0  0  0  0  0  0
    1.5826  -13.3552   -1.1129 H   0  0  0  0  0  0  0  0  0  0  0  0
    2.5894  -12.0373   -0.5133 H   0  0  0  0  0  0  0  0  0  0  0  0
    2.8468  -13.6822    0.0776 H   0  0  0  0  0  0  0  0  0  0  0  0
    1.2056  -10.0205    1.0485 H   0  0  0  0  0  0  0  0  0  0  0  0
   -1.2233    1.5426   -9.3978 H   0  0  0  0  0  0  0  0  0  0  0  0
   -2.6000    2.3550  -11.2699 H   0  0  0  0  0  0  0  0  0  0  0  0
   -3.8902    4.4393  -11.0497 H   0  0  0  0  0  0  0  0  0  0  0  0
   -4.1581    6.5837   -9.8372 H   0  0  0  0  0  0  0  0  0  0  0  0
   -3.5637    6.7430   -8.1741 H   0  0  0  0  0  0  0  0  0  0  0  0
   -5.3764    5.2478   -7.3721 H   0  0  0  0  0  0  0  0  0  0  0  0
   -6.0413    6.6467   -8.2175 H   0  0  0  0  0  0  0  0  0  0  0  0
   -5.9799    5.0734   -9.0219 H   0  0  0  0  0  0  0  0  0  0  0  0
   -2.4650    4.9080   -7.0631 H   0  0  0  0  0  0  0  0  0  0  0  0
    1.3942   -3.6133   -0.3516 H   0  0  0  0  0  0  0  0  0  0  0  0
    0.8147   -2.0220   -0.8083 H   0  0  0  0  0  0  0  0  0  0  0  0
    2.7392   -3.8203   -2.3851 H   0  0  0  0  0  0  0  0  0  0  0  0
    3.1636   -2.3246   -1.5526 H   0  0  0  0  0  0  0  0  0  0  0  0
    2.1480   -2.2795   -3.0020 H   0  0  0  0  0  0  0  0  0  0  0  0
    0.9970   -0.5424   -2.0202 H   0  0  0  0  0  0  0  0  0  0  0  0
    0.2258    0.8685   -2.7225 H   0  0  0  0  0  0  0  0  0  0  0  0
   -0.8451    0.2289   -0.5518 H   0  0  0  0  0  0  0  0  0  0  0  0
   -1.9770    0.2068   -1.9036 H   0  0  0  0  0  0  0  0  0  0  0  0
   -1.3512   -1.3111   -1.2633 H   0  0  0  0  0  0  0  0  0  0  0  0
    1.9817    5.2965   -8.4232 H   0  0  0  0  0  0  0  0  0  0  0  0
    0.7674    3.9975   -8.3727 H   0  0  0  0  0  0  0  0  0  0  0  0
    0.6531    5.2360  -10.5115 H   0  0  0  0  0  0  0  0  0  0  0  0
    0.4329    6.7603   -9.6422 H   0  0  0  0  0  0  0  0  0  0  0  0
   -0.8307    5.5249   -9.5964 H   0  0  0  0  0  0  0  0  0  0  0  0
   -0.7642    8.8192   -2.0204 H   0  0  0  0  0  0  0  0  0  0  0  0
   -0.1256    7.2843   -1.4007 H   0  0  0  0  0  0  0  0  0  0  0  0
   -2.3466    7.7503   -0.4386 H   0  0  0  0  0  0  0  0  0  0  0  0
   -3.0799    7.7594   -2.0449 H   0  0  0  0  0  0  0  0  0  0  0  0
   -2.3597    6.2774   -1.4195 H   0  0  0  0  0  0  0  0  0  0  0  0
    0.7734    9.7689   -5.0312 H   0  0  0  0  0  0  0  0  0  0  0  0
   -0.7381   14.2692   -2.5430 H   0  0  0  0  0  0  0  0  0  0  0  0
   -4.5260   10.9806   -1.8178 H   0  0  0  0  0  0  0  0  0  0  0  0
   -4.6244   13.4752    0.5372 H   0  0  0  0  0  0  0  0  0  0  0  0
   -6.5198   13.9344   -1.2769 H   0  0  0  0  0  0  0  0  0  0  0  0
   -6.6976   15.7722    0.5934 H   0  0  0  0  0  0  0  0  0  0  0  0
   -4.7343   17.5231    0.2213 H   0  0  0  0  0  0  0  0  0  0  0  0
   -3.3488   16.7648   -1.8778 H   0  0  0  0  0  0  0  0  0  0  0  0
   -5.7378   16.0061   -2.7275 H   0  0  0  0  0  0  0  0  0  0  0  0
   -4.5989   14.6695   -3.0052 H   0  0  0  0  0  0  0  0  0  0  0  0
   -2.6995   15.1937    0.1729 H   0  0  0  0  0  0  0  0  0  0  0  0
  1  2  2  0  0  0  0
  2  3  1  0  0  0  0
  3  4  2  0  0  0  0
  3  5  1  0  0  0  0
  5  6  2  0  0  0  0
  6  7  1  0  0  0  0
  7  8  2  0  0  0  0
  8  9  1  0  0  0  0
  9 10  2  0  0  0  0
 10 11  1  0  0  0  0
 11 12  2  0  0  0  0
 12 13  1  0  0  0  0
 13 14  3  0  0  0  0
 12 15  1  0  0  0  0
 15 16  3  0  0  0  0
  8 17  1  0  0  0  0
 17 18  1  0  0  0  0
 18 19  1  0  0  0  0
 19 20  2  0  0  0  0
 20 21  1  0  0  0  0
 21 22  1  0  0  0  0
 21 23  1  0  0  0  0
  1 24  1  0  0  0  0
 24 25  2  0  0  0  0
 25 26  1  0  0  0  0
 26 27  1  0  0  0  0
 27 28  2  0  0  0  0
 27 29  1  0  0  0  0
 29 30  1  0  0  0  0
 30 31  1  0  0  0  0
 26 32  2  0  0  0  0
 32 33  1  0  0  0  0
 33 34  1  0  0  0  0
 34 35  1  0  0  0  0
 33 36  1  0  0  0  0
 36 37  2  0  0  0  0
 32 38  1  0  0  0  0
 38 39  2  0  0  0  0
 39 40  1  0  0  0  0
 40 41  2  0  0  0  0
 41 42  1  0  0  0  0
 42 43  2  0  0  0  0
 43 44  1  0  0  0  0
 44 45  1  0  0  0  0
 45 46  1  0  0  0  0
 44 47  2  0  0  0  0
 39 48  1  0  0  0  0
 48 49  1  0  0  0  0
 49 50  1  0  0  0  0
 50 51  1  0  0  0  0
 51 52  1  0  0  0  0
 52 53  1  0  0  0  0
 53 54  2  0  0  0  0
 54 55  1  0  0  0  0
 55 56  1  0  0  0  0
 53 57  1  0  0  0  0
 57 58  1  0  0  0  0
 58 59  1  0  0  0  0
 59 60  1  0  0  0  0
 60 61  1  0  0  0  0
 61 62  1  0  0  0  0
 62 63  2  0  0  0  0
 63 64  1  0  0  0  0
 64 65  2  0  0  0  0
 65 66  1  0  0  0  0
 66 67  1  0  0  0  0
 67 68  1  0  0  0  0
 66 69  2  0  0  0  0
 61 70  2  0  0  0  0
 70 71  1  0  0  0  0
 71 72  1  0  0  0  0
 72 73  1  0  0  0  0
 73 74  1  0  0  0  0
 74 75  1  0  0  0  0
 75 76  1  0  0  0  0
 76 77  1  0  0  0  0
 77 78  1  0  0  0  0
 78 79  1  0  0  0  0
 79 80  1  0  0  0  0
 77 81  1  0  0  0  0
 81 82  1  0  0  0  0
 74 83  1  0  0  0  0
 83 84  1  0  0  0  0
 70 85  1  0  0  0  0
 85 86  2  0  0  0  0
 86 87  1  0  0  0  0
 87 88  1  0  0  0  0
 88 89  2  0  0  0  0
 88 90  1  0  0  0  0
 90 91  1  0  0  0  0
 91 92  1  0  0  0  0
 87 93  2  0  0  0  0
 93 94  1  0  0  0  0
 94 95  1  0  0  0  0
 95 96  1  0  0  0  0
 94 97  1  0  0  0  0
 97 98  2  0  0  0  0
 93 99  1  0  0  0  0
 99100  2  0  0  0  0
100101  1  0  0  0  0
101102  2  0  0  0  0
101103  1  0  0  0  0
103104  2  0  0  0  0
104105  1  0  0  0  0
105106  2  0  0  0  0
106107  1  0  0  0  0
107108  2  0  0  0  0
108109  1  0  0  0  0
109110  2  0  0  0  0
110111  1  0  0  0  0
111112  3  0  0  0  0
110113  1  0  0  0  0
113114  3  0  0  0  0
106115  1  0  0  0  0
115116  1  0  0  0  0
116117  1  0  0  0  0
117118  2  0  0  0  0
118119  1  0  0  0  0
119120  1  0  0  0  0
119121  1  0  0  0  0
 11  2  1  0  0  0  0
 23 17  1  0  0  0  0
 29 24  1  0  0  0  0
 80 38  1  0  0  0  0
 90 85  1  0  0  0  0
109100  1  0  0  0  0
121115  1  0  0  0  0
 10  5  1  0  0  0  0
 22 18  1  0  0  0  0
 36 25  1  0  0  0  0
 47 40  1  0  0  0  0
 79 48  2  0  0  0  0
 97 86  1  0  0  0  0
108103  1  0  0  0  0
120116  1  0  0  0  0
 23  7  1  0  0  0  0
 78 50  2  0  0  0  0
121105  1  0  0  0  0
 76 51  2  0  0  0  0
 56 52  2  0  0  0  0
 75 57  2  0  0  0  0
 73 58  2  0  0  0  0
 72 60  2  0  0  0  0
 69 62  1  0  0  0  0
  1122  1  0  0  0  0
  6123  1  0  0  0  0
  9124  1  0  0  0  0
 17125  1  0  0  0  0
 18126  1  0  0  0  0
 19127  1  0  0  0  0
 20128  1  0  0  0  0
 21129  1  0  0  0  0
 22130  1  0  0  0  0
 22131  1  0  0  0  0
 23132  1  0  0  0  0
 30133  1  0  0  0  0
 30134  1  0  0  0  0
 31135  1  0  0  0  0
 31136  1  0  0  0  0
 31137  1  0  0  0  0
 34138  1  0  0  0  0
 34139  1  0  0  0  0
 35140  1  0  0  0  0
 35141  1  0  0  0  0
 35142  1  0  0  0  0
 41143  1  0  0  0  0
 42144  1  0  0  0  0
 43145  1  0  0  0  0
 45146  1  0  0  0  0
 45147  1  0  0  0  0
 46148  1  0  0  0  0
 46149  1  0  0  0  0
 46150  1  0  0  0  0
 47151  1  0  0  0  0
 63152  1  0  0  0  0
 64153  1  0  0  0  0
 65154  1  0  0  0  0
 67155  1  0  0  0  0
 67156  1  0  0  0  0
 68157  1  0  0  0  0
 68158  1  0  0  0  0
 68159  1  0  0  0  0
 69160  1  0  0  0  0
 81161  1  0  0  0  0
 81162  1  0  0  0  0
 82163  1  0  0  0  0
 82164  1  0  0  0  0
 82165  1  0  0  0  0
 83166  1  0  0  0  0
 83167  1  0  0  0  0
 84168  1  0  0  0  0
 84169  1  0  0  0  0
 84170  1  0  0  0  0
 91171  1  0  0  0  0
 91172  1  0  0  0  0
 92173  1  0  0  0  0
 92174  1  0  0  0  0
 92175  1  0  0  0  0
 95176  1  0  0  0  0
 95177  1  0  0  0  0
 96178  1  0  0  0  0
 96179  1  0  0  0  0
 96180  1  0  0  0  0
 99181  1  0  0  0  0
104182  1  0  0  0  0
107183  1  0  0  0  0
115184  1  0  0  0  0
116185  1  0  0  0  0
117186  1  0  0  0  0
118187  1  0  0  0  0
119188  1  0  0  0  0
120189  1  0  0  0  0
120190  1  0  0  0  0
121191  1  0  0  0  0
M  END
