189

C          7.94410        2.54350        3.36280
C          7.83880        1.38250        2.66750
C          6.59030        0.97220        1.96590
O          5.61800        1.65590        1.73040
C          6.73610       -0.47140        1.71550
C          5.77620       -1.31740        1.16400
C          6.17540       -2.62780        1.06480
C          7.43960       -3.06800        1.48190
C          8.39140       -2.24690        2.03920
C          8.00420       -0.90780        2.15260
C          8.72830        0.23550        2.69810
C         10.04130        0.26460        3.08350
C         10.70900        1.44090        3.48760
N         11.31260        2.37090        3.78430
C         10.90180       -0.85220        3.07020
N         11.64620       -1.72600        3.07930
C          7.15750       -4.49640        1.08730
C          7.77380       -5.02150       -0.23320
C          7.95770       -3.82340       -1.13130
C          6.75540       -3.41580       -1.51560
C          5.73580       -4.32870       -0.88040
C          6.52330       -5.64840       -0.87140
C          5.74550       -4.00790        0.63440
C          7.02460        3.63510        3.21120
C          6.22090        4.20200        4.18680
C          5.30450        5.08100        3.54140
C          5.63240        5.12190        2.13520
O          5.17430        5.73600        1.19500
N          6.70960        4.22140        2.01570
C          7.37250        4.01030        0.75920
C          4.27600        5.35620        4.43530
N          4.57420        4.73860        5.62570
C          3.81010        4.81140        6.84070
C          5.77220        3.99760        5.54820
O          6.23090        3.37420        6.48000
C          3.03180        5.95860        4.11070
C          2.80860        6.90800        3.11940
C          3.83850        7.81780        2.63860
C          4.83570        8.26800        3.50480
C          5.80080        9.14350        3.05150
C          5.78410        9.58340        1.73810
C          4.79940        9.14800        0.86190
C          4.74280        9.64240       -0.55440
C          3.69890       10.75250       -0.69170
C          3.83130        8.27010        1.32320
C          1.45990        6.90280        2.71360
S          0.61770        7.70470        1.41120
C         -0.76650        6.72260        1.72900
C         -1.99350        6.41140        1.11790
C         -2.64450        6.94730       -0.01390
C         -3.84290        6.31450       -0.49050
N         -4.34650        6.92370       -1.55230
S         -3.39940        8.18360       -1.91990
N         -2.30290        7.99770       -0.74340
C         -4.27320        5.11920        0.12650
C         -5.17040        4.12870       -0.30970
S         -6.13950        3.76100       -1.69880
C         -6.31540        2.11720       -1.12310
C         -6.83640        0.93490       -1.69900
C         -7.48830        0.82590       -3.00070
C         -8.52490       -0.08590       -3.19430
C         -9.13000       -0.19260       -4.43120
C         -8.71450        0.60580       -5.48270
C         -7.69050        1.52790       -5.30600
C         -7.20600        2.36850       -6.45180
C         -6.07770        1.65160       -7.19600
C         -7.08410        1.62770       -4.06360
C         -6.65670       -0.14310       -0.85790
S         -5.88570        0.28210        0.65580
C         -5.72260        1.91480        0.12310
C         -5.05270        3.05890        0.57830
N         -4.16080        3.36110        1.57190
C         -3.63370        4.61130        1.29310
C         -2.54570        5.32840        1.85090
N         -1.72540        5.05440        2.93970
C         -0.61980        5.87110        2.82860
C          0.65450        5.98210        3.39670
S          1.54720        5.16640        4.62910
C         -2.16830        4.58600        4.23980
C         -1.38640        3.38110        4.75780
C         -3.59870        2.27370        2.34000
C         -2.35850        1.70550        1.65360
C         -6.75060       -1.54300       -1.16600
S         -5.73720       -2.19020       -2.41040
C         -6.17280       -3.82300       -1.97690
C         -7.10110       -3.83210       -0.93130
C         -7.66440       -5.04130       -0.30900
O         -7.24210       -6.16810       -0.51660
C         -8.77770       -4.76020        0.59720
C         -9.61080       -5.72390        1.10980
C         -9.56400       -7.19570        0.91970
C         -8.61870       -7.84100        1.93780
S        -10.82270       -5.01720        2.12350
C        -10.20830       -3.41820        1.87040
C        -10.83150       -2.25770        2.55620
C        -10.09740       -1.94630        3.86390
C         -9.12190       -3.43820        1.03320
C         -8.39300       -2.24990        0.59180
O         -8.59710       -1.12330        1.01310
C         -7.41110       -2.53700       -0.46220
C         -5.63960       -4.99220       -2.56610
C         -4.50170       -5.13770       -3.30040
C         -3.50600       -4.09060       -3.59320
O         -3.66890       -2.88500       -3.56640
C         -2.25770       -4.80130       -3.91350
C         -1.00320       -4.23430       -4.12960
C         -0.00780       -5.15210       -4.36210
C         -0.24040       -6.53470       -4.38070
C         -1.47650       -7.10650       -4.19090
C         -2.50440       -6.19020       -3.95090
C         -3.92360       -6.41490       -3.69280
C         -4.60630       -7.58720       -3.85750
C         -6.00880       -7.71850       -3.73640
N         -7.14290       -7.89060       -3.70940
C         -4.00570       -8.80340       -4.24610
N         -3.56770       -9.81930       -4.55150
C          1.21030       -6.85400       -4.64150
C          2.06990       -7.34700       -3.45040
C          1.44890       -6.77400       -2.20090
C          1.67370       -5.46670       -2.19830
C          2.44780       -5.13170       -3.44940
C          3.28210       -6.41360       -3.60230
C          1.46700       -5.31430       -4.63430
H          8.68150        2.64760        4.14890
H          4.81450       -0.93650        0.85770
H          9.35200       -2.60150        2.37460
H          7.21170       -5.23070        1.88860
H          8.64310       -5.66000       -0.10200
H          8.91080       -3.37560       -1.34290
H          6.50360       -2.55850       -2.11210
H          4.74720       -4.33890       -1.33220
H          6.06480       -6.42330       -0.25830
H          6.71190       -6.03370       -1.87260
H          4.87760       -4.41540        1.14950
H          7.00260        3.10980        0.26530
H          7.14240        4.86930        0.12860
H          8.44980        3.93140        0.90620
H          3.48230        5.83460        7.02680
H          4.46200        4.47800        7.64860
H          2.93680        4.15550        6.80180
H          4.84170        7.94260        4.53520
H          6.57070        9.48890        3.72620
H          6.54580       10.26730        1.39150
H          5.72030       10.02430       -0.85450
H          4.47910        8.81600       -1.21660
H          3.94930       11.58940       -0.04320
H          2.71490       10.38410       -0.41100
H          3.65650       11.10980       -1.71800
H          3.08670        7.89930        0.63660
H         -8.87070       -0.68730       -2.36640
H         -9.93510       -0.89830       -4.57510
H         -9.19450        0.51880       -6.44680
H         -6.83970        3.32610       -6.07740
H         -8.02840        2.56200       -7.14330
H         -5.24660        1.45470       -6.52260
H         -6.42870        0.70090       -7.59130
H         -5.71960        2.26100       -8.02240
H         -6.27680        2.33090       -3.92410
H         -2.05130        5.41000        4.95470
H         -3.23660        4.37230        4.17160
H         -1.88740        2.97260        5.63170
H         -1.29870        2.60500        4.00450
H         -0.38380        3.67730        5.04960
H         -3.37080        2.59190        3.35240
H         -4.36940        1.50100        2.40030
H         -1.96460        0.86970        2.22560
H         -1.58790        2.46780        1.55890
H         -2.61450        1.35060        0.65800
H         -9.19420       -7.41320       -0.08430
H        -10.56660       -7.61210        1.03470
H         -8.61690       -8.91920        1.80600
H         -8.93390       -7.61120        2.95370
H         -7.60810       -7.47160        1.78660
H        -10.76480       -1.38500        1.90350
H        -11.88070       -2.47520        2.76530
H         -9.06850       -1.66910        3.65100
H        -10.58250       -1.11680        4.37080
H        -10.10360       -2.81230        4.52260
H         -6.16430       -5.89550       -2.27250
H         -0.86640       -3.16460       -4.10300
H         -1.64330       -8.17090       -4.21160
H          1.42060       -7.40350       -5.55670
H          2.25920       -8.41690       -3.44420
H          0.87830       -7.35130       -1.49710
H          1.32730       -4.73410       -1.49280
H          2.98030       -4.18390       -3.44860
H          4.01300       -6.53970       -2.80450
H          3.77600       -6.49680       -4.56920
H          1.83410       -4.85650       -5.55070
