
  xtb     02152201273D
 energy: -373.853278895880 gnorm: 0.000775122741 xtb: 6.4.1 (unknown)
227254  0     0  0            999 V2000
   -5.8021   -0.8281    3.2438 C   0  0  0  0  0  0  0  0  0  0  0  0
   -4.6669   -1.0223    3.9665 C   0  0  0  0  0  0  0  0  0  0  0  0
   -3.4459   -1.6906    3.4413 C   0  0  0  0  0  0  0  0  0  0  0  0
   -3.1763   -1.9407    2.2854 O   0  0  0  0  0  0  0  0  0  0  0  0
   -2.6748   -2.0912    4.6276 C   0  0  0  0  0  0  0  0  0  0  0  0
   -1.4947   -2.8311    4.6361 C   0  0  0  0  0  0  0  0  0  0  0  0
   -0.9979   -3.0814    5.8913 C   0  0  0  0  0  0  0  0  0  0  0  0
   -1.6428   -2.6557    7.0617 C   0  0  0  0  0  0  0  0  0  0  0  0
   -2.8140   -1.9338    7.0686 C   0  0  0  0  0  0  0  0  0  0  0  0
   -3.3252   -1.6476    5.7975 C   0  0  0  0  0  0  0  0  0  0  0  0
   -4.5267   -0.9195    5.4092 C   0  0  0  0  0  0  0  0  0  0  0  0
   -5.3312   -0.1733    6.2276 C   0  0  0  0  0  0  0  0  0  0  0  0
   -6.3834    0.6396    5.7538 C   0  0  0  0  0  0  0  0  0  0  0  0
   -7.2164    1.3549    5.4193 N   0  0  0  0  0  0  0  0  0  0  0  0
   -5.1598   -0.0573    7.6222 C   0  0  0  0  0  0  0  0  0  0  0  0
   -5.0685    0.0695    8.7595 N   0  0  0  0  0  0  0  0  0  0  0  0
   -0.6160   -3.3092    7.9568 C   0  0  0  0  0  0  0  0  0  0  0  0
    0.4221   -2.3873    8.6306 C   0  0  0  0  0  0  0  0  0  0  0  0
    1.5509   -3.3197    9.0063 C   0  0  0  0  0  0  0  0  0  0  0  0
    2.1662   -3.6808    7.8873 C   0  0  0  0  0  0  0  0  0  0  0  0
    1.4586   -3.0056    6.7346 C   0  0  0  0  0  0  0  0  0  0  0  0
    1.0446   -1.6937    7.4136 C   0  0  0  0  0  0  0  0  0  0  0  0
    0.1128   -3.7593    6.6491 C   0  0  0  0  0  0  0  0  0  0  0  0
   -5.9078   -0.9275    1.8216 C   0  0  0  0  0  0  0  0  0  0  0  0
   -6.8291   -1.6934    1.1209 C   0  0  0  0  0  0  0  0  0  0  0  0
   -6.4498   -1.6828   -0.2497 C   0  0  0  0  0  0  0  0  0  0  0  0
   -5.3361   -0.7766   -0.4037 C   0  0  0  0  0  0  0  0  0  0  0  0
   -4.7371   -0.3715   -1.3815 O   0  0  0  0  0  0  0  0  0  0  0  0
   -5.0575   -0.3557    0.9080 N   0  0  0  0  0  0  0  0  0  0  0  0
   -4.0814    0.6668    1.1667 C   0  0  0  0  0  0  0  0  0  0  0  0
   -7.1230   -2.7165   -0.8918 C   0  0  0  0  0  0  0  0  0  0  0  0
   -8.0004   -3.2698    0.0067 N   0  0  0  0  0  0  0  0  0  0  0  0
   -9.0376   -4.2263   -0.2715 C   0  0  0  0  0  0  0  0  0  0  0  0
   -7.8650   -2.6924    1.2887 C   0  0  0  0  0  0  0  0  0  0  0  0
   -8.5365   -3.0260    2.2397 O   0  0  0  0  0  0  0  0  0  0  0  0
   -6.7773   -3.2191   -2.1772 C   0  0  0  0  0  0  0  0  0  0  0  0
   -6.5264   -4.5384   -2.5443 C   0  0  0  0  0  0  0  0  0  0  0  0
   -6.6730   -5.6773   -1.6328 C   0  0  0  0  0  0  0  0  0  0  0  0
   -7.3577   -6.8289   -2.0012 C   0  0  0  0  0  0  0  0  0  0  0  0
   -7.4621   -7.8731   -1.1005 C   0  0  0  0  0  0  0  0  0  0  0  0
   -6.8829   -7.7785    0.1537 C   0  0  0  0  0  0  0  0  0  0  0  0
   -6.1626   -6.6481    0.5241 C   0  0  0  0  0  0  0  0  0  0  0  0
   -5.4916   -6.5629    1.8675 C   0  0  0  0  0  0  0  0  0  0  0  0
   -5.7814   -5.2594    2.6119 C   0  0  0  0  0  0  0  0  0  0  0  0
   -6.0597   -5.6066   -0.3855 C   0  0  0  0  0  0  0  0  0  0  0  0
   -5.8280   -4.6030   -3.7589 C   0  0  0  0  0  0  0  0  0  0  0  0
   -4.9335   -5.9030   -4.5286 S   0  0  0  0  0  0  0  0  0  0  0  0
   -4.0191   -4.7219   -5.4189 C   0  0  0  0  0  0  0  0  0  0  0  0
   -2.7601   -4.6196   -6.0443 C   0  0  0  0  0  0  0  0  0  0  0  0
   -1.7782   -5.5660   -6.4210 C   0  0  0  0  0  0  0  0  0  0  0  0
   -0.4351   -5.1156   -6.6965 C   0  0  0  0  0  0  0  0  0  0  0  0
    0.3712   -6.1118   -7.0183 N   0  0  0  0  0  0  0  0  0  0  0  0
   -0.4717   -7.4945   -6.9850 S   0  0  0  0  0  0  0  0  0  0  0  0
   -1.9031   -6.8758   -6.5445 N   0  0  0  0  0  0  0  0  0  0  0  0
   -0.1054   -3.7588   -6.4596 C   0  0  0  0  0  0  0  0  0  0  0  0
    1.1103   -3.1422   -6.1066 C   0  0  0  0  0  0  0  0  0  0  0  0
    2.7480   -3.5971   -5.7372 S   0  0  0  0  0  0  0  0  0  0  0  0
    2.9439   -2.1225   -4.8035 C   0  0  0  0  0  0  0  0  0  0  0  0
    3.8586   -1.7436   -3.7811 C   0  0  0  0  0  0  0  0  0  0  0  0
    5.0823   -2.4873   -3.4901 C   0  0  0  0  0  0  0  0  0  0  0  0
    5.6280   -2.5557   -2.2104 C   0  0  0  0  0  0  0  0  0  0  0  0
    6.7905   -3.2685   -1.9889 C   0  0  0  0  0  0  0  0  0  0  0  0
    7.4206   -3.9261   -3.0302 C   0  0  0  0  0  0  0  0  0  0  0  0
    6.8895   -3.8771   -4.3130 C   0  0  0  0  0  0  0  0  0  0  0  0
    7.5819   -4.5636   -5.4554 C   0  0  0  0  0  0  0  0  0  0  0  0
    8.5971   -3.6256   -6.1105 C   0  0  0  0  0  0  0  0  0  0  0  0
    5.7302   -3.1501   -4.5305 C   0  0  0  0  0  0  0  0  0  0  0  0
    3.4300   -0.6065   -3.1368 C   0  0  0  0  0  0  0  0  0  0  0  0
    1.9652    0.0695   -3.8568 S   0  0  0  0  0  0  0  0  0  0  0  0
    1.8390   -1.2867   -4.9097 C   0  0  0  0  0  0  0  0  0  0  0  0
    0.7910   -1.8644   -5.6397 C   0  0  0  0  0  0  0  0  0  0  0  0
   -0.5542   -1.6461   -5.7302 N   0  0  0  0  0  0  0  0  0  0  0  0
   -1.1302   -2.8076   -6.1999 C   0  0  0  0  0  0  0  0  0  0  0  0
   -2.4794   -3.2287   -6.1352 C   0  0  0  0  0  0  0  0  0  0  0  0
   -3.5902   -2.5099   -5.7329 N   0  0  0  0  0  0  0  0  0  0  0  0
   -4.4864   -3.4166   -5.2257 C   0  0  0  0  0  0  0  0  0  0  0  0
   -5.5209   -3.3435   -4.2904 C   0  0  0  0  0  0  0  0  0  0  0  0
   -6.1849   -2.0607   -3.3528 S   0  0  0  0  0  0  0  0  0  0  0  0
   -4.0369   -1.2200   -6.2159 C   0  0  0  0  0  0  0  0  0  0  0  0
   -5.1830   -1.3814   -7.2138 C   0  0  0  0  0  0  0  0  0  0  0  0
   -1.1460   -0.5159   -5.0524 C   0  0  0  0  0  0  0  0  0  0  0  0
   -1.0540    0.7568   -5.8904 C   0  0  0  0  0  0  0  0  0  0  0  0
    3.7355    0.0230   -1.8724 C   0  0  0  0  0  0  0  0  0  0  0  0
    4.0350    1.3581   -1.6738 C   0  0  0  0  0  0  0  0  0  0  0  0
    4.5036    2.1900   -2.6657 N   0  0  0  0  0  0  0  0  0  0  0  0
    5.1717    1.6720   -3.7852 C   0  0  0  0  0  0  0  0  0  0  0  0
    6.1118    0.6534   -3.6521 C   0  0  0  0  0  0  0  0  0  0  0  0
    6.7432    0.1403   -4.7665 C   0  0  0  0  0  0  0  0  0  0  0  0
    6.4650    0.6293   -6.0376 C   0  0  0  0  0  0  0  0  0  0  0  0
    7.1302    0.0464   -7.2470 C   0  0  0  0  0  0  0  0  0  0  0  0
    5.5414    1.6599   -6.1596 C   0  0  0  0  0  0  0  0  0  0  0  0
    4.8998    2.1790   -5.0528 C   0  0  0  0  0  0  0  0  0  0  0  0
    4.1906    3.5625   -2.6150 C   0  0  0  0  0  0  0  0  0  0  0  0
    2.9025    3.9825   -2.2966 C   0  0  0  0  0  0  0  0  0  0  0  0
    2.6204    5.3296   -2.1949 C   0  0  0  0  0  0  0  0  0  0  0  0
    3.6039    6.2850   -2.4183 C   0  0  0  0  0  0  0  0  0  0  0  0
    3.2963    7.7404   -2.2480 C   0  0  0  0  0  0  0  0  0  0  0  0
    4.8761    5.8557   -2.7750 C   0  0  0  0  0  0  0  0  0  0  0  0
    5.1733    4.5108   -2.8733 C   0  0  0  0  0  0  0  0  0  0  0  0
    3.7666    1.7606   -0.3373 C   0  0  0  0  0  0  0  0  0  0  0  0
    3.7693    3.2818    0.4884 S   0  0  0  0  0  0  0  0  0  0  0  0
    2.9940    2.5397    1.8893 C   0  0  0  0  0  0  0  0  0  0  0  0
    2.7225    1.1681    1.6744 C   0  0  0  0  0  0  0  0  0  0  0  0
    1.9956    0.3609    2.5189 N   0  0  0  0  0  0  0  0  0  0  0  0
    0.7774    0.7946    3.0677 C   0  0  0  0  0  0  0  0  0  0  0  0
    0.3601    0.3205    4.3075 C   0  0  0  0  0  0  0  0  0  0  0  0
   -0.8348    0.7543    4.8486 C   0  0  0  0  0  0  0  0  0  0  0  0
   -1.6395    1.6651    4.1786 C   0  0  0  0  0  0  0  0  0  0  0  0
   -2.9221    2.1582    4.7762 C   0  0  0  0  0  0  0  0  0  0  0  0
   -1.2243    2.1167    2.9292 C   0  0  0  0  0  0  0  0  0  0  0  0
   -0.0366    1.6891    2.3740 C   0  0  0  0  0  0  0  0  0  0  0  0
    2.4021   -0.9743    2.6744 C   0  0  0  0  0  0  0  0  0  0  0  0
    3.7554   -1.2682    2.8261 C   0  0  0  0  0  0  0  0  0  0  0  0
    4.1635   -2.5741    3.0017 C   0  0  0  0  0  0  0  0  0  0  0  0
    3.2420   -3.6156    3.0384 C   0  0  0  0  0  0  0  0  0  0  0  0
    3.7025   -5.0238    3.2568 C   0  0  0  0  0  0  0  0  0  0  0  0
    1.8964   -3.3126    2.8730 C   0  0  0  0  0  0  0  0  0  0  0  0
    1.4747   -2.0108    2.6854 C   0  0  0  0  0  0  0  0  0  0  0  0
    3.2210    0.7425    0.4366 C   0  0  0  0  0  0  0  0  0  0  0  0
    3.1353   -0.7645   -0.4096 S   0  0  0  0  0  0  0  0  0  0  0  0
    2.7352    3.1627    3.1095 C   0  0  0  0  0  0  0  0  0  0  0  0
    2.9398    4.4625    3.5085 C   0  0  0  0  0  0  0  0  0  0  0  0
    3.3785    5.5680    2.6545 C   0  0  0  0  0  0  0  0  0  0  0  0
    3.6905    5.5236    1.4757 O   0  0  0  0  0  0  0  0  0  0  0  0
    3.3518    6.7761    3.4985 C   0  0  0  0  0  0  0  0  0  0  0  0
    3.6897    8.0718    3.1184 C   0  0  0  0  0  0  0  0  0  0  0  0
    3.5731    8.9990    4.1262 C   0  0  0  0  0  0  0  0  0  0  0  0
    3.1538    8.6595    5.4185 C   0  0  0  0  0  0  0  0  0  0  0  0
    2.8208    7.3830    5.8071 C   0  0  0  0  0  0  0  0  0  0  0  0
    2.9286    6.4250    4.7961 C   0  0  0  0  0  0  0  0  0  0  0  0
    2.6806    4.9827    4.8299 C   0  0  0  0  0  0  0  0  0  0  0  0
    2.2977    4.2703    5.9417 C   0  0  0  0  0  0  0  0  0  0  0  0
    2.0266    4.8429    7.2008 C   0  0  0  0  0  0  0  0  0  0  0  0
    1.7867    5.2327    8.2546 N   0  0  0  0  0  0  0  0  0  0  0  0
    2.1437    2.8729    6.0194 C   0  0  0  0  0  0  0  0  0  0  0  0
    2.0147    1.7430    6.1941 N   0  0  0  0  0  0  0  0  0  0  0  0
    3.2644   10.0799    5.9140 C   0  0  0  0  0  0  0  0  0  0  0  0
    1.9565   10.8930    6.0765 C   0  0  0  0  0  0  0  0  0  0  0  0
    0.9639   10.3070    5.1035 C   0  0  0  0  0  0  0  0  0  0  0  0
    1.3593   10.6285    3.8790 C   0  0  0  0  0  0  0  0  0  0  0  0
    2.6268   11.4375    4.0020 C   0  0  0  0  0  0  0  0  0  0  0  0
    2.3512   12.1732    5.3230 C   0  0  0  0  0  0  0  0  0  0  0  0
    3.7309   10.4586    4.4729 C   0  0  0  0  0  0  0  0  0  0  0  0
   -6.7464   -0.7021    3.7602 H   0  0  0  0  0  0  0  0  0  0  0  0
   -1.0499   -3.1712    3.7155 H   0  0  0  0  0  0  0  0  0  0  0  0
   -3.3119   -1.6266    7.9737 H   0  0  0  0  0  0  0  0  0  0  0  0
   -1.0026   -4.0771    8.6244 H   0  0  0  0  0  0  0  0  0  0  0  0
    0.0258   -1.7559    9.4208 H   0  0  0  0  0  0  0  0  0  0  0  0
    1.7480   -3.6502   10.0093 H   0  0  0  0  0  0  0  0  0  0  0  0
    2.9777   -4.3751    7.7698 H   0  0  0  0  0  0  0  0  0  0  0  0
    2.0023   -2.9387    5.7951 H   0  0  0  0  0  0  0  0  0  0  0  0
    1.8996   -1.0740    7.6750 H   0  0  0  0  0  0  0  0  0  0  0  0
    0.3338   -1.1013    6.8447 H   0  0  0  0  0  0  0  0  0  0  0  0
    0.2365   -4.8241    6.4588 H   0  0  0  0  0  0  0  0  0  0  0  0
   -3.8944    1.1748    0.2200 H   0  0  0  0  0  0  0  0  0  0  0  0
   -3.1421    0.2402    1.5226 H   0  0  0  0  0  0  0  0  0  0  0  0
   -4.4632    1.3772    1.9004 H   0  0  0  0  0  0  0  0  0  0  0  0
   -9.2828   -4.2069   -1.3317 H   0  0  0  0  0  0  0  0  0  0  0  0
   -9.9130   -3.9521    0.3194 H   0  0  0  0  0  0  0  0  0  0  0  0
   -8.7348   -5.2361    0.0117 H   0  0  0  0  0  0  0  0  0  0  0  0
   -7.8132   -6.8950   -2.9777 H   0  0  0  0  0  0  0  0  0  0  0  0
   -8.0017   -8.7667   -1.3765 H   0  0  0  0  0  0  0  0  0  0  0  0
   -6.9803   -8.5992    0.8497 H   0  0  0  0  0  0  0  0  0  0  0  0
   -5.8162   -7.4062    2.4806 H   0  0  0  0  0  0  0  0  0  0  0  0
   -4.4103   -6.6549    1.7243 H   0  0  0  0  0  0  0  0  0  0  0  0
   -5.3593   -5.3037    3.6139 H   0  0  0  0  0  0  0  0  0  0  0  0
   -5.3406   -4.4047    2.1034 H   0  0  0  0  0  0  0  0  0  0  0  0
   -6.8524   -5.0922    2.6989 H   0  0  0  0  0  0  0  0  0  0  0  0
   -5.4804   -4.7302   -0.1356 H   0  0  0  0  0  0  0  0  0  0  0  0
    5.1348   -2.0737   -1.3830 H   0  0  0  0  0  0  0  0  0  0  0  0
    7.2043   -3.3173   -0.9920 H   0  0  0  0  0  0  0  0  0  0  0  0
    8.3256   -4.4873   -2.8465 H   0  0  0  0  0  0  0  0  0  0  0  0
    8.0974   -5.4547   -5.0914 H   0  0  0  0  0  0  0  0  0  0  0  0
    6.8452   -4.8739   -6.1988 H   0  0  0  0  0  0  0  0  0  0  0  0
    9.3431   -3.3073   -5.3850 H   0  0  0  0  0  0  0  0  0  0  0  0
    9.1043   -4.1263   -6.9320 H   0  0  0  0  0  0  0  0  0  0  0  0
    8.0958   -2.7424   -6.4986 H   0  0  0  0  0  0  0  0  0  0  0  0
    5.3273   -3.0910   -5.5307 H   0  0  0  0  0  0  0  0  0  0  0  0
   -4.3763   -0.6158   -5.3675 H   0  0  0  0  0  0  0  0  0  0  0  0
   -3.2034   -0.7267   -6.7127 H   0  0  0  0  0  0  0  0  0  0  0  0
   -5.4693   -0.4069   -7.5997 H   0  0  0  0  0  0  0  0  0  0  0  0
   -6.0485   -1.8321   -6.7354 H   0  0  0  0  0  0  0  0  0  0  0  0
   -4.8761   -2.0116   -8.0461 H   0  0  0  0  0  0  0  0  0  0  0  0
   -2.1713   -0.7499   -4.7786 H   0  0  0  0  0  0  0  0  0  0  0  0
   -0.5893   -0.3610   -4.1224 H   0  0  0  0  0  0  0  0  0  0  0  0
   -1.5466    1.5734   -5.3711 H   0  0  0  0  0  0  0  0  0  0  0  0
   -0.0114    1.0239   -6.0457 H   0  0  0  0  0  0  0  0  0  0  0  0
   -1.5204    0.6281   -6.8648 H   0  0  0  0  0  0  0  0  0  0  0  0
    6.3450    0.2629   -2.6729 H   0  0  0  0  0  0  0  0  0  0  0  0
    7.4658   -0.6534   -4.6435 H   0  0  0  0  0  0  0  0  0  0  0  0
    7.1441    0.7616   -8.0660 H   0  0  0  0  0  0  0  0  0  0  0  0
    6.5868   -0.8383   -7.5818 H   0  0  0  0  0  0  0  0  0  0  0  0
    8.1524   -0.2497   -7.0211 H   0  0  0  0  0  0  0  0  0  0  0  0
    5.3133    2.0584   -7.1379 H   0  0  0  0  0  0  0  0  0  0  0  0
    4.1776    2.9748   -5.1625 H   0  0  0  0  0  0  0  0  0  0  0  0
    2.1280    3.2469   -2.1317 H   0  0  0  0  0  0  0  0  0  0  0  0
    1.6208    5.6455   -1.9337 H   0  0  0  0  0  0  0  0  0  0  0  0
    2.3237    7.9847   -2.6710 H   0  0  0  0  0  0  0  0  0  0  0  0
    3.2692    7.9819   -1.1854 H   0  0  0  0  0  0  0  0  0  0  0  0
    4.0541    8.3600   -2.7212 H   0  0  0  0  0  0  0  0  0  0  0  0
    5.6517    6.5839   -2.9634 H   0  0  0  0  0  0  0  0  0  0  0  0
    6.1682    4.1849   -3.1395 H   0  0  0  0  0  0  0  0  0  0  0  0
    0.9873   -0.3700    4.8469 H   0  0  0  0  0  0  0  0  0  0  0  0
   -1.1364    0.3965    5.8226 H   0  0  0  0  0  0  0  0  0  0  0  0
   -2.9947    3.2405    4.6859 H   0  0  0  0  0  0  0  0  0  0  0  0
   -3.7796    1.7269    4.2580 H   0  0  0  0  0  0  0  0  0  0  0  0
   -2.9865    1.8937    5.8291 H   0  0  0  0  0  0  0  0  0  0  0  0
   -1.8431    2.8143    2.3836 H   0  0  0  0  0  0  0  0  0  0  0  0
    0.2666    2.0481    1.4015 H   0  0  0  0  0  0  0  0  0  0  0  0
    4.4784   -0.4655    2.8173 H   0  0  0  0  0  0  0  0  0  0  0  0
    5.2147   -2.7908    3.1239 H   0  0  0  0  0  0  0  0  0  0  0  0
    2.8675   -5.7185    3.2146 H   0  0  0  0  0  0  0  0  0  0  0  0
    4.4304   -5.3072    2.4977 H   0  0  0  0  0  0  0  0  0  0  0  0
    4.1844   -5.1178    4.2299 H   0  0  0  0  0  0  0  0  0  0  0  0
    1.1688   -4.1116    2.8806 H   0  0  0  0  0  0  0  0  0  0  0  0
    0.4296   -1.7854    2.5362 H   0  0  0  0  0  0  0  0  0  0  0  0
    2.3193    2.4969    3.8557 H   0  0  0  0  0  0  0  0  0  0  0  0
    4.0158    8.2862    2.1125 H   0  0  0  0  0  0  0  0  0  0  0  0
    2.5036    7.1406    6.8075 H   0  0  0  0  0  0  0  0  0  0  0  0
    3.9598   10.2452    6.7345 H   0  0  0  0  0  0  0  0  0  0  0  0
    1.6163   11.0000    7.1030 H   0  0  0  0  0  0  0  0  0  0  0  0
    0.1346    9.6889    5.3939 H   0  0  0  0  0  0  0  0  0  0  0  0
    0.9261   10.3323    2.9416 H   0  0  0  0  0  0  0  0  0  0  0  0
    2.8966   12.0417    3.1395 H   0  0  0  0  0  0  0  0  0  0  0  0
    3.2299   12.6664    5.7364 H   0  0  0  0  0  0  0  0  0  0  0  0
    1.5316   12.8862    5.2454 H   0  0  0  0  0  0  0  0  0  0  0  0
    4.7304   10.8726    4.3536 H   0  0  0  0  0  0  0  0  0  0  0  0
  1  2  2  0  0  0  0
  2  3  1  0  0  0  0
  3  4  2  0  0  0  0
  3  5  1  0  0  0  0
  5  6  2  0  0  0  0
  6  7  1  0  0  0  0
  7  8  2  0  0  0  0
  8  9  1  0  0  0  0
  9 10  2  0  0  0  0
 10 11  1  0  0  0  0
 11 12  2  0  0  0  0
 12 13  1  0  0  0  0
 13 14  3  0  0  0  0
 12 15  1  0  0  0  0
 15 16  3  0  0  0  0
  8 17  1  0  0  0  0
 17 18  1  0  0  0  0
 18 19  1  0  0  0  0
 19 20  2  0  0  0  0
 20 21  1  0  0  0  0
 21 22  1  0  0  0  0
 21 23  1  0  0  0  0
  1 24  1  0  0  0  0
 24 25  2  0  0  0  0
 25 26  1  0  0  0  0
 26 27  1  0  0  0  0
 27 28  2  0  0  0  0
 27 29  1  0  0  0  0
 29 30  1  0  0  0  0
 26 31  2  0  0  0  0
 31 32  1  0  0  0  0
 32 33  1  0  0  0  0
 32 34  1  0  0  0  0
 34 35  2  0  0  0  0
 31 36  1  0  0  0  0
 36 37  2  0  0  0  0
 37 38  1  0  0  0  0
 38 39  2  0  0  0  0
 39 40  1  0  0  0  0
 40 41  2  0  0  0  0
 41 42  1  0  0  0  0
 42 43  1  0  0  0  0
 43 44  1  0  0  0  0
 42 45  2  0  0  0  0
 37 46  1  0  0  0  0
 46 47  1  0  0  0  0
 47 48  1  0  0  0  0
 48 49  1  0  0  0  0
 49 50  1  0  0  0  0
 50 51  1  0  0  0  0
 51 52  2  0  0  0  0
 52 53  1  0  0  0  0
 53 54  1  0  0  0  0
 51 55  1  0  0  0  0
 55 56  1  0  0  0  0
 56 57  1  0  0  0  0
 57 58  1  0  0  0  0
 58 59  1  0  0  0  0
 59 60  1  0  0  0  0
 60 61  2  0  0  0  0
 61 62  1  0  0  0  0
 62 63  2  0  0  0  0
 63 64  1  0  0  0  0
 64 65  1  0  0  0  0
 65 66  1  0  0  0  0
 64 67  2  0  0  0  0
 59 68  2  0  0  0  0
 68 69  1  0  0  0  0
 69 70  1  0  0  0  0
 70 71  1  0  0  0  0
 71 72  1  0  0  0  0
 72 73  1  0  0  0  0
 73 74  1  0  0  0  0
 74 75  1  0  0  0  0
 75 76  1  0  0  0  0
 76 77  1  0  0  0  0
 77 78  1  0  0  0  0
 75 79  1  0  0  0  0
 79 80  1  0  0  0  0
 72 81  1  0  0  0  0
 81 82  1  0  0  0  0
 68 83  1  0  0  0  0
 83 84  2  0  0  0  0
 84 85  1  0  0  0  0
 85 86  1  0  0  0  0
 86 87  2  0  0  0  0
 87 88  1  0  0  0  0
 88 89  2  0  0  0  0
 89 90  1  0  0  0  0
 89 91  1  0  0  0  0
 91 92  2  0  0  0  0
 85 93  1  0  0  0  0
 93 94  2  0  0  0  0
 94 95  1  0  0  0  0
 95 96  2  0  0  0  0
 96 97  1  0  0  0  0
 96 98  1  0  0  0  0
 98 99  2  0  0  0  0
 84100  1  0  0  0  0
100101  1  0  0  0  0
101102  1  0  0  0  0
102103  2  0  0  0  0
103104  1  0  0  0  0
104105  1  0  0  0  0
105106  2  0  0  0  0
106107  1  0  0  0  0
107108  2  0  0  0  0
108109  1  0  0  0  0
108110  1  0  0  0  0
110111  2  0  0  0  0
104112  1  0  0  0  0
112113  2  0  0  0  0
113114  1  0  0  0  0
114115  2  0  0  0  0
115116  1  0  0  0  0
115117  1  0  0  0  0
117118  2  0  0  0  0
103119  1  0  0  0  0
119120  1  0  0  0  0
102121  1  0  0  0  0
121122  2  0  0  0  0
122123  1  0  0  0  0
123124  2  0  0  0  0
123125  1  0  0  0  0
125126  2  0  0  0  0
126127  1  0  0  0  0
127128  2  0  0  0  0
128129  1  0  0  0  0
129130  2  0  0  0  0
130131  1  0  0  0  0
131132  2  0  0  0  0
132133  1  0  0  0  0
133134  3  0  0  0  0
132135  1  0  0  0  0
135136  3  0  0  0  0
128137  1  0  0  0  0
137138  1  0  0  0  0
138139  1  0  0  0  0
139140  2  0  0  0  0
140141  1  0  0  0  0
141142  1  0  0  0  0
141143  1  0  0  0  0
 11  2  1  0  0  0  0
 23 17  1  0  0  0  0
 29 24  1  0  0  0  0
 78 36  1  0  0  0  0
120 83  1  0  0  0  0
131122  1  0  0  0  0
143137  1  0  0  0  0
 10  5  1  0  0  0  0
 22 18  1  0  0  0  0
 34 25  1  0  0  0  0
 45 38  1  0  0  0  0
 77 46  2  0  0  0  0
 92 86  1  0  0  0  0
 99 93  1  0  0  0  0
119100  2  0  0  0  0
130125  1  0  0  0  0
142138  1  0  0  0  0
 23  7  1  0  0  0  0
 76 48  2  0  0  0  0
111105  1  0  0  0  0
118112  1  0  0  0  0
143127  1  0  0  0  0
 74 49  2  0  0  0  0
 54 50  2  0  0  0  0
 73 55  2  0  0  0  0
 71 56  2  0  0  0  0
 70 58  2  0  0  0  0
 67 60  1  0  0  0  0
  1144  1  0  0  0  0
  6145  1  0  0  0  0
  9146  1  0  0  0  0
 17147  1  0  0  0  0
 18148  1  0  0  0  0
 19149  1  0  0  0  0
 20150  1  0  0  0  0
 21151  1  0  0  0  0
 22152  1  0  0  0  0
 22153  1  0  0  0  0
 23154  1  0  0  0  0
 30155  1  0  0  0  0
 30156  1  0  0  0  0
 30157  1  0  0  0  0
 33158  1  0  0  0  0
 33159  1  0  0  0  0
 33160  1  0  0  0  0
 39161  1  0  0  0  0
 40162  1  0  0  0  0
 41163  1  0  0  0  0
 43164  1  0  0  0  0
 43165  1  0  0  0  0
 44166  1  0  0  0  0
 44167  1  0  0  0  0
 44168  1  0  0  0  0
 45169  1  0  0  0  0
 61170  1  0  0  0  0
 62171  1  0  0  0  0
 63172  1  0  0  0  0
 65173  1  0  0  0  0
 65174  1  0  0  0  0
 66175  1  0  0  0  0
 66176  1  0  0  0  0
 66177  1  0  0  0  0
 67178  1  0  0  0  0
 79179  1  0  0  0  0
 79180  1  0  0  0  0
 80181  1  0  0  0  0
 80182  1  0  0  0  0
 80183  1  0  0  0  0
 81184  1  0  0  0  0
 81185  1  0  0  0  0
 82186  1  0  0  0  0
 82187  1  0  0  0  0
 82188  1  0  0  0  0
 87189  1  0  0  0  0
 88190  1  0  0  0  0
 90191  1  0  0  0  0
 90192  1  0  0  0  0
 90193  1  0  0  0  0
 91194  1  0  0  0  0
 92195  1  0  0  0  0
 94196  1  0  0  0  0
 95197  1  0  0  0  0
 97198  1  0  0  0  0
 97199  1  0  0  0  0
 97200  1  0  0  0  0
 98201  1  0  0  0  0
 99202  1  0  0  0  0
106203  1  0  0  0  0
107204  1  0  0  0  0
109205  1  0  0  0  0
109206  1  0  0  0  0
109207  1  0  0  0  0
110208  1  0  0  0  0
111209  1  0  0  0  0
113210  1  0  0  0  0
114211  1  0  0  0  0
116212  1  0  0  0  0
116213  1  0  0  0  0
116214  1  0  0  0  0
117215  1  0  0  0  0
118216  1  0  0  0  0
121217  1  0  0  0  0
126218  1  0  0  0  0
129219  1  0  0  0  0
137220  1  0  0  0  0
138221  1  0  0  0  0
139222  1  0  0  0  0
140223  1  0  0  0  0
141224  1  0  0  0  0
142225  1  0  0  0  0
142226  1  0  0  0  0
143227  1  0  0  0  0
M  END
