
  xtb     02122211183D
 energy: -337.340643729739 gnorm: 0.000620188059 xtb: 6.4.1 (unknown)
202226  0     0  0            999 V2000
    5.9473   -6.7857    6.9860 C   0  0  0  0  0  0  0  0  0  0  0  0
    5.8411   -7.9156    7.7453 C   0  0  0  0  0  0  0  0  0  0  0  0
    5.2031   -9.1801    7.3414 C   0  0  0  0  0  0  0  0  0  0  0  0
    4.8015   -9.4887    6.2357 O   0  0  0  0  0  0  0  0  0  0  0  0
    5.1495  -10.0174    8.5508 C   0  0  0  0  0  0  0  0  0  0  0  0
    4.5650  -11.2768    8.6701 C   0  0  0  0  0  0  0  0  0  0  0  0
    4.6397  -11.8088    9.9346 C   0  0  0  0  0  0  0  0  0  0  0  0
    5.2557  -11.1398   11.0013 C   0  0  0  0  0  0  0  0  0  0  0  0
    5.8448   -9.9025   10.8945 C   0  0  0  0  0  0  0  0  0  0  0  0
    5.7765   -9.3395    9.6158 C   0  0  0  0  0  0  0  0  0  0  0  0
    6.2699   -8.0541    9.1263 C   0  0  0  0  0  0  0  0  0  0  0  0
    7.0281   -7.1682    9.8467 C   0  0  0  0  0  0  0  0  0  0  0  0
    7.5539   -5.9507    9.3652 C   0  0  0  0  0  0  0  0  0  0  0  0
    8.0342   -4.9527    9.0593 N   0  0  0  0  0  0  0  0  0  0  0  0
    7.4234   -7.3607   11.1874 C   0  0  0  0  0  0  0  0  0  0  0  0
    7.7800   -7.4473   12.2754 N   0  0  0  0  0  0  0  0  0  0  0  0
    4.9463  -12.2459   11.9788 C   0  0  0  0  0  0  0  0  0  0  0  0
    3.7715  -11.9977   12.9488 C   0  0  0  0  0  0  0  0  0  0  0  0
    3.4009  -13.3821   13.4296 C   0  0  0  0  0  0  0  0  0  0  0  0
    2.8196  -14.0176   12.4202 C   0  0  0  0  0  0  0  0  0  0  0  0
    2.7870  -13.0731   11.2403 C   0  0  0  0  0  0  0  0  0  0  0  0
    2.6136  -11.7382   11.9763 C   0  0  0  0  0  0  0  0  0  0  0  0
    4.2612  -12.9926   10.7895 C   0  0  0  0  0  0  0  0  0  0  0  0
    5.4994   -6.5135    5.6762 C   0  0  0  0  0  0  0  0  0  0  0  0
    5.6350   -5.2563    5.1168 C   0  0  0  0  0  0  0  0  0  0  0  0
    5.0933   -5.1377    3.8281 C   0  0  0  0  0  0  0  0  0  0  0  0
    5.0485   -3.9888    3.0083 C   0  0  0  0  0  0  0  0  0  0  0  0
    5.7029   -2.7371    3.4090 C   0  0  0  0  0  0  0  0  0  0  0  0
    7.0385   -2.7385    3.8098 C   0  0  0  0  0  0  0  0  0  0  0  0
    7.6517   -1.5542    4.1700 C   0  0  0  0  0  0  0  0  0  0  0  0
    6.9579   -0.3570    4.1356 C   0  0  0  0  0  0  0  0  0  0  0  0
    5.6337   -0.3455    3.7196 C   0  0  0  0  0  0  0  0  0  0  0  0
    4.6349    1.1132    3.6486 S   0  0  0  0  0  0  0  0  0  0  0  0
    5.8419    2.4702    3.4456 C   0  0  0  0  0  0  0  0  0  0  0  0
    6.5912    2.3750    2.1308 C   0  0  0  0  0  0  0  0  0  0  0  0
    5.0101   -1.5350    3.3637 C   0  0  0  0  0  0  0  0  0  0  0  0
    4.3654   -4.1150    1.8153 C   0  0  0  0  0  0  0  0  0  0  0  0
    3.7897   -5.3379    1.3765 C   0  0  0  0  0  0  0  0  0  0  0  0
    3.8824   -6.4929    2.1683 C   0  0  0  0  0  0  0  0  0  0  0  0
    3.3512   -7.7758    1.6829 C   0  0  0  0  0  0  0  0  0  0  0  0
    3.7518   -8.2628    0.4425 C   0  0  0  0  0  0  0  0  0  0  0  0
    3.2560   -9.4691   -0.0184 C   0  0  0  0  0  0  0  0  0  0  0  0
    2.3528  -10.1862    0.7394 C   0  0  0  0  0  0  0  0  0  0  0  0
    1.9404   -9.7008    1.9788 C   0  0  0  0  0  0  0  0  0  0  0  0
    0.7237  -10.6712    2.8149 S   0  0  0  0  0  0  0  0  0  0  0  0
    0.6982  -10.0557    4.5332 C   0  0  0  0  0  0  0  0  0  0  0  0
    1.9302  -10.4707    5.3117 C   0  0  0  0  0  0  0  0  0  0  0  0
    2.4468   -8.5009    2.4519 C   0  0  0  0  0  0  0  0  0  0  0  0
    4.5065   -6.3595    3.3988 C   0  0  0  0  0  0  0  0  0  0  0  0
    4.6884   -7.6219    4.5855 S   0  0  0  0  0  0  0  0  0  0  0  0
    3.1154   -5.1964    0.1420 C   0  0  0  0  0  0  0  0  0  0  0  0
    3.1764   -3.9329   -0.3738 C   0  0  0  0  0  0  0  0  0  0  0  0
    4.1002   -2.8450    0.6469 S   0  0  0  0  0  0  0  0  0  0  0  0
    2.5119   -3.4324   -1.5310 C   0  0  0  0  0  0  0  0  0  0  0  0
    1.9442   -4.1484   -2.5688 C   0  0  0  0  0  0  0  0  0  0  0  0
    2.1277   -5.5859   -2.7946 C   0  0  0  0  0  0  0  0  0  0  0  0
    3.4094   -6.1174   -2.9104 C   0  0  0  0  0  0  0  0  0  0  0  0
    3.5735   -7.4690   -3.1413 C   0  0  0  0  0  0  0  0  0  0  0  0
    2.4693   -8.2987   -3.2377 C   0  0  0  0  0  0  0  0  0  0  0  0
    1.1851   -7.7852   -3.1189 C   0  0  0  0  0  0  0  0  0  0  0  0
   -0.0122   -8.6896   -3.1457 C   0  0  0  0  0  0  0  0  0  0  0  0
   -0.4325   -9.0432   -1.7171 C   0  0  0  0  0  0  0  0  0  0  0  0
    1.0253   -6.4220   -2.9129 C   0  0  0  0  0  0  0  0  0  0  0  0
    1.1957   -3.3101   -3.4165 C   0  0  0  0  0  0  0  0  0  0  0  0
    0.2245   -3.6243   -4.8354 S   0  0  0  0  0  0  0  0  0  0  0  0
   -0.1730   -1.9393   -4.9049 C   0  0  0  0  0  0  0  0  0  0  0  0
   -0.9508   -1.0560   -5.6709 C   0  0  0  0  0  0  0  0  0  0  0  0
   -1.7033   -1.2654   -6.8467 C   0  0  0  0  0  0  0  0  0  0  0  0
   -2.3704   -0.1492   -7.4517 C   0  0  0  0  0  0  0  0  0  0  0  0
   -3.0035   -0.4808   -8.5660 N   0  0  0  0  0  0  0  0  0  0  0  0
   -2.7820   -2.0631   -8.8293 S   0  0  0  0  0  0  0  0  0  0  0  0
   -1.8701   -2.3864   -7.5309 N   0  0  0  0  0  0  0  0  0  0  0  0
   -2.3332    1.1025   -6.7997 C   0  0  0  0  0  0  0  0  0  0  0  0
   -3.0108    2.3006   -7.0733 C   0  0  0  0  0  0  0  0  0  0  0  0
   -4.1127    2.9539   -8.2388 S   0  0  0  0  0  0  0  0  0  0  0  0
   -4.1887    4.4313   -7.3050 C   0  0  0  0  0  0  0  0  0  0  0  0
   -4.9409    5.6122   -7.4516 C   0  0  0  0  0  0  0  0  0  0  0  0
   -5.9598    5.7833   -8.4853 C   0  0  0  0  0  0  0  0  0  0  0  0
   -5.6914    5.4327   -9.8054 C   0  0  0  0  0  0  0  0  0  0  0  0
   -6.6743    5.5706  -10.7662 C   0  0  0  0  0  0  0  0  0  0  0  0
   -7.9272    6.0475  -10.4223 C   0  0  0  0  0  0  0  0  0  0  0  0
   -8.2167    6.3904   -9.1076 C   0  0  0  0  0  0  0  0  0  0  0  0
   -9.5850    6.8703   -8.7168 C   0  0  0  0  0  0  0  0  0  0  0  0
  -10.4455    5.7017   -8.2330 C   0  0  0  0  0  0  0  0  0  0  0  0
   -7.2277    6.2478   -8.1471 C   0  0  0  0  0  0  0  0  0  0  0  0
   -4.6741    6.5061   -6.4236 C   0  0  0  0  0  0  0  0  0  0  0  0
   -3.5289    5.8618   -5.2530 S   0  0  0  0  0  0  0  0  0  0  0  0
   -3.3871    4.4006   -6.1604 C   0  0  0  0  0  0  0  0  0  0  0  0
   -2.7137    3.1806   -6.0301 C   0  0  0  0  0  0  0  0  0  0  0  0
   -1.8591    2.5875   -5.1412 N   0  0  0  0  0  0  0  0  0  0  0  0
   -1.6085    1.3007   -5.5889 C   0  0  0  0  0  0  0  0  0  0  0  0
   -0.8282    0.2313   -5.0741 C   0  0  0  0  0  0  0  0  0  0  0  0
    0.0425    0.1294   -3.9989 N   0  0  0  0  0  0  0  0  0  0  0  0
    0.4279   -1.1801   -3.8991 C   0  0  0  0  0  0  0  0  0  0  0  0
    1.2158   -1.9633   -3.0468 C   0  0  0  0  0  0  0  0  0  0  0  0
    2.1705   -1.7132   -1.6295 S   0  0  0  0  0  0  0  0  0  0  0  0
    0.8252    1.1472   -3.3326 C   0  0  0  0  0  0  0  0  0  0  0  0
    1.6308    1.9761   -4.3297 C   0  0  0  0  0  0  0  0  0  0  0  0
   -1.6750    3.1790   -3.8353 C   0  0  0  0  0  0  0  0  0  0  0  0
   -2.4244    2.4011   -2.7564 C   0  0  0  0  0  0  0  0  0  0  0  0
   -5.1459    7.8218   -6.1885 C   0  0  0  0  0  0  0  0  0  0  0  0
   -5.1067    8.4417   -4.5542 S   0  0  0  0  0  0  0  0  0  0  0  0
   -5.7493    9.9980   -5.0457 C   0  0  0  0  0  0  0  0  0  0  0  0
   -5.9629   10.0033   -6.4379 C   0  0  0  0  0  0  0  0  0  0  0  0
   -6.4158   10.9796   -7.3580 C   0  0  0  0  0  0  0  0  0  0  0  0
   -6.3971   10.5359   -8.6414 C   0  0  0  0  0  0  0  0  0  0  0  0
   -6.7956   11.2497   -9.8867 C   0  0  0  0  0  0  0  0  0  0  0  0
   -7.2632   12.6794   -9.6431 C   0  0  0  0  0  0  0  0  0  0  0  0
   -5.8238    8.8836   -8.7850 S   0  0  0  0  0  0  0  0  0  0  0  0
   -5.6211    8.7867   -7.0632 C   0  0  0  0  0  0  0  0  0  0  0  0
   -6.0214   11.0969   -4.2412 C   0  0  0  0  0  0  0  0  0  0  0  0
   -5.8487   11.2681   -2.8830 C   0  0  0  0  0  0  0  0  0  0  0  0
   -5.3075   10.2621   -1.9754 C   0  0  0  0  0  0  0  0  0  0  0  0
   -4.9363    9.1312   -2.2577 O   0  0  0  0  0  0  0  0  0  0  0  0
   -5.2942   10.8771   -0.6382 C   0  0  0  0  0  0  0  0  0  0  0  0
   -4.8762   10.3486    0.5473 C   0  0  0  0  0  0  0  0  0  0  0  0
   -4.9626   11.1345    1.7196 C   0  0  0  0  0  0  0  0  0  0  0  0
   -4.5479   10.6447    2.9728 C   0  0  0  0  0  0  0  0  0  0  0  0
   -4.6444   11.4223    4.0953 C   0  0  0  0  0  0  0  0  0  0  0  0
   -5.1596   12.7236    4.0119 C   0  0  0  0  0  0  0  0  0  0  0  0
   -5.5698   13.2297    2.8080 C   0  0  0  0  0  0  0  0  0  0  0  0
   -5.4844   12.4563    1.6334 C   0  0  0  0  0  0  0  0  0  0  0  0
   -5.9075   12.9771    0.3869 C   0  0  0  0  0  0  0  0  0  0  0  0
   -5.8136   12.2003   -0.7354 C   0  0  0  0  0  0  0  0  0  0  0  0
   -6.1609   12.4597   -2.1318 C   0  0  0  0  0  0  0  0  0  0  0  0
   -6.6849   13.6375   -2.6118 C   0  0  0  0  0  0  0  0  0  0  0  0
   -7.0175   13.8996   -3.9545 C   0  0  0  0  0  0  0  0  0  0  0  0
   -7.3094   14.1894   -5.0289 N   0  0  0  0  0  0  0  0  0  0  0  0
   -6.9642   14.7614   -1.8099 C   0  0  0  0  0  0  0  0  0  0  0  0
   -7.2147   15.7129   -1.2166 N   0  0  0  0  0  0  0  0  0  0  0  0
    6.4153   -5.9260    7.4511 H   0  0  0  0  0  0  0  0  0  0  0  0
    4.1037  -11.7548    7.8200 H   0  0  0  0  0  0  0  0  0  0  0  0
    6.3153   -9.4041   11.7252 H   0  0  0  0  0  0  0  0  0  0  0  0
    5.8053  -12.7086   12.4605 H   0  0  0  0  0  0  0  0  0  0  0  0
    3.9625  -11.2488   13.7125 H   0  0  0  0  0  0  0  0  0  0  0  0
    3.6418  -13.7628   14.4047 H   0  0  0  0  0  0  0  0  0  0  0  0
    2.4780  -15.0353   12.3835 H   0  0  0  0  0  0  0  0  0  0  0  0
    2.0801  -13.3045   10.4479 H   0  0  0  0  0  0  0  0  0  0  0  0
    2.7512  -10.8619   11.3454 H   0  0  0  0  0  0  0  0  0  0  0  0
    1.6545  -11.6716   12.4872 H   0  0  0  0  0  0  0  0  0  0  0  0
    4.6641  -13.9539   10.4764 H   0  0  0  0  0  0  0  0  0  0  0  0
    6.0949   -4.4399    5.6461 H   0  0  0  0  0  0  0  0  0  0  0  0
    7.5953   -3.6634    3.8163 H   0  0  0  0  0  0  0  0  0  0  0  0
    8.6845   -1.5586    4.4857 H   0  0  0  0  0  0  0  0  0  0  0  0
    7.4552    0.5504    4.4394 H   0  0  0  0  0  0  0  0  0  0  0  0
    5.2267    3.3692    3.4814 H   0  0  0  0  0  0  0  0  0  0  0  0
    6.5118    2.4751    4.3047 H   0  0  0  0  0  0  0  0  0  0  0  0
    7.2731    3.2173    2.0307 H   0  0  0  0  0  0  0  0  0  0  0  0
    7.1668    1.4529    2.0783 H   0  0  0  0  0  0  0  0  0  0  0  0
    5.8917    2.3897    1.2982 H   0  0  0  0  0  0  0  0  0  0  0  0
    3.9718   -1.5125    3.0701 H   0  0  0  0  0  0  0  0  0  0  0  0
    4.4631   -7.7050   -0.1478 H   0  0  0  0  0  0  0  0  0  0  0  0
    3.5782   -9.8513   -0.9748 H   0  0  0  0  0  0  0  0  0  0  0  0
    1.9567  -11.1271    0.3883 H   0  0  0  0  0  0  0  0  0  0  0  0
    0.5609   -8.9753    4.5132 H   0  0  0  0  0  0  0  0  0  0  0  0
   -0.2005  -10.5109    4.9516 H   0  0  0  0  0  0  0  0  0  0  0  0
    2.8333  -10.0344    4.8923 H   0  0  0  0  0  0  0  0  0  0  0  0
    2.0328  -11.5535    5.2984 H   0  0  0  0  0  0  0  0  0  0  0  0
    1.8420  -10.1411    6.3457 H   0  0  0  0  0  0  0  0  0  0  0  0
    2.1349   -8.0976    3.4020 H   0  0  0  0  0  0  0  0  0  0  0  0
    2.5641   -5.9949   -0.3186 H   0  0  0  0  0  0  0  0  0  0  0  0
    4.2665   -5.4653   -2.8267 H   0  0  0  0  0  0  0  0  0  0  0  0
    4.5677   -7.8790   -3.2446 H   0  0  0  0  0  0  0  0  0  0  0  0
    2.6038   -9.3563   -3.4135 H   0  0  0  0  0  0  0  0  0  0  0  0
   -0.8412   -8.1940   -3.6548 H   0  0  0  0  0  0  0  0  0  0  0  0
    0.2259   -9.6055   -3.6895 H   0  0  0  0  0  0  0  0  0  0  0  0
    0.3872   -9.5232   -1.1866 H   0  0  0  0  0  0  0  0  0  0  0  0
   -1.2844   -9.7187   -1.7264 H   0  0  0  0  0  0  0  0  0  0  0  0
   -0.7085   -8.1450   -1.1692 H   0  0  0  0  0  0  0  0  0  0  0  0
    0.0320   -6.0053   -2.8263 H   0  0  0  0  0  0  0  0  0  0  0  0
   -4.7105    5.0729  -10.0756 H   0  0  0  0  0  0  0  0  0  0  0  0
   -6.4615    5.3060  -11.7913 H   0  0  0  0  0  0  0  0  0  0  0  0
   -8.6893    6.1548  -11.1808 H   0  0  0  0  0  0  0  0  0  0  0  0
  -10.0688    7.3440   -9.5733 H   0  0  0  0  0  0  0  0  0  0  0  0
   -9.5016    7.6112   -7.9184 H   0  0  0  0  0  0  0  0  0  0  0  0
   -9.9862    5.2254   -7.3697 H   0  0  0  0  0  0  0  0  0  0  0  0
  -11.4366    6.0499   -7.9516 H   0  0  0  0  0  0  0  0  0  0  0  0
  -10.5483    4.9572   -9.0193 H   0  0  0  0  0  0  0  0  0  0  0  0
   -7.4436    6.4966   -7.1173 H   0  0  0  0  0  0  0  0  0  0  0  0
    0.1925    1.7750   -2.7047 H   0  0  0  0  0  0  0  0  0  0  0  0
    1.5124    0.6208   -2.6655 H   0  0  0  0  0  0  0  0  0  0  0  0
    2.3258    1.3360   -4.8684 H   0  0  0  0  0  0  0  0  0  0  0  0
    2.1990    2.7388   -3.8038 H   0  0  0  0  0  0  0  0  0  0  0  0
    0.9824    2.4582   -5.0576 H   0  0  0  0  0  0  0  0  0  0  0  0
   -0.6145    3.2729   -3.6027 H   0  0  0  0  0  0  0  0  0  0  0  0
   -2.0806    4.1920   -3.8933 H   0  0  0  0  0  0  0  0  0  0  0  0
   -2.1045    1.3622   -2.7249 H   0  0  0  0  0  0  0  0  0  0  0  0
   -3.4922    2.4211   -2.9608 H   0  0  0  0  0  0  0  0  0  0  0  0
   -2.2504    2.8544   -1.7843 H   0  0  0  0  0  0  0  0  0  0  0  0
   -6.7349   11.9648   -7.0722 H   0  0  0  0  0  0  0  0  0  0  0  0
   -7.5927   10.6780  -10.3734 H   0  0  0  0  0  0  0  0  0  0  0  0
   -5.9450   11.2516  -10.5756 H   0  0  0  0  0  0  0  0  0  0  0  0
   -8.1307   12.6951   -8.9886 H   0  0  0  0  0  0  0  0  0  0  0  0
   -7.5371   13.1425  -10.5876 H   0  0  0  0  0  0  0  0  0  0  0  0
   -6.4732   13.2704   -9.1871 H   0  0  0  0  0  0  0  0  0  0  0  0
   -6.4291   11.9364   -4.7882 H   0  0  0  0  0  0  0  0  0  0  0  0
   -4.4847    9.3431    0.5930 H   0  0  0  0  0  0  0  0  0  0  0  0
   -4.1518    9.6411    3.0309 H   0  0  0  0  0  0  0  0  0  0  0  0
   -4.3246   11.0382    5.0526 H   0  0  0  0  0  0  0  0  0  0  0  0
   -5.2302   13.3245    4.9064 H   0  0  0  0  0  0  0  0  0  0  0  0
   -5.9669   14.2319    2.7387 H   0  0  0  0  0  0  0  0  0  0  0  0
   -6.2964   13.9824    0.3568 H   0  0  0  0  0  0  0  0  0  0  0  0
  1  2  2  0  0  0  0
  2  3  1  0  0  0  0
  3  4  2  0  0  0  0
  3  5  1  0  0  0  0
  5  6  2  0  0  0  0
  6  7  1  0  0  0  0
  7  8  2  0  0  0  0
  8  9  1  0  0  0  0
  9 10  2  0  0  0  0
 10 11  1  0  0  0  0
 11 12  2  0  0  0  0
 12 13  1  0  0  0  0
 13 14  3  0  0  0  0
 12 15  1  0  0  0  0
 15 16  3  0  0  0  0
  8 17  1  0  0  0  0
 17 18  1  0  0  0  0
 18 19  1  0  0  0  0
 19 20  2  0  0  0  0
 20 21  1  0  0  0  0
 21 22  1  0  0  0  0
 21 23  1  0  0  0  0
  1 24  1  0  0  0  0
 24 25  2  0  0  0  0
 25 26  1  0  0  0  0
 26 27  2  0  0  0  0
 27 28  1  0  0  0  0
 28 29  2  0  0  0  0
 29 30  1  0  0  0  0
 30 31  2  0  0  0  0
 31 32  1  0  0  0  0
 32 33  1  0  0  0  0
 33 34  1  0  0  0  0
 34 35  1  0  0  0  0
 32 36  2  0  0  0  0
 27 37  1  0  0  0  0
 37 38  2  0  0  0  0
 38 39  1  0  0  0  0
 39 40  1  0  0  0  0
 40 41  2  0  0  0  0
 41 42  1  0  0  0  0
 42 43  2  0  0  0  0
 43 44  1  0  0  0  0
 44 45  1  0  0  0  0
 45 46  1  0  0  0  0
 46 47  1  0  0  0  0
 44 48  2  0  0  0  0
 39 49  2  0  0  0  0
 49 50  1  0  0  0  0
 38 51  1  0  0  0  0
 51 52  2  0  0  0  0
 52 53  1  0  0  0  0
 52 54  1  0  0  0  0
 54 55  2  0  0  0  0
 55 56  1  0  0  0  0
 56 57  2  0  0  0  0
 57 58  1  0  0  0  0
 58 59  2  0  0  0  0
 59 60  1  0  0  0  0
 60 61  1  0  0  0  0
 61 62  1  0  0  0  0
 60 63  2  0  0  0  0
 55 64  1  0  0  0  0
 64 65  1  0  0  0  0
 65 66  1  0  0  0  0
 66 67  1  0  0  0  0
 67 68  1  0  0  0  0
 68 69  1  0  0  0  0
 69 70  2  0  0  0  0
 70 71  1  0  0  0  0
 71 72  1  0  0  0  0
 69 73  1  0  0  0  0
 73 74  1  0  0  0  0
 74 75  1  0  0  0  0
 75 76  1  0  0  0  0
 76 77  1  0  0  0  0
 77 78  1  0  0  0  0
 78 79  2  0  0  0  0
 79 80  1  0  0  0  0
 80 81  2  0  0  0  0
 81 82  1  0  0  0  0
 82 83  1  0  0  0  0
 83 84  1  0  0  0  0
 82 85  2  0  0  0  0
 77 86  2  0  0  0  0
 86 87  1  0  0  0  0
 87 88  1  0  0  0  0
 88 89  1  0  0  0  0
 89 90  1  0  0  0  0
 90 91  1  0  0  0  0
 91 92  1  0  0  0  0
 92 93  1  0  0  0  0
 93 94  1  0  0  0  0
 94 95  1  0  0  0  0
 95 96  1  0  0  0  0
 93 97  1  0  0  0  0
 97 98  1  0  0  0  0
 90 99  1  0  0  0  0
 99100  1  0  0  0  0
 86101  1  0  0  0  0
101102  1  0  0  0  0
102103  1  0  0  0  0
103104  2  0  0  0  0
104105  1  0  0  0  0
105106  2  0  0  0  0
106107  1  0  0  0  0
107108  1  0  0  0  0
106109  1  0  0  0  0
109110  1  0  0  0  0
103111  1  0  0  0  0
111112  2  0  0  0  0
112113  1  0  0  0  0
113114  2  0  0  0  0
113115  1  0  0  0  0
115116  2  0  0  0  0
116117  1  0  0  0  0
117118  2  0  0  0  0
118119  1  0  0  0  0
119120  2  0  0  0  0
120121  1  0  0  0  0
121122  2  0  0  0  0
122123  1  0  0  0  0
123124  2  0  0  0  0
124125  1  0  0  0  0
125126  2  0  0  0  0
126127  1  0  0  0  0
127128  3  0  0  0  0
126129  1  0  0  0  0
129130  3  0  0  0  0
 11  2  1  0  0  0  0
 23 17  1  0  0  0  0
 50 24  1  0  0  0  0
 96 54  1  0  0  0  0
110101  2  0  0  0  0
125112  1  0  0  0  0
 10  5  1  0  0  0  0
 22 18  1  0  0  0  0
 49 26  1  0  0  0  0
 63 56  1  0  0  0  0
 95 64  2  0  0  0  0
110104  1  0  0  0  0
124115  1  0  0  0  0
 23  7  1  0  0  0  0
 36 28  1  0  0  0  0
 53 37  1  0  0  0  0
 94 66  2  0  0  0  0
122117  1  0  0  0  0
 48 40  1  0  0  0  0
 92 67  2  0  0  0  0
 72 68  2  0  0  0  0
 91 73  2  0  0  0  0
 89 74  2  0  0  0  0
 88 76  2  0  0  0  0
 85 78  1  0  0  0  0
  1131  1  0  0  0  0
  6132  1  0  0  0  0
  9133  1  0  0  0  0
 17134  1  0  0  0  0
 18135  1  0  0  0  0
 19136  1  0  0  0  0
 20137  1  0  0  0  0
 21138  1  0  0  0  0
 22139  1  0  0  0  0
 22140  1  0  0  0  0
 23141  1  0  0  0  0
 25142  1  0  0  0  0
 29143  1  0  0  0  0
 30144  1  0  0  0  0
 31145  1  0  0  0  0
 34146  1  0  0  0  0
 34147  1  0  0  0  0
 35148  1  0  0  0  0
 35149  1  0  0  0  0
 35150  1  0  0  0  0
 36151  1  0  0  0  0
 41152  1  0  0  0  0
 42153  1  0  0  0  0
 43154  1  0  0  0  0
 46155  1  0  0  0  0
 46156  1  0  0  0  0
 47157  1  0  0  0  0
 47158  1  0  0  0  0
 47159  1  0  0  0  0
 48160  1  0  0  0  0
 51161  1  0  0  0  0
 57162  1  0  0  0  0
 58163  1  0  0  0  0
 59164  1  0  0  0  0
 61165  1  0  0  0  0
 61166  1  0  0  0  0
 62167  1  0  0  0  0
 62168  1  0  0  0  0
 62169  1  0  0  0  0
 63170  1  0  0  0  0
 79171  1  0  0  0  0
 80172  1  0  0  0  0
 81173  1  0  0  0  0
 83174  1  0  0  0  0
 83175  1  0  0  0  0
 84176  1  0  0  0  0
 84177  1  0  0  0  0
 84178  1  0  0  0  0
 85179  1  0  0  0  0
 97180  1  0  0  0  0
 97181  1  0  0  0  0
 98182  1  0  0  0  0
 98183  1  0  0  0  0
 98184  1  0  0  0  0
 99185  1  0  0  0  0
 99186  1  0  0  0  0
100187  1  0  0  0  0
100188  1  0  0  0  0
100189  1  0  0  0  0
105190  1  0  0  0  0
107191  1  0  0  0  0
107192  1  0  0  0  0
108193  1  0  0  0  0
108194  1  0  0  0  0
108195  1  0  0  0  0
111196  1  0  0  0  0
116197  1  0  0  0  0
118198  1  0  0  0  0
119199  1  0  0  0  0
120200  1  0  0  0  0
121201  1  0  0  0  0
123202  1  0  0  0  0
M  END
