
  xtb     02152207123D
 energy: -354.927917864457 gnorm: 0.000541864544 xtb: 6.4.1 (unknown)
211237  0     0  0            999 V2000
   -0.7714  -11.6347   -5.7841 C   0  0  0  0  0  0  0  0  0  0  0  0
   -0.1135  -12.2375   -4.7569 C   0  0  0  0  0  0  0  0  0  0  0  0
    0.3094  -13.6629   -4.8611 C   0  0  0  0  0  0  0  0  0  0  0  0
   -0.0057  -14.4491   -5.7241 O   0  0  0  0  0  0  0  0  0  0  0  0
    1.2359  -13.8778   -3.7325 C   0  0  0  0  0  0  0  0  0  0  0  0
    1.9737  -15.0275   -3.4563 C   0  0  0  0  0  0  0  0  0  0  0  0
    2.7670  -14.9293   -2.3383 C   0  0  0  0  0  0  0  0  0  0  0  0
    2.8311  -13.7706   -1.5522 C   0  0  0  0  0  0  0  0  0  0  0  0
    2.1032  -12.6325   -1.8059 C   0  0  0  0  0  0  0  0  0  0  0  0
    1.2831  -12.7147   -2.9347 C   0  0  0  0  0  0  0  0  0  0  0  0
    0.3412  -11.7394   -3.4787 C   0  0  0  0  0  0  0  0  0  0  0  0
   -0.1963  -10.6803   -2.7915 C   0  0  0  0  0  0  0  0  0  0  0  0
    0.2373  -10.2616   -1.5173 C   0  0  0  0  0  0  0  0  0  0  0  0
    0.5668   -9.8582   -0.4940 N   0  0  0  0  0  0  0  0  0  0  0  0
   -1.3156   -9.9382   -3.2233 C   0  0  0  0  0  0  0  0  0  0  0  0
   -2.2611   -9.3377   -3.4752 N   0  0  0  0  0  0  0  0  0  0  0  0
    3.8365  -14.3727   -0.6030 C   0  0  0  0  0  0  0  0  0  0  0  0
    5.3045  -13.9289   -0.7765 C   0  0  0  0  0  0  0  0  0  0  0  0
    6.0932  -15.0059   -0.0671 C   0  0  0  0  0  0  0  0  0  0  0  0
    6.0292  -16.1060   -0.8063 C   0  0  0  0  0  0  0  0  0  0  0  0
    5.1968  -15.7910   -2.0282 C   0  0  0  0  0  0  0  0  0  0  0  0
    5.5781  -14.3194   -2.2348 C   0  0  0  0  0  0  0  0  0  0  0  0
    3.7610  -15.6668   -1.4755 C   0  0  0  0  0  0  0  0  0  0  0  0
   -0.9697  -10.2520   -6.0273 C   0  0  0  0  0  0  0  0  0  0  0  0
   -2.1045   -9.6676   -6.5731 C   0  0  0  0  0  0  0  0  0  0  0  0
   -1.9458   -8.2615   -6.5407 C   0  0  0  0  0  0  0  0  0  0  0  0
   -0.6273   -7.9665   -6.0430 C   0  0  0  0  0  0  0  0  0  0  0  0
   -0.0102   -6.9299   -5.8976 O   0  0  0  0  0  0  0  0  0  0  0  0
   -0.0879   -9.2327   -5.7322 N   0  0  0  0  0  0  0  0  0  0  0  0
    1.2937   -9.3598   -5.3562 C   0  0  0  0  0  0  0  0  0  0  0  0
   -3.1342   -7.6703   -6.9689 C   0  0  0  0  0  0  0  0  0  0  0  0
   -4.0177   -8.6804   -7.2600 N   0  0  0  0  0  0  0  0  0  0  0  0
   -5.4280   -8.5661   -7.5149 C   0  0  0  0  0  0  0  0  0  0  0  0
   -3.4538   -9.9551   -7.0092 C   0  0  0  0  0  0  0  0  0  0  0  0
   -4.0639  -10.9885   -7.1577 O   0  0  0  0  0  0  0  0  0  0  0  0
   -3.3883   -6.2749   -7.0010 C   0  0  0  0  0  0  0  0  0  0  0  0
   -4.2577   -5.5047   -7.7716 C   0  0  0  0  0  0  0  0  0  0  0  0
   -4.9425   -5.9415   -8.9850 C   0  0  0  0  0  0  0  0  0  0  0  0
   -4.2910   -6.7685   -9.8999 C   0  0  0  0  0  0  0  0  0  0  0  0
   -4.9181   -7.1143  -11.0815 C   0  0  0  0  0  0  0  0  0  0  0  0
   -6.1894   -6.6427  -11.3629 C   0  0  0  0  0  0  0  0  0  0  0  0
   -6.8525   -5.8175  -10.4632 C   0  0  0  0  0  0  0  0  0  0  0  0
   -8.2068   -5.2530  -10.7785 C   0  0  0  0  0  0  0  0  0  0  0  0
   -8.0696   -3.8332  -11.3326 C   0  0  0  0  0  0  0  0  0  0  0  0
   -6.2180   -5.4713   -9.2799 C   0  0  0  0  0  0  0  0  0  0  0  0
   -4.2518   -4.1669   -7.3447 C   0  0  0  0  0  0  0  0  0  0  0  0
   -5.1119   -2.7404   -7.8848 S   0  0  0  0  0  0  0  0  0  0  0  0
   -4.2673   -1.8075   -6.6972 C   0  0  0  0  0  0  0  0  0  0  0  0
   -4.1835   -0.4816   -6.2438 C   0  0  0  0  0  0  0  0  0  0  0  0
   -4.7913    0.7063   -6.7052 C   0  0  0  0  0  0  0  0  0  0  0  0
   -4.4528    1.9502   -6.0733 C   0  0  0  0  0  0  0  0  0  0  0  0
   -5.0571    2.9842   -6.6370 N   0  0  0  0  0  0  0  0  0  0  0  0
   -5.9763    2.4409   -7.8540 S   0  0  0  0  0  0  0  0  0  0  0  0
   -5.6395    0.8634   -7.7093 N   0  0  0  0  0  0  0  0  0  0  0  0
   -3.6168    1.9330   -4.9351 C   0  0  0  0  0  0  0  0  0  0  0  0
   -3.2777    2.9432   -4.0220 C   0  0  0  0  0  0  0  0  0  0  0  0
   -3.5558    4.6347   -3.7789 S   0  0  0  0  0  0  0  0  0  0  0  0
   -2.7095    4.5265   -2.2544 C   0  0  0  0  0  0  0  0  0  0  0  0
   -2.4480    5.4780   -1.2497 C   0  0  0  0  0  0  0  0  0  0  0  0
   -2.9671    6.8479   -1.3151 C   0  0  0  0  0  0  0  0  0  0  0  0
   -3.7694    7.3490   -0.2933 C   0  0  0  0  0  0  0  0  0  0  0  0
   -4.3001    8.6197   -0.3976 C   0  0  0  0  0  0  0  0  0  0  0  0
   -4.0342    9.3986   -1.5110 C   0  0  0  0  0  0  0  0  0  0  0  0
   -3.2392    8.9122   -2.5398 C   0  0  0  0  0  0  0  0  0  0  0  0
   -2.9944    9.7255   -3.7772 C   0  0  0  0  0  0  0  0  0  0  0  0
   -4.0035    9.3487   -4.8639 C   0  0  0  0  0  0  0  0  0  0  0  0
   -2.7182    7.6304   -2.4351 C   0  0  0  0  0  0  0  0  0  0  0  0
   -1.7317    4.9186   -0.2072 C   0  0  0  0  0  0  0  0  0  0  0  0
   -1.4214    3.2073   -0.4475 S   0  0  0  0  0  0  0  0  0  0  0  0
   -2.2363    3.2438   -1.9706 C   0  0  0  0  0  0  0  0  0  0  0  0
   -2.5616    2.3353   -2.9869 C   0  0  0  0  0  0  0  0  0  0  0  0
   -2.4282    0.9958   -3.2353 N   0  0  0  0  0  0  0  0  0  0  0  0
   -3.0547    0.7233   -4.4379 C   0  0  0  0  0  0  0  0  0  0  0  0
   -3.2404   -0.4736   -5.1760 C   0  0  0  0  0  0  0  0  0  0  0  0
   -2.7326   -1.7527   -5.0235 N   0  0  0  0  0  0  0  0  0  0  0  0
   -3.3673   -2.5571   -5.9358 C   0  0  0  0  0  0  0  0  0  0  0  0
   -3.3544   -3.9074   -6.3005 C   0  0  0  0  0  0  0  0  0  0  0  0
   -2.4985   -5.3223   -5.8213 S   0  0  0  0  0  0  0  0  0  0  0  0
   -1.4324   -2.1691   -4.5399 C   0  0  0  0  0  0  0  0  0  0  0  0
   -0.4146   -2.2317   -5.6785 C   0  0  0  0  0  0  0  0  0  0  0  0
   -2.0116    0.1064   -2.1739 C   0  0  0  0  0  0  0  0  0  0  0  0
   -0.4979    0.1376   -1.9593 C   0  0  0  0  0  0  0  0  0  0  0  0
   -1.1745    5.5558    0.9393 C   0  0  0  0  0  0  0  0  0  0  0  0
   -1.0044    6.8924    1.1664 C   0  0  0  0  0  0  0  0  0  0  0  0
   -0.3920    7.1842    2.4074 C   0  0  0  0  0  0  0  0  0  0  0  0
   -0.0618    8.4518    2.9181 C   0  0  0  0  0  0  0  0  0  0  0  0
   -0.4442    9.6800    2.2112 C   0  0  0  0  0  0  0  0  0  0  0  0
   -1.7576    9.8664    1.7784 C   0  0  0  0  0  0  0  0  0  0  0  0
   -2.1238   11.0174    1.1209 C   0  0  0  0  0  0  0  0  0  0  0  0
   -1.1866   12.0220    0.8677 C   0  0  0  0  0  0  0  0  0  0  0  0
   -1.6525   13.1098    0.2039 O   0  0  0  0  0  0  0  0  0  0  0  0
   -0.7717   14.1856   -0.0582 C   0  0  0  0  0  0  0  0  0  0  0  0
   -1.5622   15.2631   -0.7834 C   0  0  0  0  0  0  0  0  0  0  0  0
    0.1236   11.8448    1.3010 C   0  0  0  0  0  0  0  0  0  0  0  0
    0.4817   10.6870    1.9674 C   0  0  0  0  0  0  0  0  0  0  0  0
    0.6194    8.4709    4.1248 C   0  0  0  0  0  0  0  0  0  0  0  0
    0.9691    7.2926    4.8419 C   0  0  0  0  0  0  0  0  0  0  0  0
    0.6351    6.0207    4.3273 C   0  0  0  0  0  0  0  0  0  0  0  0
    1.0340    4.7846    5.0057 C   0  0  0  0  0  0  0  0  0  0  0  0
    0.1269    3.7490    5.1996 C   0  0  0  0  0  0  0  0  0  0  0  0
    0.5038    2.5675    5.8107 C   0  0  0  0  0  0  0  0  0  0  0  0
    1.8161    2.3909    6.2382 C   0  0  0  0  0  0  0  0  0  0  0  0
    2.3203    1.2728    6.8214 O   0  0  0  0  0  0  0  0  0  0  0  0
    1.4733    0.1782    7.1081 C   0  0  0  0  0  0  0  0  0  0  0  0
    0.6260    0.4004    8.3577 C   0  0  0  0  0  0  0  0  0  0  0  0
    2.7322    3.4286    6.0426 C   0  0  0  0  0  0  0  0  0  0  0  0
    2.3485    4.6033    5.4401 C   0  0  0  0  0  0  0  0  0  0  0  0
   -0.0553    6.0090    3.1283 C   0  0  0  0  0  0  0  0  0  0  0  0
   -0.5562    4.5796    2.2596 S   0  0  0  0  0  0  0  0  0  0  0  0
    1.6018    7.5787    6.0662 C   0  0  0  0  0  0  0  0  0  0  0  0
    1.7702    8.9223    6.3041 C   0  0  0  0  0  0  0  0  0  0  0  0
    1.1147    9.8975    4.9838 S   0  0  0  0  0  0  0  0  0  0  0  0
    2.3693    9.6437    7.3598 C   0  0  0  0  0  0  0  0  0  0  0  0
    2.9732    9.2407    8.5184 C   0  0  0  0  0  0  0  0  0  0  0  0
    3.1324    7.8707    9.0594 C   0  0  0  0  0  0  0  0  0  0  0  0
    2.8145    6.8097    8.5602 O   0  0  0  0  0  0  0  0  0  0  0  0
    3.7747    8.0261   10.3771 C   0  0  0  0  0  0  0  0  0  0  0  0
    4.0963    7.0018   11.2660 C   0  0  0  0  0  0  0  0  0  0  0  0
    4.6863    7.4351   12.4281 C   0  0  0  0  0  0  0  0  0  0  0  0
    4.9320    8.7899   12.6898 C   0  0  0  0  0  0  0  0  0  0  0  0
    4.6166    9.8088   11.8237 C   0  0  0  0  0  0  0  0  0  0  0  0
    4.0219    9.3885   10.6286 C   0  0  0  0  0  0  0  0  0  0  0  0
    3.5637   10.1635    9.4784 C   0  0  0  0  0  0  0  0  0  0  0  0
    3.7165   11.5195    9.3429 C   0  0  0  0  0  0  0  0  0  0  0  0
    3.3353   12.3124    8.2388 C   0  0  0  0  0  0  0  0  0  0  0  0
    3.0796   13.0532    7.3982 N   0  0  0  0  0  0  0  0  0  0  0  0
    4.3210   12.3557   10.3061 C   0  0  0  0  0  0  0  0  0  0  0  0
    4.7993   13.1063   11.0317 N   0  0  0  0  0  0  0  0  0  0  0  0
    5.5470    8.5009   14.0365 C   0  0  0  0  0  0  0  0  0  0  0  0
    7.0872    8.5603   14.1171 C   0  0  0  0  0  0  0  0  0  0  0  0
    7.4136    7.7844   15.3727 C   0  0  0  0  0  0  0  0  0  0  0  0
    7.1814    6.5015   15.1259 C   0  0  0  0  0  0  0  0  0  0  0  0
    6.6943    6.3888   13.6993 C   0  0  0  0  0  0  0  0  0  0  0  0
    7.4942    7.5291   13.0566 C   0  0  0  0  0  0  0  0  0  0  0  0
    5.2736    6.9905   13.7447 C   0  0  0  0  0  0  0  0  0  0  0  0
   -1.2043  -12.3009   -6.5241 H   0  0  0  0  0  0  0  0  0  0  0  0
    1.8946  -15.9007   -4.0847 H   0  0  0  0  0  0  0  0  0  0  0  0
    2.1591  -11.7471   -1.1942 H   0  0  0  0  0  0  0  0  0  0  0  0
    3.5291  -14.4273    0.4395 H   0  0  0  0  0  0  0  0  0  0  0  0
    5.5071  -12.9018   -0.4854 H   0  0  0  0  0  0  0  0  0  0  0  0
    6.5540  -14.8768    0.8946 H   0  0  0  0  0  0  0  0  0  0  0  0
    6.4258  -17.0795   -0.5853 H   0  0  0  0  0  0  0  0  0  0  0  0
    5.3019  -16.4604   -2.8777 H   0  0  0  0  0  0  0  0  0  0  0  0
    4.9552  -13.7972   -2.9588 H   0  0  0  0  0  0  0  0  0  0  0  0
    6.6264  -14.1997   -2.5030 H   0  0  0  0  0  0  0  0  0  0  0  0
    3.4007  -16.5845   -1.0148 H   0  0  0  0  0  0  0  0  0  0  0  0
    1.8359   -8.5306   -5.8142 H   0  0  0  0  0  0  0  0  0  0  0  0
    1.6980  -10.3078   -5.7096 H   0  0  0  0  0  0  0  0  0  0  0  0
    1.4280   -9.2886   -4.2736 H   0  0  0  0  0  0  0  0  0  0  0  0
   -5.6370   -8.4681   -8.5816 H   0  0  0  0  0  0  0  0  0  0  0  0
   -5.8932   -9.4845   -7.1536 H   0  0  0  0  0  0  0  0  0  0  0  0
   -5.8405   -7.7077   -6.9865 H   0  0  0  0  0  0  0  0  0  0  0  0
   -3.2916   -7.1190   -9.6880 H   0  0  0  0  0  0  0  0  0  0  0  0
   -4.4106   -7.7518  -11.7902 H   0  0  0  0  0  0  0  0  0  0  0  0
   -6.6700   -6.9158  -12.2910 H   0  0  0  0  0  0  0  0  0  0  0  0
   -8.8159   -5.2267   -9.8727 H   0  0  0  0  0  0  0  0  0  0  0  0
   -8.7116   -5.8829  -11.5131 H   0  0  0  0  0  0  0  0  0  0  0  0
   -9.0489   -3.4166  -11.5551 H   0  0  0  0  0  0  0  0  0  0  0  0
   -7.5731   -3.1905  -10.6093 H   0  0  0  0  0  0  0  0  0  0  0  0
   -7.4791   -3.8399  -12.2461 H   0  0  0  0  0  0  0  0  0  0  0  0
   -6.7287   -4.8386   -8.5691 H   0  0  0  0  0  0  0  0  0  0  0  0
   -3.9782    6.7347    0.5704 H   0  0  0  0  0  0  0  0  0  0  0  0
   -4.9300    9.0036    0.3916 H   0  0  0  0  0  0  0  0  0  0  0  0
   -4.4506   10.3927   -1.5851 H   0  0  0  0  0  0  0  0  0  0  0  0
   -3.0876   10.7884   -3.5466 H   0  0  0  0  0  0  0  0  0  0  0  0
   -1.9832    9.5422   -4.1465 H   0  0  0  0  0  0  0  0  0  0  0  0
   -5.0178    9.5338   -4.5174 H   0  0  0  0  0  0  0  0  0  0  0  0
   -3.8311    9.9348   -5.7635 H   0  0  0  0  0  0  0  0  0  0  0  0
   -3.9159    8.2935   -5.1125 H   0  0  0  0  0  0  0  0  0  0  0  0
   -2.0995    7.2373   -3.2291 H   0  0  0  0  0  0  0  0  0  0  0  0
   -1.0748   -1.4722   -3.7928 H   0  0  0  0  0  0  0  0  0  0  0  0
   -1.5420   -3.1601   -4.0894 H   0  0  0  0  0  0  0  0  0  0  0  0
    0.5558   -2.5147   -5.2811 H   0  0  0  0  0  0  0  0  0  0  0  0
   -0.7048   -2.9693   -6.4212 H   0  0  0  0  0  0  0  0  0  0  0  0
   -0.3289   -1.2607   -6.1629 H   0  0  0  0  0  0  0  0  0  0  0  0
   -2.3756   -0.8990   -2.3880 H   0  0  0  0  0  0  0  0  0  0  0  0
   -2.4980    0.4428   -1.2511 H   0  0  0  0  0  0  0  0  0  0  0  0
   -0.2106   -0.6343   -1.2510 H   0  0  0  0  0  0  0  0  0  0  0  0
    0.0440   -0.0175   -2.8898 H   0  0  0  0  0  0  0  0  0  0  0  0
   -0.1981    1.1010   -1.5564 H   0  0  0  0  0  0  0  0  0  0  0  0
   -1.2737    7.6490    0.4537 H   0  0  0  0  0  0  0  0  0  0  0  0
   -2.4995    9.1090    1.9824 H   0  0  0  0  0  0  0  0  0  0  0  0
   -3.1386   11.1694    0.7906 H   0  0  0  0  0  0  0  0  0  0  0  0
    0.0649   13.8435   -0.6833 H   0  0  0  0  0  0  0  0  0  0  0  0
   -0.3685   14.5802    0.8845 H   0  0  0  0  0  0  0  0  0  0  0  0
   -0.9183   16.1102   -1.0013 H   0  0  0  0  0  0  0  0  0  0  0  0
   -2.3913   15.5946   -0.1645 H   0  0  0  0  0  0  0  0  0  0  0  0
   -1.9609   14.8685   -1.7140 H   0  0  0  0  0  0  0  0  0  0  0  0
    0.8749   12.5983    1.1261 H   0  0  0  0  0  0  0  0  0  0  0  0
    1.5067   10.5593    2.2823 H   0  0  0  0  0  0  0  0  0  0  0  0
   -0.9011    3.8738    4.8929 H   0  0  0  0  0  0  0  0  0  0  0  0
   -0.2383    1.7960    5.9424 H   0  0  0  0  0  0  0  0  0  0  0  0
    0.8413   -0.0591    6.2434 H   0  0  0  0  0  0  0  0  0  0  0  0
    2.1590   -0.6583    7.2711 H   0  0  0  0  0  0  0  0  0  0  0  0
   -0.0409    1.2495    8.2305 H   0  0  0  0  0  0  0  0  0  0  0  0
    1.2720    0.5978    9.2093 H   0  0  0  0  0  0  0  0  0  0  0  0
    0.0339   -0.4877    8.5611 H   0  0  0  0  0  0  0  0  0  0  0  0
    3.7482    3.2807    6.3723 H   0  0  0  0  0  0  0  0  0  0  0  0
    3.0785    5.3811    5.2750 H   0  0  0  0  0  0  0  0  0  0  0  0
    1.9107    6.8251    6.7665 H   0  0  0  0  0  0  0  0  0  0  0  0
    2.3338   10.7143    7.1959 H   0  0  0  0  0  0  0  0  0  0  0  0
    3.8810    5.9729   11.0234 H   0  0  0  0  0  0  0  0  0  0  0  0
    4.8062   10.8446   12.0480 H   0  0  0  0  0  0  0  0  0  0  0  0
    5.0580    8.9639   14.8914 H   0  0  0  0  0  0  0  0  0  0  0  0
    7.5088    9.5582   14.0342 H   0  0  0  0  0  0  0  0  0  0  0  0
    7.7162    8.2393   16.2975 H   0  0  0  0  0  0  0  0  0  0  0  0
    7.2509    5.6709   15.8037 H   0  0  0  0  0  0  0  0  0  0  0  0
    6.7590    5.4079   13.2362 H   0  0  0  0  0  0  0  0  0  0  0  0
    8.5654    7.3343   13.0620 H   0  0  0  0  0  0  0  0  0  0  0  0
    7.1752    7.7811   12.0470 H   0  0  0  0  0  0  0  0  0  0  0  0
    4.6014    6.4459   14.4053 H   0  0  0  0  0  0  0  0  0  0  0  0
  1  2  2  0  0  0  0
  2  3  1  0  0  0  0
  3  4  2  0  0  0  0
  3  5  1  0  0  0  0
  5  6  2  0  0  0  0
  6  7  1  0  0  0  0
  7  8  2  0  0  0  0
  8  9  1  0  0  0  0
  9 10  2  0  0  0  0
 10 11  1  0  0  0  0
 11 12  2  0  0  0  0
 12 13  1  0  0  0  0
 13 14  3  0  0  0  0
 12 15  1  0  0  0  0
 15 16  3  0  0  0  0
  8 17  1  0  0  0  0
 17 18  1  0  0  0  0
 18 19  1  0  0  0  0
 19 20  2  0  0  0  0
 20 21  1  0  0  0  0
 21 22  1  0  0  0  0
 21 23  1  0  0  0  0
  1 24  1  0  0  0  0
 24 25  2  0  0  0  0
 25 26  1  0  0  0  0
 26 27  1  0  0  0  0
 27 28  2  0  0  0  0
 27 29  1  0  0  0  0
 29 30  1  0  0  0  0
 26 31  2  0  0  0  0
 31 32  1  0  0  0  0
 32 33  1  0  0  0  0
 32 34  1  0  0  0  0
 34 35  2  0  0  0  0
 31 36  1  0  0  0  0
 36 37  2  0  0  0  0
 37 38  1  0  0  0  0
 38 39  2  0  0  0  0
 39 40  1  0  0  0  0
 40 41  2  0  0  0  0
 41 42  1  0  0  0  0
 42 43  1  0  0  0  0
 43 44  1  0  0  0  0
 42 45  2  0  0  0  0
 37 46  1  0  0  0  0
 46 47  1  0  0  0  0
 47 48  1  0  0  0  0
 48 49  1  0  0  0  0
 49 50  1  0  0  0  0
 50 51  1  0  0  0  0
 51 52  2  0  0  0  0
 52 53  1  0  0  0  0
 53 54  1  0  0  0  0
 51 55  1  0  0  0  0
 55 56  1  0  0  0  0
 56 57  1  0  0  0  0
 57 58  1  0  0  0  0
 58 59  1  0  0  0  0
 59 60  1  0  0  0  0
 60 61  2  0  0  0  0
 61 62  1  0  0  0  0
 62 63  2  0  0  0  0
 63 64  1  0  0  0  0
 64 65  1  0  0  0  0
 65 66  1  0  0  0  0
 64 67  2  0  0  0  0
 59 68  2  0  0  0  0
 68 69  1  0  0  0  0
 69 70  1  0  0  0  0
 70 71  1  0  0  0  0
 71 72  1  0  0  0  0
 72 73  1  0  0  0  0
 73 74  1  0  0  0  0
 74 75  1  0  0  0  0
 75 76  1  0  0  0  0
 76 77  1  0  0  0  0
 77 78  1  0  0  0  0
 75 79  1  0  0  0  0
 79 80  1  0  0  0  0
 72 81  1  0  0  0  0
 81 82  1  0  0  0  0
 68 83  1  0  0  0  0
 83 84  2  0  0  0  0
 84 85  1  0  0  0  0
 85 86  2  0  0  0  0
 86 87  1  0  0  0  0
 87 88  2  0  0  0  0
 88 89  1  0  0  0  0
 89 90  2  0  0  0  0
 90 91  1  0  0  0  0
 91 92  1  0  0  0  0
 92 93  1  0  0  0  0
 90 94  1  0  0  0  0
 94 95  2  0  0  0  0
 86 96  1  0  0  0  0
 96 97  2  0  0  0  0
 97 98  1  0  0  0  0
 98 99  1  0  0  0  0
 99100  2  0  0  0  0
100101  1  0  0  0  0
101102  2  0  0  0  0
102103  1  0  0  0  0
103104  1  0  0  0  0
104105  1  0  0  0  0
102106  1  0  0  0  0
106107  2  0  0  0  0
 98108  2  0  0  0  0
108109  1  0  0  0  0
 97110  1  0  0  0  0
110111  2  0  0  0  0
111112  1  0  0  0  0
111113  1  0  0  0  0
113114  2  0  0  0  0
114115  1  0  0  0  0
115116  2  0  0  0  0
115117  1  0  0  0  0
117118  2  0  0  0  0
118119  1  0  0  0  0
119120  2  0  0  0  0
120121  1  0  0  0  0
121122  2  0  0  0  0
122123  1  0  0  0  0
123124  2  0  0  0  0
124125  1  0  0  0  0
125126  3  0  0  0  0
124127  1  0  0  0  0
127128  3  0  0  0  0
120129  1  0  0  0  0
129130  1  0  0  0  0
130131  1  0  0  0  0
131132  2  0  0  0  0
132133  1  0  0  0  0
133134  1  0  0  0  0
133135  1  0  0  0  0
 11  2  1  0  0  0  0
 23 17  1  0  0  0  0
 29 24  1  0  0  0  0
 78 36  1  0  0  0  0
109 83  1  0  0  0  0
123114  1  0  0  0  0
135129  1  0  0  0  0
 10  5  1  0  0  0  0
 22 18  1  0  0  0  0
 34 25  1  0  0  0  0
 45 38  1  0  0  0  0
 77 46  2  0  0  0  0
108 85  1  0  0  0  0
122117  1  0  0  0  0
134130  1  0  0  0  0
 23  7  1  0  0  0  0
 76 48  2  0  0  0  0
 95 87  1  0  0  0  0
112 96  1  0  0  0  0
135119  1  0  0  0  0
 74 49  2  0  0  0  0
107 99  1  0  0  0  0
 54 50  2  0  0  0  0
 73 55  2  0  0  0  0
 71 56  2  0  0  0  0
 70 58  2  0  0  0  0
 67 60  1  0  0  0  0
  1136  1  0  0  0  0
  6137  1  0  0  0  0
  9138  1  0  0  0  0
 17139  1  0  0  0  0
 18140  1  0  0  0  0
 19141  1  0  0  0  0
 20142  1  0  0  0  0
 21143  1  0  0  0  0
 22144  1  0  0  0  0
 22145  1  0  0  0  0
 23146  1  0  0  0  0
 30147  1  0  0  0  0
 30148  1  0  0  0  0
 30149  1  0  0  0  0
 33150  1  0  0  0  0
 33151  1  0  0  0  0
 33152  1  0  0  0  0
 39153  1  0  0  0  0
 40154  1  0  0  0  0
 41155  1  0  0  0  0
 43156  1  0  0  0  0
 43157  1  0  0  0  0
 44158  1  0  0  0  0
 44159  1  0  0  0  0
 44160  1  0  0  0  0
 45161  1  0  0  0  0
 61162  1  0  0  0  0
 62163  1  0  0  0  0
 63164  1  0  0  0  0
 65165  1  0  0  0  0
 65166  1  0  0  0  0
 66167  1  0  0  0  0
 66168  1  0  0  0  0
 66169  1  0  0  0  0
 67170  1  0  0  0  0
 79171  1  0  0  0  0
 79172  1  0  0  0  0
 80173  1  0  0  0  0
 80174  1  0  0  0  0
 80175  1  0  0  0  0
 81176  1  0  0  0  0
 81177  1  0  0  0  0
 82178  1  0  0  0  0
 82179  1  0  0  0  0
 82180  1  0  0  0  0
 84181  1  0  0  0  0
 88182  1  0  0  0  0
 89183  1  0  0  0  0
 92184  1  0  0  0  0
 92185  1  0  0  0  0
 93186  1  0  0  0  0
 93187  1  0  0  0  0
 93188  1  0  0  0  0
 94189  1  0  0  0  0
 95190  1  0  0  0  0
100191  1  0  0  0  0
101192  1  0  0  0  0
104193  1  0  0  0  0
104194  1  0  0  0  0
105195  1  0  0  0  0
105196  1  0  0  0  0
105197  1  0  0  0  0
106198  1  0  0  0  0
107199  1  0  0  0  0
110200  1  0  0  0  0
113201  1  0  0  0  0
118202  1  0  0  0  0
121203  1  0  0  0  0
129204  1  0  0  0  0
130205  1  0  0  0  0
131206  1  0  0  0  0
132207  1  0  0  0  0
133208  1  0  0  0  0
134209  1  0  0  0  0
134210  1  0  0  0  0
135211  1  0  0  0  0
M  END
