
  xtb     02232202403D
 energy: -418.566902194930 gnorm: 0.000606816872 xtb: 6.4.1 (unknown)
259289  0     0  0            999 V2000
  -13.1889   -4.4182   -0.5782 C   0  0  0  0  0  0  0  0  0  0  0  0
  -13.6977   -4.6744   -1.8175 C   0  0  0  0  0  0  0  0  0  0  0  0
  -13.1761   -4.1181   -3.0945 C   0  0  0  0  0  0  0  0  0  0  0  0
  -12.3679   -3.2291   -3.2549 O   0  0  0  0  0  0  0  0  0  0  0  0
  -13.7616   -4.9522   -4.1577 C   0  0  0  0  0  0  0  0  0  0  0  0
  -13.5177   -4.8350   -5.5249 C   0  0  0  0  0  0  0  0  0  0  0  0
  -14.1800   -5.7649   -6.2888 C   0  0  0  0  0  0  0  0  0  0  0  0
  -15.0204   -6.7413   -5.7352 C   0  0  0  0  0  0  0  0  0  0  0  0
  -15.2767   -6.8606   -4.3900 C   0  0  0  0  0  0  0  0  0  0  0  0
  -14.6138   -5.9215   -3.5927 C   0  0  0  0  0  0  0  0  0  0  0  0
  -14.6353   -5.7321   -2.1462 C   0  0  0  0  0  0  0  0  0  0  0  0
  -15.4602   -6.3754   -1.2613 C   0  0  0  0  0  0  0  0  0  0  0  0
  -16.3818   -7.3814   -1.6173 C   0  0  0  0  0  0  0  0  0  0  0  0
  -17.1431   -8.2115   -1.8407 N   0  0  0  0  0  0  0  0  0  0  0  0
  -15.5335   -6.0896    0.1187 C   0  0  0  0  0  0  0  0  0  0  0  0
  -15.6682   -5.8985    1.2430 N   0  0  0  0  0  0  0  0  0  0  0  0
  -15.3323   -7.3495   -7.0800 C   0  0  0  0  0  0  0  0  0  0  0  0
  -14.6004   -8.6629   -7.4288 C   0  0  0  0  0  0  0  0  0  0  0  0
  -14.7185   -8.7548   -8.9331 C   0  0  0  0  0  0  0  0  0  0  0  0
  -13.9259   -7.8287   -9.4574 C   0  0  0  0  0  0  0  0  0  0  0  0
  -13.2585   -7.0956   -8.3163 C   0  0  0  0  0  0  0  0  0  0  0  0
  -13.1301   -8.2425   -7.3053 C   0  0  0  0  0  0  0  0  0  0  0  0
  -14.3987   -6.2592   -7.6970 C   0  0  0  0  0  0  0  0  0  0  0  0
  -12.3243   -3.3447   -0.2495 C   0  0  0  0  0  0  0  0  0  0  0  0
  -12.2402   -2.0992   -0.8135 C   0  0  0  0  0  0  0  0  0  0  0  0
  -11.2029   -1.3036   -0.2846 C   0  0  0  0  0  0  0  0  0  0  0  0
  -10.8034   -0.0225   -0.7094 C   0  0  0  0  0  0  0  0  0  0  0  0
  -11.4461    0.6572   -1.8416 C   0  0  0  0  0  0  0  0  0  0  0  0
  -11.8162    1.9982   -1.7478 C   0  0  0  0  0  0  0  0  0  0  0  0
  -12.3984    2.6308   -2.8294 C   0  0  0  0  0  0  0  0  0  0  0  0
  -12.6215    1.9510   -4.0142 C   0  0  0  0  0  0  0  0  0  0  0  0
  -12.2410    0.6198   -4.1192 C   0  0  0  0  0  0  0  0  0  0  0  0
  -12.5097   -0.3661   -5.5638 S   0  0  0  0  0  0  0  0  0  0  0  0
  -12.4801    0.8487   -6.9319 C   0  0  0  0  0  0  0  0  0  0  0  0
  -11.1303    1.5269   -7.0607 C   0  0  0  0  0  0  0  0  0  0  0  0
  -11.6538   -0.0225   -3.0363 C   0  0  0  0  0  0  0  0  0  0  0  0
   -9.7261    0.5371   -0.0454 C   0  0  0  0  0  0  0  0  0  0  0  0
   -9.0148   -0.1261    0.9875 C   0  0  0  0  0  0  0  0  0  0  0  0
   -9.4058   -1.4115    1.4014 C   0  0  0  0  0  0  0  0  0  0  0  0
   -8.6476   -2.1363    2.4301 C   0  0  0  0  0  0  0  0  0  0  0  0
   -9.2850   -2.7043    3.5294 C   0  0  0  0  0  0  0  0  0  0  0  0
   -8.5497   -3.3602    4.5008 C   0  0  0  0  0  0  0  0  0  0  0  0
   -7.1731   -3.4506    4.3985 C   0  0  0  0  0  0  0  0  0  0  0  0
   -6.5350   -2.8813    3.3068 C   0  0  0  0  0  0  0  0  0  0  0  0
   -4.7589   -2.9402    3.1520 S   0  0  0  0  0  0  0  0  0  0  0  0
   -4.3086   -1.9689    4.6378 C   0  0  0  0  0  0  0  0  0  0  0  0
   -4.8581   -0.5573    4.5722 C   0  0  0  0  0  0  0  0  0  0  0  0
   -7.2644   -2.2443    2.3193 C   0  0  0  0  0  0  0  0  0  0  0  0
  -10.5063   -1.9618    0.7646 C   0  0  0  0  0  0  0  0  0  0  0  0
  -11.1628   -3.5480    1.0580 S   0  0  0  0  0  0  0  0  0  0  0  0
   -7.9297    0.6522    1.4567 C   0  0  0  0  0  0  0  0  0  0  0  0
   -7.7814    1.8422    0.8022 C   0  0  0  0  0  0  0  0  0  0  0  0
   -9.0148    2.0862   -0.4185 S   0  0  0  0  0  0  0  0  0  0  0  0
   -6.7156    2.7735    0.9530 C   0  0  0  0  0  0  0  0  0  0  0  0
   -6.5900    4.0320    0.4012 C   0  0  0  0  0  0  0  0  0  0  0  0
   -7.6771    4.6960   -0.3336 C   0  0  0  0  0  0  0  0  0  0  0  0
   -8.7913    5.1706    0.3500 C   0  0  0  0  0  0  0  0  0  0  0  0
   -9.8334    5.7438   -0.3534 C   0  0  0  0  0  0  0  0  0  0  0  0
   -9.7774    5.8289   -1.7331 C   0  0  0  0  0  0  0  0  0  0  0  0
   -8.6674    5.3667   -2.4278 C   0  0  0  0  0  0  0  0  0  0  0  0
   -8.6373    5.3903   -3.9282 C   0  0  0  0  0  0  0  0  0  0  0  0
   -9.2268    4.0906   -4.4809 C   0  0  0  0  0  0  0  0  0  0  0  0
   -7.6139    4.8134   -1.7155 C   0  0  0  0  0  0  0  0  0  0  0  0
   -5.3098    4.5680    0.6213 C   0  0  0  0  0  0  0  0  0  0  0  0
   -4.5462    6.0531    0.1086 S   0  0  0  0  0  0  0  0  0  0  0  0
   -3.0698    5.5153    0.8391 C   0  0  0  0  0  0  0  0  0  0  0  0
   -1.7156    5.8868    0.8920 C   0  0  0  0  0  0  0  0  0  0  0  0
   -0.9993    6.9210    0.2485 C   0  0  0  0  0  0  0  0  0  0  0  0
    0.4386    6.8724    0.2363 C   0  0  0  0  0  0  0  0  0  0  0  0
    0.9696    7.8480   -0.4833 N   0  0  0  0  0  0  0  0  0  0  0  0
   -0.2292    8.7564   -1.0836 S   0  0  0  0  0  0  0  0  0  0  0  0
   -1.4755    7.9347   -0.4563 N   0  0  0  0  0  0  0  0  0  0  0  0
    1.0978    5.8646    0.9740 C   0  0  0  0  0  0  0  0  0  0  0  0
    2.4576    5.5453    1.1475 C   0  0  0  0  0  0  0  0  0  0  0  0
    4.0121    6.0187    0.5461 S   0  0  0  0  0  0  0  0  0  0  0  0
    4.7491    4.7467    1.4941 C   0  0  0  0  0  0  0  0  0  0  0  0
    6.0775    4.2960    1.6355 C   0  0  0  0  0  0  0  0  0  0  0  0
    7.2260    4.9256    0.9839 C   0  0  0  0  0  0  0  0  0  0  0  0
    8.4030    5.1628    1.6866 C   0  0  0  0  0  0  0  0  0  0  0  0
    9.4710    5.7675    1.0522 C   0  0  0  0  0  0  0  0  0  0  0  0
    9.3642    6.1596   -0.2686 C   0  0  0  0  0  0  0  0  0  0  0  0
    8.1842    5.9611   -0.9804 C   0  0  0  0  0  0  0  0  0  0  0  0
    8.1107    6.4551   -2.4020 C   0  0  0  0  0  0  0  0  0  0  0  0
    6.7467    6.3326   -3.0689 C   0  0  0  0  0  0  0  0  0  0  0  0
    7.1272    5.3320   -0.3446 C   0  0  0  0  0  0  0  0  0  0  0  0
    6.1502    3.2132    2.4954 C   0  0  0  0  0  0  0  0  0  0  0  0
    4.5784    2.7656    3.1508 S   0  0  0  0  0  0  0  0  0  0  0  0
    3.8245    4.0297    2.2528 C   0  0  0  0  0  0  0  0  0  0  0  0
    2.5168    4.4844    2.0530 C   0  0  0  0  0  0  0  0  0  0  0  0
    1.2535    4.1297    2.4535 N   0  0  0  0  0  0  0  0  0  0  0  0
    0.3647    4.9370    1.7615 C   0  0  0  0  0  0  0  0  0  0  0  0
   -1.0408    4.8624    1.6105 C   0  0  0  0  0  0  0  0  0  0  0  0
   -1.9558    3.8872    1.9570 N   0  0  0  0  0  0  0  0  0  0  0  0
   -3.1788    4.2767    1.4792 C   0  0  0  0  0  0  0  0  0  0  0  0
   -4.4608    3.7298    1.3489 C   0  0  0  0  0  0  0  0  0  0  0  0
   -5.2568    2.2595    1.7891 S   0  0  0  0  0  0  0  0  0  0  0  0
   -1.7448    2.5210    2.3796 C   0  0  0  0  0  0  0  0  0  0  0  0
   -2.3058    2.2599    3.7769 C   0  0  0  0  0  0  0  0  0  0  0  0
    1.0605    3.5263    3.7549 C   0  0  0  0  0  0  0  0  0  0  0  0
    1.6855    4.3750    4.8623 C   0  0  0  0  0  0  0  0  0  0  0  0
    7.2529    2.3400    2.7187 C   0  0  0  0  0  0  0  0  0  0  0  0
    7.4659    1.4915    3.7987 C   0  0  0  0  0  0  0  0  0  0  0  0
    6.7420    1.5023    4.9801 N   0  0  0  0  0  0  0  0  0  0  0  0
    6.4846    0.2741    5.6107 C   0  0  0  0  0  0  0  0  0  0  0  0
    6.1323   -0.8368    4.8491 C   0  0  0  0  0  0  0  0  0  0  0  0
    5.9015   -2.0528    5.4604 C   0  0  0  0  0  0  0  0  0  0  0  0
    6.0039   -2.1928    6.8388 C   0  0  0  0  0  0  0  0  0  0  0  0
    5.7751   -3.5197    7.4949 C   0  0  0  0  0  0  0  0  0  0  0  0
    6.3484   -1.0761    7.5917 C   0  0  0  0  0  0  0  0  0  0  0  0
    6.5915    0.1431    6.9923 C   0  0  0  0  0  0  0  0  0  0  0  0
    6.3592    2.7092    5.5743 C   0  0  0  0  0  0  0  0  0  0  0  0
    7.1348    3.8574    5.4236 C   0  0  0  0  0  0  0  0  0  0  0  0
    6.7195    5.0558    5.9647 C   0  0  0  0  0  0  0  0  0  0  0  0
    5.5334    5.1472    6.6856 C   0  0  0  0  0  0  0  0  0  0  0  0
    5.0951    6.4598    7.2593 C   0  0  0  0  0  0  0  0  0  0  0  0
    4.7794    3.9939    6.8561 C   0  0  0  0  0  0  0  0  0  0  0  0
    5.1759    2.7909    6.3053 C   0  0  0  0  0  0  0  0  0  0  0  0
    8.5506    0.6196    3.5503 C   0  0  0  0  0  0  0  0  0  0  0  0
    9.3209   -0.6182    4.4707 S   0  0  0  0  0  0  0  0  0  0  0  0
   10.4448   -0.9417    3.1380 C   0  0  0  0  0  0  0  0  0  0  0  0
   10.2825   -0.0215    2.0795 C   0  0  0  0  0  0  0  0  0  0  0  0
   11.1107    0.1614    1.0137 N   0  0  0  0  0  0  0  0  0  0  0  0
   10.6110    0.8242   -0.1327 C   0  0  0  0  0  0  0  0  0  0  0  0
   11.2824    1.9292   -0.6407 C   0  0  0  0  0  0  0  0  0  0  0  0
   10.7794    2.5905   -1.7451 C   0  0  0  0  0  0  0  0  0  0  0  0
    9.6135    2.1610   -2.3656 C   0  0  0  0  0  0  0  0  0  0  0  0
    9.0516    2.8833   -3.5502 C   0  0  0  0  0  0  0  0  0  0  0  0
    8.9641    1.0397   -1.8600 C   0  0  0  0  0  0  0  0  0  0  0  0
    9.4510    0.3730   -0.7544 C   0  0  0  0  0  0  0  0  0  0  0  0
   12.4501   -0.2503    0.9906 C   0  0  0  0  0  0  0  0  0  0  0  0
   13.2758   -0.1066    2.1049 C   0  0  0  0  0  0  0  0  0  0  0  0
   14.5770   -0.5601    2.0651 C   0  0  0  0  0  0  0  0  0  0  0  0
   15.0947   -1.1702    0.9243 C   0  0  0  0  0  0  0  0  0  0  0  0
   16.4916   -1.7064    0.9229 C   0  0  0  0  0  0  0  0  0  0  0  0
   14.2804   -1.2668   -0.1955 C   0  0  0  0  0  0  0  0  0  0  0  0
   12.9760   -0.8093   -0.1716 C   0  0  0  0  0  0  0  0  0  0  0  0
    9.1678    0.8131    2.3223 C   0  0  0  0  0  0  0  0  0  0  0  0
    8.4319    2.1075    1.4372 S   0  0  0  0  0  0  0  0  0  0  0  0
   11.3190   -2.0180    3.2929 C   0  0  0  0  0  0  0  0  0  0  0  0
   11.9083   -2.7243    2.2640 C   0  0  0  0  0  0  0  0  0  0  0  0
   11.3245   -2.8476    0.9206 C   0  0  0  0  0  0  0  0  0  0  0  0
   10.3006   -2.3340    0.5060 O   0  0  0  0  0  0  0  0  0  0  0  0
   12.1578   -3.8407    0.2104 C   0  0  0  0  0  0  0  0  0  0  0  0
   11.9856   -4.3034   -1.0904 C   0  0  0  0  0  0  0  0  0  0  0  0
   12.9209   -5.2322   -1.4820 C   0  0  0  0  0  0  0  0  0  0  0  0
   13.9457   -5.6761   -0.6386 C   0  0  0  0  0  0  0  0  0  0  0  0
   14.1249   -5.2280    0.6496 C   0  0  0  0  0  0  0  0  0  0  0  0
   13.1885   -4.2785    1.0632 C   0  0  0  0  0  0  0  0  0  0  0  0
   13.0634   -3.5708    2.3366 C   0  0  0  0  0  0  0  0  0  0  0  0
   13.9802   -3.5848    3.3609 C   0  0  0  0  0  0  0  0  0  0  0  0
   13.8828   -2.7791    4.5118 C   0  0  0  0  0  0  0  0  0  0  0  0
   13.8862   -2.1295    5.4598 N   0  0  0  0  0  0  0  0  0  0  0  0
   15.1693   -4.3345    3.3553 C   0  0  0  0  0  0  0  0  0  0  0  0
   16.1650   -4.9071    3.4028 N   0  0  0  0  0  0  0  0  0  0  0  0
   14.4994   -6.6228   -1.6757 C   0  0  0  0  0  0  0  0  0  0  0  0
   14.1633   -8.1180   -1.4950 C   0  0  0  0  0  0  0  0  0  0  0  0
   14.4070   -8.7121   -2.8635 C   0  0  0  0  0  0  0  0  0  0  0  0
   13.4386   -8.2883   -3.6656 C   0  0  0  0  0  0  0  0  0  0  0  0
   12.5240   -7.4011   -2.8523 C   0  0  0  0  0  0  0  0  0  0  0  0
   12.6293   -8.0937   -1.4875 C   0  0  0  0  0  0  0  0  0  0  0  0
   13.3581   -6.1238   -2.6189 C   0  0  0  0  0  0  0  0  0  0  0  0
  -13.3942   -5.1168    0.2242 H   0  0  0  0  0  0  0  0  0  0  0  0
  -12.8667   -4.0627   -5.9039 H   0  0  0  0  0  0  0  0  0  0  0  0
  -15.9259   -7.6158   -3.9793 H   0  0  0  0  0  0  0  0  0  0  0  0
  -16.3826   -7.3592   -7.3647 H   0  0  0  0  0  0  0  0  0  0  0  0
  -14.9239   -9.5295   -6.8587 H   0  0  0  0  0  0  0  0  0  0  0  0
  -15.3864   -9.4242   -9.4426 H   0  0  0  0  0  0  0  0  0  0  0  0
  -13.7995   -7.5701  -10.4924 H   0  0  0  0  0  0  0  0  0  0  0  0
  -12.3591   -6.5340   -8.5540 H   0  0  0  0  0  0  0  0  0  0  0  0
  -12.4498   -9.0199   -7.6492 H   0  0  0  0  0  0  0  0  0  0  0  0
  -12.8417   -7.9227   -6.3057 H   0  0  0  0  0  0  0  0  0  0  0  0
  -14.8263   -5.5402   -8.3932 H   0  0  0  0  0  0  0  0  0  0  0  0
  -12.9276   -1.7480   -1.5587 H   0  0  0  0  0  0  0  0  0  0  0  0
  -11.6715    2.5367   -0.8239 H   0  0  0  0  0  0  0  0  0  0  0  0
  -12.6957    3.6661   -2.7468 H   0  0  0  0  0  0  0  0  0  0  0  0
  -13.0957    2.4617   -4.8378 H   0  0  0  0  0  0  0  0  0  0  0  0
  -13.2885    1.5643   -6.7859 H   0  0  0  0  0  0  0  0  0  0  0  0
  -12.7037    0.2500   -7.8147 H   0  0  0  0  0  0  0  0  0  0  0  0
  -10.8904    2.0849   -6.1577 H   0  0  0  0  0  0  0  0  0  0  0  0
  -11.1385    2.2145   -7.9045 H   0  0  0  0  0  0  0  0  0  0  0  0
  -10.3516    0.7851   -7.2218 H   0  0  0  0  0  0  0  0  0  0  0  0
  -11.3537   -1.0531   -3.1428 H   0  0  0  0  0  0  0  0  0  0  0  0
  -10.3562   -2.6171    3.6308 H   0  0  0  0  0  0  0  0  0  0  0  0
   -9.0531   -3.8024    5.3475 H   0  0  0  0  0  0  0  0  0  0  0  0
   -6.5993   -3.9634    5.1558 H   0  0  0  0  0  0  0  0  0  0  0  0
   -4.6705   -2.4996    5.5179 H   0  0  0  0  0  0  0  0  0  0  0  0
   -3.2193   -1.9716    4.6417 H   0  0  0  0  0  0  0  0  0  0  0  0
   -4.4959    0.0242    5.4179 H   0  0  0  0  0  0  0  0  0  0  0  0
   -5.9463   -0.5709    4.6042 H   0  0  0  0  0  0  0  0  0  0  0  0
   -4.5457   -0.0704    3.6509 H   0  0  0  0  0  0  0  0  0  0  0  0
   -6.7526   -1.8417    1.4585 H   0  0  0  0  0  0  0  0  0  0  0  0
   -7.2750    0.3480    2.2539 H   0  0  0  0  0  0  0  0  0  0  0  0
   -8.8359    5.0827    1.4259 H   0  0  0  0  0  0  0  0  0  0  0  0
  -10.6982    6.1157    0.1765 H   0  0  0  0  0  0  0  0  0  0  0  0
  -10.6040    6.2607   -2.2789 H   0  0  0  0  0  0  0  0  0  0  0  0
   -9.2174    6.2371   -4.3001 H   0  0  0  0  0  0  0  0  0  0  0  0
   -7.6092    5.4987   -4.2787 H   0  0  0  0  0  0  0  0  0  0  0  0
   -8.6557    3.2349   -4.1275 H   0  0  0  0  0  0  0  0  0  0  0  0
  -10.2546    3.9681   -4.1452 H   0  0  0  0  0  0  0  0  0  0  0  0
   -9.2088    4.0979   -5.5687 H   0  0  0  0  0  0  0  0  0  0  0  0
   -6.7431    4.4456   -2.2394 H   0  0  0  0  0  0  0  0  0  0  0  0
    8.4701    4.8876    2.7284 H   0  0  0  0  0  0  0  0  0  0  0  0
   10.3878    5.9453    1.5951 H   0  0  0  0  0  0  0  0  0  0  0  0
   10.2008    6.6413   -0.7547 H   0  0  0  0  0  0  0  0  0  0  0  0
    8.4116    7.5070   -2.4064 H   0  0  0  0  0  0  0  0  0  0  0  0
    8.8536    5.9123   -2.9943 H   0  0  0  0  0  0  0  0  0  0  0  0
    6.4420    5.2920   -3.1562 H   0  0  0  0  0  0  0  0  0  0  0  0
    6.7888    6.7558   -4.0702 H   0  0  0  0  0  0  0  0  0  0  0  0
    5.9906    6.8709   -2.5020 H   0  0  0  0  0  0  0  0  0  0  0  0
    6.2071    5.1423   -0.8730 H   0  0  0  0  0  0  0  0  0  0  0  0
   -2.2688    1.8693    1.6708 H   0  0  0  0  0  0  0  0  0  0  0  0
   -0.6819    2.2881    2.3200 H   0  0  0  0  0  0  0  0  0  0  0  0
   -2.0699    1.2443    4.0814 H   0  0  0  0  0  0  0  0  0  0  0  0
   -1.8970    2.9501    4.5118 H   0  0  0  0  0  0  0  0  0  0  0  0
   -3.3859    2.3782    3.7723 H   0  0  0  0  0  0  0  0  0  0  0  0
   -0.0043    3.4436    3.9476 H   0  0  0  0  0  0  0  0  0  0  0  0
    1.5156    2.5302    3.7537 H   0  0  0  0  0  0  0  0  0  0  0  0
    1.4532    3.9340    5.8279 H   0  0  0  0  0  0  0  0  0  0  0  0
    1.2841    5.3860    4.8329 H   0  0  0  0  0  0  0  0  0  0  0  0
    2.7660    4.4243    4.7606 H   0  0  0  0  0  0  0  0  0  0  0  0
    6.0375   -0.7394    3.7772 H   0  0  0  0  0  0  0  0  0  0  0  0
    5.6319   -2.9067    4.8558 H   0  0  0  0  0  0  0  0  0  0  0  0
    5.0801   -4.1245    6.9168 H   0  0  0  0  0  0  0  0  0  0  0  0
    5.3828   -3.3936    8.5014 H   0  0  0  0  0  0  0  0  0  0  0  0
    6.7167   -4.0650    7.5668 H   0  0  0  0  0  0  0  0  0  0  0  0
    6.4390   -1.1653    8.6647 H   0  0  0  0  0  0  0  0  0  0  0  0
    6.8720    0.9985    7.5888 H   0  0  0  0  0  0  0  0  0  0  0  0
    8.0691    3.8011    4.8845 H   0  0  0  0  0  0  0  0  0  0  0  0
    7.3293    5.9380    5.8319 H   0  0  0  0  0  0  0  0  0  0  0  0
    4.9786    7.2002    6.4685 H   0  0  0  0  0  0  0  0  0  0  0  0
    4.1480    6.3590    7.7832 H   0  0  0  0  0  0  0  0  0  0  0  0
    5.8405    6.8369    7.9586 H   0  0  0  0  0  0  0  0  0  0  0  0
    3.8584    4.0377    7.4196 H   0  0  0  0  0  0  0  0  0  0  0  0
    4.5652    1.9087    6.4264 H   0  0  0  0  0  0  0  0  0  0  0  0
   12.1895    2.2690   -0.1626 H   0  0  0  0  0  0  0  0  0  0  0  0
   11.3005    3.4567   -2.1260 H   0  0  0  0  0  0  0  0  0  0  0  0
    8.1620    3.4379   -3.2541 H   0  0  0  0  0  0  0  0  0  0  0  0
    8.7621    2.1796   -4.3286 H   0  0  0  0  0  0  0  0  0  0  0  0
    9.7749    3.5829   -3.9614 H   0  0  0  0  0  0  0  0  0  0  0  0
    8.0655    0.6841   -2.3427 H   0  0  0  0  0  0  0  0  0  0  0  0
    8.9631   -0.5097   -0.3718 H   0  0  0  0  0  0  0  0  0  0  0  0
   12.8937    0.3553    3.0028 H   0  0  0  0  0  0  0  0  0  0  0  0
   15.2024   -0.4498    2.9390 H   0  0  0  0  0  0  0  0  0  0  0  0
   17.2006   -0.9260    1.1954 H   0  0  0  0  0  0  0  0  0  0  0  0
   16.7577   -2.0970   -0.0559 H   0  0  0  0  0  0  0  0  0  0  0  0
   16.5901   -2.5095    1.6532 H   0  0  0  0  0  0  0  0  0  0  0  0
   14.6629   -1.7226   -1.0973 H   0  0  0  0  0  0  0  0  0  0  0  0
   12.3495   -0.8994   -1.0463 H   0  0  0  0  0  0  0  0  0  0  0  0
   11.4964   -2.3397    4.3122 H   0  0  0  0  0  0  0  0  0  0  0  0
   11.1808   -3.9370   -1.7087 H   0  0  0  0  0  0  0  0  0  0  0  0
   14.9144   -5.5822    1.2916 H   0  0  0  0  0  0  0  0  0  0  0  0
   15.5327   -6.4524   -1.9728 H   0  0  0  0  0  0  0  0  0  0  0  0
   14.6611   -8.5985   -0.6572 H   0  0  0  0  0  0  0  0  0  0  0  0
   15.2612   -9.3138   -3.1132 H   0  0  0  0  0  0  0  0  0  0  0  0
   13.3225   -8.4652   -4.7190 H   0  0  0  0  0  0  0  0  0  0  0  0
   11.5278   -7.2288   -3.2511 H   0  0  0  0  0  0  0  0  0  0  0  0
   12.1988   -7.5233   -0.6667 H   0  0  0  0  0  0  0  0  0  0  0  0
   12.2015   -9.0950   -1.4997 H   0  0  0  0  0  0  0  0  0  0  0  0
   13.6315   -5.6191   -3.5440 H   0  0  0  0  0  0  0  0  0  0  0  0
  1  2  2  0  0  0  0
  2  3  1  0  0  0  0
  3  4  2  0  0  0  0
  3  5  1  0  0  0  0
  5  6  2  0  0  0  0
  6  7  1  0  0  0  0
  7  8  2  0  0  0  0
  8  9  1  0  0  0  0
  9 10  2  0  0  0  0
 10 11  1  0  0  0  0
 11 12  2  0  0  0  0
 12 13  1  0  0  0  0
 13 14  3  0  0  0  0
 12 15  1  0  0  0  0
 15 16  3  0  0  0  0
  8 17  1  0  0  0  0
 17 18  1  0  0  0  0
 18 19  1  0  0  0  0
 19 20  2  0  0  0  0
 20 21  1  0  0  0  0
 21 22  1  0  0  0  0
 21 23  1  0  0  0  0
  1 24  1  0  0  0  0
 24 25  2  0  0  0  0
 25 26  1  0  0  0  0
 26 27  2  0  0  0  0
 27 28  1  0  0  0  0
 28 29  2  0  0  0  0
 29 30  1  0  0  0  0
 30 31  2  0  0  0  0
 31 32  1  0  0  0  0
 32 33  1  0  0  0  0
 33 34  1  0  0  0  0
 34 35  1  0  0  0  0
 32 36  2  0  0  0  0
 27 37  1  0  0  0  0
 37 38  2  0  0  0  0
 38 39  1  0  0  0  0
 39 40  1  0  0  0  0
 40 41  2  0  0  0  0
 41 42  1  0  0  0  0
 42 43  2  0  0  0  0
 43 44  1  0  0  0  0
 44 45  1  0  0  0  0
 45 46  1  0  0  0  0
 46 47  1  0  0  0  0
 44 48  2  0  0  0  0
 39 49  2  0  0  0  0
 49 50  1  0  0  0  0
 38 51  1  0  0  0  0
 51 52  2  0  0  0  0
 52 53  1  0  0  0  0
 52 54  1  0  0  0  0
 54 55  2  0  0  0  0
 55 56  1  0  0  0  0
 56 57  2  0  0  0  0
 57 58  1  0  0  0  0
 58 59  2  0  0  0  0
 59 60  1  0  0  0  0
 60 61  1  0  0  0  0
 61 62  1  0  0  0  0
 60 63  2  0  0  0  0
 55 64  1  0  0  0  0
 64 65  1  0  0  0  0
 65 66  1  0  0  0  0
 66 67  1  0  0  0  0
 67 68  1  0  0  0  0
 68 69  1  0  0  0  0
 69 70  2  0  0  0  0
 70 71  1  0  0  0  0
 71 72  1  0  0  0  0
 69 73  1  0  0  0  0
 73 74  1  0  0  0  0
 74 75  1  0  0  0  0
 75 76  1  0  0  0  0
 76 77  1  0  0  0  0
 77 78  1  0  0  0  0
 78 79  2  0  0  0  0
 79 80  1  0  0  0  0
 80 81  2  0  0  0  0
 81 82  1  0  0  0  0
 82 83  1  0  0  0  0
 83 84  1  0  0  0  0
 82 85  2  0  0  0  0
 77 86  2  0  0  0  0
 86 87  1  0  0  0  0
 87 88  1  0  0  0  0
 88 89  1  0  0  0  0
 89 90  1  0  0  0  0
 90 91  1  0  0  0  0
 91 92  1  0  0  0  0
 92 93  1  0  0  0  0
 93 94  1  0  0  0  0
 94 95  1  0  0  0  0
 95 96  1  0  0  0  0
 93 97  1  0  0  0  0
 97 98  1  0  0  0  0
 90 99  1  0  0  0  0
 99100  1  0  0  0  0
 86101  1  0  0  0  0
101102  2  0  0  0  0
102103  1  0  0  0  0
103104  1  0  0  0  0
104105  2  0  0  0  0
105106  1  0  0  0  0
106107  2  0  0  0  0
107108  1  0  0  0  0
107109  1  0  0  0  0
109110  2  0  0  0  0
103111  1  0  0  0  0
111112  2  0  0  0  0
112113  1  0  0  0  0
113114  2  0  0  0  0
114115  1  0  0  0  0
114116  1  0  0  0  0
116117  2  0  0  0  0
102118  1  0  0  0  0
118119  1  0  0  0  0
119120  1  0  0  0  0
120121  2  0  0  0  0
121122  1  0  0  0  0
122123  1  0  0  0  0
123124  2  0  0  0  0
124125  1  0  0  0  0
125126  2  0  0  0  0
126127  1  0  0  0  0
126128  1  0  0  0  0
128129  2  0  0  0  0
122130  1  0  0  0  0
130131  2  0  0  0  0
131132  1  0  0  0  0
132133  2  0  0  0  0
133134  1  0  0  0  0
133135  1  0  0  0  0
135136  2  0  0  0  0
121137  1  0  0  0  0
137138  1  0  0  0  0
120139  1  0  0  0  0
139140  2  0  0  0  0
140141  1  0  0  0  0
141142  2  0  0  0  0
141143  1  0  0  0  0
143144  2  0  0  0  0
144145  1  0  0  0  0
145146  2  0  0  0  0
146147  1  0  0  0  0
147148  2  0  0  0  0
148149  1  0  0  0  0
149150  2  0  0  0  0
150151  1  0  0  0  0
151152  3  0  0  0  0
150153  1  0  0  0  0
153154  3  0  0  0  0
146155  1  0  0  0  0
155156  1  0  0  0  0
156157  1  0  0  0  0
157158  2  0  0  0  0
158159  1  0  0  0  0
159160  1  0  0  0  0
159161  1  0  0  0  0
 11  2  1  0  0  0  0
 23 17  1  0  0  0  0
 50 24  1  0  0  0  0
 96 54  1  0  0  0  0
138101  1  0  0  0  0
149140  1  0  0  0  0
161155  1  0  0  0  0
 10  5  1  0  0  0  0
 22 18  1  0  0  0  0
 49 26  1  0  0  0  0
 63 56  1  0  0  0  0
 95 64  2  0  0  0  0
110104  1  0  0  0  0
117111  1  0  0  0  0
137118  2  0  0  0  0
148143  1  0  0  0  0
160156  1  0  0  0  0
 23  7  1  0  0  0  0
 36 28  1  0  0  0  0
 53 37  1  0  0  0  0
 94 66  2  0  0  0  0
129123  1  0  0  0  0
136130  1  0  0  0  0
161145  1  0  0  0  0
 48 40  1  0  0  0  0
 92 67  2  0  0  0  0
 72 68  2  0  0  0  0
 91 73  2  0  0  0  0
 89 74  2  0  0  0  0
 88 76  2  0  0  0  0
 85 78  1  0  0  0  0
  1162  1  0  0  0  0
  6163  1  0  0  0  0
  9164  1  0  0  0  0
 17165  1  0  0  0  0
 18166  1  0  0  0  0
 19167  1  0  0  0  0
 20168  1  0  0  0  0
 21169  1  0  0  0  0
 22170  1  0  0  0  0
 22171  1  0  0  0  0
 23172  1  0  0  0  0
 25173  1  0  0  0  0
 29174  1  0  0  0  0
 30175  1  0  0  0  0
 31176  1  0  0  0  0
 34177  1  0  0  0  0
 34178  1  0  0  0  0
 35179  1  0  0  0  0
 35180  1  0  0  0  0
 35181  1  0  0  0  0
 36182  1  0  0  0  0
 41183  1  0  0  0  0
 42184  1  0  0  0  0
 43185  1  0  0  0  0
 46186  1  0  0  0  0
 46187  1  0  0  0  0
 47188  1  0  0  0  0
 47189  1  0  0  0  0
 47190  1  0  0  0  0
 48191  1  0  0  0  0
 51192  1  0  0  0  0
 57193  1  0  0  0  0
 58194  1  0  0  0  0
 59195  1  0  0  0  0
 61196  1  0  0  0  0
 61197  1  0  0  0  0
 62198  1  0  0  0  0
 62199  1  0  0  0  0
 62200  1  0  0  0  0
 63201  1  0  0  0  0
 79202  1  0  0  0  0
 80203  1  0  0  0  0
 81204  1  0  0  0  0
 83205  1  0  0  0  0
 83206  1  0  0  0  0
 84207  1  0  0  0  0
 84208  1  0  0  0  0
 84209  1  0  0  0  0
 85210  1  0  0  0  0
 97211  1  0  0  0  0
 97212  1  0  0  0  0
 98213  1  0  0  0  0
 98214  1  0  0  0  0
 98215  1  0  0  0  0
 99216  1  0  0  0  0
 99217  1  0  0  0  0
100218  1  0  0  0  0
100219  1  0  0  0  0
100220  1  0  0  0  0
105221  1  0  0  0  0
106222  1  0  0  0  0
108223  1  0  0  0  0
108224  1  0  0  0  0
108225  1  0  0  0  0
109226  1  0  0  0  0
110227  1  0  0  0  0
112228  1  0  0  0  0
113229  1  0  0  0  0
115230  1  0  0  0  0
115231  1  0  0  0  0
115232  1  0  0  0  0
116233  1  0  0  0  0
117234  1  0  0  0  0
124235  1  0  0  0  0
125236  1  0  0  0  0
127237  1  0  0  0  0
127238  1  0  0  0  0
127239  1  0  0  0  0
128240  1  0  0  0  0
129241  1  0  0  0  0
131242  1  0  0  0  0
132243  1  0  0  0  0
134244  1  0  0  0  0
134245  1  0  0  0  0
134246  1  0  0  0  0
135247  1  0  0  0  0
136248  1  0  0  0  0
139249  1  0  0  0  0
144250  1  0  0  0  0
147251  1  0  0  0  0
155252  1  0  0  0  0
156253  1  0  0  0  0
157254  1  0  0  0  0
158255  1  0  0  0  0
159256  1  0  0  0  0
160257  1  0  0  0  0
160258  1  0  0  0  0
161259  1  0  0  0  0
M  END
