196

C         -6.12670       -5.12890       -2.45130
C         -5.11470       -6.03400       -2.33940
C         -5.10350       -7.27840       -3.16140
O         -6.02390       -7.73390       -3.79780
C         -3.71520       -7.77800       -3.08460
C         -3.16170       -8.84220       -3.79280
C         -1.82910       -9.05830       -3.53140
C         -1.09640       -8.27780       -2.62620
C         -1.62890       -7.22880       -1.91610
C         -2.98130       -6.98950       -2.17210
C         -3.87590       -5.99120       -1.59560
C         -3.64990       -5.29270       -0.43490
C         -2.41630       -5.25580        0.24170
N         -1.42400       -5.12980        0.80800
C         -4.63440       -4.55510        0.25470
N         -5.39220       -3.99270        0.90910
C          0.17680       -9.04750       -2.86700
C          1.25670       -8.39180       -3.76280
C          0.52910       -7.44940       -4.68930
C         -0.16390       -8.18280       -5.55020
C          0.08300       -9.63460       -5.22240
C          1.53570       -9.55670       -4.72590
C         -0.63700       -9.91420       -3.87930
C         -6.10610       -3.76940       -2.04910
C         -7.14870       -3.02310       -1.51210
C         -6.61230       -1.79390       -1.05500
C         -5.22790       -1.71700       -1.44310
O         -4.39450       -0.83720       -1.37760
N         -4.97700       -2.96980       -2.03840
C         -3.76350       -3.16780       -2.78620
C         -7.61650       -1.07540       -0.41680
N         -8.77450       -1.79260       -0.51830
C        -10.03730       -1.45570        0.07860
C         -8.55460       -3.04680       -1.14800
O         -9.42920       -3.86410       -1.31140
C         -7.34320        0.11320        0.32800
C         -7.89720        1.38640        0.37080
C         -9.07810        1.80370       -0.37660
C         -9.93490        2.76760        0.15120
C        -11.05440        3.15670       -0.55860
C        -11.32840        2.59940       -1.79580
C        -10.47820        1.64720       -2.34580
C        -10.73900        1.07760       -3.71040
C        -10.05350        1.92790       -4.78190
C         -9.35480        1.26190       -1.63030
C         -7.08540        2.25780        1.13030
S         -7.03970        4.00100        1.36380
C         -5.46630        3.86700        2.09860
C         -4.36910        4.65300        2.50850
C         -4.15050        6.04630        2.62520
C         -2.83890        6.53700        2.97270
N         -2.80570        7.85590        3.06220
S         -4.28170        8.43710        2.73960
N         -5.02570        7.02520        2.46640
C         -1.75930        5.62660        3.07740
C         -0.36140        5.79100        3.09910
S          0.85840        7.03170        3.09570
C          2.09370        5.80420        2.82590
C          3.47850        5.84370        2.59910
C          4.23660        7.08900        2.73870
C          5.33570        7.15360        3.59390
C          5.99490        8.35360        3.77590
C          5.56950        9.49200        3.11230
C          4.46890        9.44800        2.26570
C          4.02650       10.66930        1.51380
C          4.71860       10.73430        0.15070
C          3.80680        8.24170        2.09090
C          3.98930        4.57100        2.31400
S          2.76650        3.31520        2.45630
C          1.56730        4.51290        2.78600
C          0.18670        4.50910        2.95890
N         -0.79320        3.56340        2.90930
C         -1.99980        4.22570        2.96640
C         -3.31760        3.74300        2.81950
N         -3.78920        2.44970        2.70850
C         -5.06140        2.53580        2.22490
C         -5.95870        1.62940        1.66590
S         -5.86060       -0.03150        1.25000
C         -3.36740        1.23530        3.37800
C         -2.93110        1.50140        4.81450
C         -0.47240        2.25020        2.39520
C         -0.90660        2.09530        0.94180
C          5.25750        4.17830        1.80130
C          6.28070        5.04840        1.41480
C          7.46690        4.59760        0.86830
C          7.73340        3.24230        0.64400
C          6.69980        2.31410        1.00440
N          6.84560        1.00570        0.74910
C          5.88410        0.16190        1.05380
C          6.08310       -1.24630        0.69880
C          7.35600       -1.79930        0.79470
C          7.54520       -3.13570        0.48690
C          6.48210       -3.92620        0.10110
C          5.20060       -3.37860       -0.00580
O          4.21110       -4.23230       -0.37790
C          2.86470       -3.80380       -0.27710
C          1.97000       -5.01890       -0.46960
C          5.01210       -2.03190        0.27030
C          4.69770        0.62760        1.70210
N          4.54490        1.90990        1.91870
C          5.49620        2.78450        1.57490
C          3.64250       -0.28940        2.16700
C          3.96130       -1.30530        3.06680
C          2.98010       -2.18920        3.46640
C          1.69190       -2.10490        2.96110
C          1.36840       -1.09910        2.05480
O          0.15070       -0.94410        1.47030
C         -0.86620       -1.90260        1.72260
C         -2.03600       -1.62060        0.79260
C          2.34790       -0.17480        1.68500
C          8.92050        2.67830        0.11620
C         10.02830        3.20140       -0.50280
C         10.25660        4.56600       -1.02200
O          9.62010        5.57790       -0.83540
C         11.46550        4.45780       -1.88250
C         11.97870        3.15170       -1.82670
C         13.09730        2.80080       -2.56360
C         13.69050        3.77610       -3.35190
F         14.76640        3.45920       -4.07810
C         13.19840        5.07750       -3.41370
F         13.80060        5.98890       -4.18400
C         12.06940        5.42330       -2.66770
F         11.60230        6.66700       -2.73310
C         11.14360        2.37090       -0.91550
C         11.43760        1.10660       -0.47280
C         10.73490        0.39420        0.52230
N         10.27210       -0.25670        1.34820
C         12.54340        0.35110       -0.91600
N         13.41750       -0.31840       -1.24150
H         -7.04510       -5.47920       -2.90960
H         -3.75980       -9.42400       -4.47630
H         -1.05240       -6.63190       -1.22890
H          0.60330       -9.54370       -1.99790
H          2.10190       -7.97680       -3.22030
H          0.54890       -6.37950       -4.59270
H         -0.83920       -7.84840       -6.31590
H         -0.13930      -10.34890       -6.01050
H          1.87260      -10.46290       -4.22480
H          2.23640       -9.29090       -5.51560
H         -0.73670      -10.97840       -3.67630
H         -3.47200       -2.20000       -3.19950
H         -2.94460       -3.51670       -2.15250
H         -3.92550       -3.88000       -3.59380
H         -9.89540       -1.12610        1.10860
H        -10.53550       -0.66200       -0.48290
H        -10.65420       -2.35380        0.05730
H         -9.72860        3.19460        1.12060
H        -11.71980        3.89870       -0.14340
H        -12.20710        2.90760       -2.34330
H        -11.81340        1.05390       -3.90210
H        -10.35920        0.05500       -3.76470
H        -10.43000        2.94790       -4.75370
H         -8.97920        1.95550       -4.61340
H        -10.24010        1.51530       -5.77040
H         -8.66880        0.54650       -2.06210
H          5.65750        6.26530        4.11790
H          6.84380        8.40270        4.44160
H          6.09230       10.42600        3.25860
H          4.27260       11.56570        2.08620
H          2.94480       10.64110        1.36910
H          4.39800       11.61770       -0.39630
H          5.79830       10.77540        0.27490
H          4.47650        9.85340       -0.43970
H          2.95140        8.19240        1.43290
H         -2.58910        0.72440        2.80810
H         -4.23670        0.57210        3.38510
H         -2.65210        0.56500        5.29040
H         -3.74960        1.94510        5.37720
H         -2.08340        2.18020        4.85770
H          0.61260        2.14980        2.45790
H         -0.89360        1.47220        3.02680
H         -0.42790        2.85750        0.33080
H         -0.60620        1.11630        0.58210
H         -1.98350        2.19690        0.83230
H          6.14280        6.11060        1.53230
H          8.21080        5.32660        0.59360
H          8.18150       -1.18640        1.12090
H          8.53270       -3.56470        0.56150
H          6.61310       -4.97260       -0.12530
H          2.68910       -3.35910        0.71180
H          2.64850       -3.04670       -1.04420
H          0.93090       -4.74010       -0.31610
H          2.23710       -5.78780        0.25010
H          2.09210       -5.42290       -1.47110
H          4.04450       -1.57920        0.13320
H          4.96760       -1.39320        3.44610
H          3.21880       -2.97170        4.17070
H          0.95500       -2.82720        3.27340
H         -0.48940       -2.91570        1.53660
H         -1.18760       -1.83510        2.77160
H         -2.41500       -0.61200        0.92210
H         -2.84190       -2.31890        0.99990
H         -1.72960       -1.73060       -0.24350
H          2.09430        0.60460        0.98380
H          8.90270        1.59600        0.19320
H         13.51980        1.81000       -2.55690
