246

C        -11.19490       -2.77120       -8.50550
C        -10.99110       -3.86540       -9.29800
C         -9.71500       -4.44300       -9.77860
O         -8.57960       -4.16300       -9.44950
C        -10.08730       -5.44080      -10.79960
C         -9.21310       -6.20540      -11.56990
C         -9.83910       -7.05180      -12.45250
C        -11.23380       -7.12520      -12.57040
C        -12.10730       -6.37660      -11.81850
C        -11.48990       -5.51720      -10.90370
C        -12.07400       -4.60270       -9.92830
C        -13.40320       -4.54050       -9.59520
C        -13.95630       -3.77410       -8.54740
N        -14.49040       -3.21510       -7.69700
C        -14.41560       -5.29610      -10.22320
N        -15.29160       -5.87250      -10.69100
C        -11.16760       -8.18110      -13.64550
C        -11.47610       -9.62830      -13.20630
C        -10.87660      -10.47530      -14.30540
C         -9.55620      -10.40860      -14.19160
C         -9.24120       -9.51490      -13.01370
C        -10.43120       -9.84810      -12.10460
C         -9.61290       -8.10170      -13.51170
C        -10.30690       -2.00010       -7.72720
C         -8.97810       -2.14640       -7.40850
C         -8.51230       -1.20380       -6.47190
C         -7.21710       -1.11760       -5.91820
C         -6.12660       -1.97280       -6.40190
C         -5.87060       -2.07750       -7.76890
C         -4.82660       -2.86290       -8.21630
C         -4.02450       -3.55340       -7.32420
C         -4.28290       -3.46580       -5.96340
S         -3.31670       -4.27550       -4.72150
C         -2.57570       -5.70370       -5.58870
C         -3.62250       -6.69540       -6.05710
C         -5.32990       -2.67460       -5.50740
C         -7.03790       -0.18520       -4.91360
C         -8.06120        0.70200       -4.48430
C         -9.33890        0.65420       -5.06880
C        -10.41310        1.55800       -4.63640
C        -10.19970        2.92750       -4.49970
C        -11.22430        3.74790       -4.06210
C        -12.47710        3.22890       -3.79570
C        -12.70810        1.86880       -3.96860
S        -14.34000        1.24230       -3.68920
C        -14.50670       -0.01870       -5.01490
C        -14.33740       -1.44470       -4.52960
C        -11.67100        1.03610       -4.35470
C         -9.53720       -0.31910       -6.03500
S        -11.02990       -0.64090       -6.86550
C         -7.63910        1.52560       -3.41830
C         -6.35100        1.29810       -3.02170
S         -5.56980        0.07060       -4.00490
C         -5.63760        1.89280       -1.94260
C         -6.10340        2.71330       -0.92860
C         -7.49690        3.11400       -0.69720
C         -8.49780        2.16020       -0.53340
C         -9.80180        2.56160       -0.31360
C        -10.11380        3.90780       -0.24130
C         -9.12200        4.87200       -0.37080
C         -9.46580        6.33250       -0.30650
C        -10.02010        6.81500       -1.64800
C         -7.81620        4.46310       -0.59920
C         -5.05790        3.10490       -0.07160
S         -5.03100        4.07030        1.38570
C         -3.34160        3.72550        1.55110
C         -2.27900        3.99310        2.42930
C         -2.21010        4.80860        3.57910
C         -0.95810        4.93190        4.26850
N         -1.02940        5.75370        5.30400
S         -2.54230        6.32190        5.40390
N         -3.16610        5.54000        4.13030
C          0.13980        4.15990        3.83140
C          1.41080        3.96730        4.39640
S          2.34910        4.51140        5.74770
C          3.61310        3.39250        5.29150
C          4.87800        3.10550        5.83980
C          5.39870        3.74560        7.05000
C          4.59900        3.81860        8.18660
C          5.09750        4.38400        9.34490
C          6.39340        4.86490        9.38520
C          7.19940        4.81890        8.25460
C          8.59020        5.38390        8.28520
C          8.56920        6.88340        7.98330
C          6.68480        4.27610        7.08820
C          5.54340        2.13930        5.10220
S          4.58560        1.57310        3.73590
C          3.30890        2.65900        4.14470
C          2.04960        2.99070        3.63080
N          1.24440        2.59920        2.59630
C          0.05360        3.30260        2.69730
C         -1.14120        3.29780        1.92960
N         -1.50280        2.66660        0.74840
C         -2.83040        2.92230        0.53010
C         -3.81130        2.56970       -0.40420
S         -3.90970        1.59430       -1.82510
C         -0.68370        2.20290       -0.34960
C          0.27520        3.28910       -0.83110
C          1.55870        1.38560        1.87780
C          0.63530        0.23890        2.28220
C          6.76220        1.47140        5.40810
C          7.58320        0.73690        4.55650
N          7.49340        0.72770        3.17280
C          7.93630       -0.41590        2.48860
C          7.59280       -1.68060        2.95970
C          8.09800       -2.81350        2.35550
C          8.94970       -2.69670        1.26660
S          9.67380       -4.11050        0.49020
C         10.02100       -5.15630        1.93710
C          9.24840       -1.43860        0.75620
C          8.75180       -0.30640        1.36350
C          7.21150        1.90210        2.46600
C          7.55660        3.15670        2.97070
C          7.21150        4.30120        2.28900
C          6.52520        4.22590        1.07860
S          6.11400        5.76370        0.31350
C          5.40830        5.28090       -1.28820
C          6.20350        2.98060        0.55660
C          6.54190        1.83300        1.24570
C          8.58710        0.04470        5.27760
S          9.83830       -1.05780        4.82930
C         10.38970       -1.13290        6.50790
C          9.64730       -0.26570        7.34670
N          9.94920        0.02040        8.65120
C         11.29100       -0.00750        9.09250
C         11.62270       -0.69220       10.25710
C         12.94790       -0.85750       10.60560
C         13.94960       -0.32920        9.80100
S         15.65990       -0.62100       10.13380
C         15.61200       -2.37500       10.61560
C         13.61350        0.44340        8.69400
C         12.29190        0.60370        8.33990
C          8.96680        0.53600        9.51130
C          7.70570       -0.04930        9.57530
C          6.72210        0.48840       10.38210
C          6.98840        1.62030       11.13990
S          5.80300        2.40370       12.18080
C          4.22900        1.65800       11.66850
C          8.26490        2.18000       11.11250
C          9.24600        1.64410       10.31050
C          8.58530        0.32180        6.63920
S          7.30500        1.40350        7.08090
C         11.39630       -1.99400        6.93870
C         12.18850       -2.87090        6.23980
C         12.17040       -3.23700        4.83450
O         11.38840       -2.87430        3.96840
C         13.28490       -4.20110        4.64930
C         13.71200       -4.83960        3.50200
C         14.79620       -5.70460        3.59880
C         15.43100       -5.91990        4.81260
C         15.00330       -5.27610        5.96860
C         13.92610       -4.41760        5.87600
C         13.26020       -3.60340        6.92400
O         13.55290       -3.54340        8.10470
H        -12.21900       -2.42210       -8.43600
H         -8.14490       -6.11060      -11.45200
H        -13.17700       -6.43790      -11.92770
H        -11.62310       -7.91880      -14.59830
H        -12.51650       -9.81520      -12.95540
H        -11.45430      -10.97460      -15.06090
H         -8.81070      -10.84070      -14.83310
H         -8.24520       -9.60020      -12.58730
H        -10.53880       -9.18120      -11.25110
H        -10.40880      -10.88030      -11.75920
H         -9.03030       -7.78810      -14.37610
H         -8.36790       -2.92890       -7.81990
H         -6.47440       -1.52650       -8.47320
H         -4.62720       -2.93650       -9.27490
H         -3.20350       -4.14420       -7.69880
H         -1.95890       -5.33460       -6.40760
H         -1.92340       -6.14920       -4.83760
H         -4.29490       -6.23840       -6.78040
H         -4.21290       -7.04440       -5.21300
H         -3.13900       -7.55190       -6.52320
H         -5.52740       -2.63170       -4.44720
H         -9.24060        3.35040       -4.75830
H        -11.04850        4.80740       -3.95090
H        -13.28570        3.86620       -3.47320
H        -15.51260        0.12950       -5.40700
H        -13.78200        0.23680       -5.78650
H        -15.07720       -1.67610       -3.76690
H        -14.47180       -2.12480       -5.36850
H        -13.34880       -1.60750       -4.10580
H        -11.82890       -0.02800       -4.41980
H         -8.28000        2.24480       -2.94680
H         -8.24810        1.11040       -0.58000
H        -10.57910        1.82110       -0.19750
H        -11.13610        4.21260       -0.07170
H        -10.21440        6.49920        0.47060
H         -8.57540        6.91040       -0.05250
H        -10.25500        7.87590       -1.60340
H        -10.92670        6.26890       -1.89890
H         -9.28980        6.65400       -2.43860
H         -7.03460        5.20100       -0.71170
H          3.59530        3.42030        8.15960
H          4.47630        4.44440       10.22610
H          6.78210        5.28160       10.30270
H          9.02940        5.21930        9.27140
H          9.21240        4.87450        7.54640
H          7.96560        7.40850        8.71990
H          8.14130        7.06500        6.99990
H          9.57730        7.29080        8.00500
H          7.29020        4.25750        6.19260
H         -1.37000        1.94490       -1.16000
H         -0.15350        1.28870       -0.08020
H         -0.28740        4.14800       -1.19000
H          0.88490        2.90910       -1.64680
H          0.92670        3.62440       -0.02730
H          2.58820        1.12880        2.14040
H          1.53770        1.55880        0.80190
H         -0.40720        0.49060        2.10230
H          0.75440        0.02580        3.34200
H          0.88500       -0.65600        1.71870
H          6.93290       -1.77020        3.81040
H          7.82910       -3.78400        2.74130
H         10.40020       -4.51910        2.73080
H         10.77690       -5.87020        1.62490
H          9.12590       -5.68710        2.24880
H          9.89910       -1.35770       -0.10060
H          9.01920        0.67080        0.98950
H          8.10240        3.22920        3.89930
H          7.47370        5.27100        2.68370
H          6.12570        4.68400       -1.84360
H          5.21680        6.21110       -1.81400
H          4.47550        4.74380       -1.14100
H          5.67650        2.88690       -0.37930
H          6.27170        0.86750        0.84500
H         10.83950       -1.12610       10.86120
H         13.19820       -1.41900       11.49130
H         16.62640       -2.74430       10.50360
H         15.29710       -2.47850       11.64990
H         14.94090       -2.89960        9.94140
H         14.39810        0.88960        8.10320
H         12.02700        1.16540        7.45650
H          7.49760       -0.93290        8.99030
H          5.75580        0.01230       10.41100
H          4.17650        0.62380       11.99680
H          4.12650        1.73970       10.59050
H          3.45400        2.23610       12.16230
H          8.46960        3.04740       11.72060
H         10.22940        2.08890       10.27960
H         11.60570       -1.98910        8.00250
H         13.21800       -4.66150        2.55890
H         15.15030       -6.21550        2.71550
H         16.27110       -6.59710        4.86020
H         15.49460       -5.43780        6.91600
