
  xtb     02152206573D
 energy: -344.615623702936 gnorm: 0.000360618442 xtb: 6.4.1 (unknown)
196218  0     0  0            999 V2000
   -6.1267   -5.1289   -2.4513 C   0  0  0  0  0  0  0  0  0  0  0  0
   -5.1147   -6.0340   -2.3394 C   0  0  0  0  0  0  0  0  0  0  0  0
   -5.1035   -7.2784   -3.1614 C   0  0  0  0  0  0  0  0  0  0  0  0
   -6.0239   -7.7339   -3.7978 O   0  0  0  0  0  0  0  0  0  0  0  0
   -3.7152   -7.7780   -3.0846 C   0  0  0  0  0  0  0  0  0  0  0  0
   -3.1617   -8.8422   -3.7928 C   0  0  0  0  0  0  0  0  0  0  0  0
   -1.8291   -9.0583   -3.5314 C   0  0  0  0  0  0  0  0  0  0  0  0
   -1.0964   -8.2778   -2.6262 C   0  0  0  0  0  0  0  0  0  0  0  0
   -1.6289   -7.2288   -1.9161 C   0  0  0  0  0  0  0  0  0  0  0  0
   -2.9813   -6.9895   -2.1721 C   0  0  0  0  0  0  0  0  0  0  0  0
   -3.8759   -5.9912   -1.5956 C   0  0  0  0  0  0  0  0  0  0  0  0
   -3.6499   -5.2927   -0.4349 C   0  0  0  0  0  0  0  0  0  0  0  0
   -2.4163   -5.2558    0.2417 C   0  0  0  0  0  0  0  0  0  0  0  0
   -1.4240   -5.1298    0.8080 N   0  0  0  0  0  0  0  0  0  0  0  0
   -4.6344   -4.5551    0.2547 C   0  0  0  0  0  0  0  0  0  0  0  0
   -5.3922   -3.9927    0.9091 N   0  0  0  0  0  0  0  0  0  0  0  0
    0.1768   -9.0475   -2.8670 C   0  0  0  0  0  0  0  0  0  0  0  0
    1.2567   -8.3918   -3.7628 C   0  0  0  0  0  0  0  0  0  0  0  0
    0.5291   -7.4494   -4.6893 C   0  0  0  0  0  0  0  0  0  0  0  0
   -0.1639   -8.1828   -5.5502 C   0  0  0  0  0  0  0  0  0  0  0  0
    0.0830   -9.6346   -5.2224 C   0  0  0  0  0  0  0  0  0  0  0  0
    1.5357   -9.5567   -4.7259 C   0  0  0  0  0  0  0  0  0  0  0  0
   -0.6370   -9.9142   -3.8793 C   0  0  0  0  0  0  0  0  0  0  0  0
   -6.1061   -3.7694   -2.0491 C   0  0  0  0  0  0  0  0  0  0  0  0
   -7.1487   -3.0231   -1.5121 C   0  0  0  0  0  0  0  0  0  0  0  0
   -6.6123   -1.7939   -1.0550 C   0  0  0  0  0  0  0  0  0  0  0  0
   -5.2279   -1.7170   -1.4431 C   0  0  0  0  0  0  0  0  0  0  0  0
   -4.3945   -0.8372   -1.3776 O   0  0  0  0  0  0  0  0  0  0  0  0
   -4.9770   -2.9698   -2.0384 N   0  0  0  0  0  0  0  0  0  0  0  0
   -3.7635   -3.1678   -2.7862 C   0  0  0  0  0  0  0  0  0  0  0  0
   -7.6165   -1.0754   -0.4168 C   0  0  0  0  0  0  0  0  0  0  0  0
   -8.7745   -1.7926   -0.5183 N   0  0  0  0  0  0  0  0  0  0  0  0
  -10.0373   -1.4557    0.0786 C   0  0  0  0  0  0  0  0  0  0  0  0
   -8.5546   -3.0468   -1.1480 C   0  0  0  0  0  0  0  0  0  0  0  0
   -9.4292   -3.8641   -1.3114 O   0  0  0  0  0  0  0  0  0  0  0  0
   -7.3432    0.1132    0.3280 C   0  0  0  0  0  0  0  0  0  0  0  0
   -7.8972    1.3864    0.3708 C   0  0  0  0  0  0  0  0  0  0  0  0
   -9.0781    1.8037   -0.3766 C   0  0  0  0  0  0  0  0  0  0  0  0
   -9.9349    2.7676    0.1512 C   0  0  0  0  0  0  0  0  0  0  0  0
  -11.0544    3.1567   -0.5586 C   0  0  0  0  0  0  0  0  0  0  0  0
  -11.3284    2.5994   -1.7958 C   0  0  0  0  0  0  0  0  0  0  0  0
  -10.4782    1.6472   -2.3458 C   0  0  0  0  0  0  0  0  0  0  0  0
  -10.7390    1.0776   -3.7104 C   0  0  0  0  0  0  0  0  0  0  0  0
  -10.0535    1.9279   -4.7819 C   0  0  0  0  0  0  0  0  0  0  0  0
   -9.3548    1.2619   -1.6303 C   0  0  0  0  0  0  0  0  0  0  0  0
   -7.0854    2.2578    1.1303 C   0  0  0  0  0  0  0  0  0  0  0  0
   -7.0397    4.0010    1.3638 S   0  0  0  0  0  0  0  0  0  0  0  0
   -5.4663    3.8670    2.0986 C   0  0  0  0  0  0  0  0  0  0  0  0
   -4.3691    4.6530    2.5085 C   0  0  0  0  0  0  0  0  0  0  0  0
   -4.1505    6.0463    2.6252 C   0  0  0  0  0  0  0  0  0  0  0  0
   -2.8389    6.5370    2.9727 C   0  0  0  0  0  0  0  0  0  0  0  0
   -2.8057    7.8559    3.0622 N   0  0  0  0  0  0  0  0  0  0  0  0
   -4.2817    8.4371    2.7396 S   0  0  0  0  0  0  0  0  0  0  0  0
   -5.0257    7.0252    2.4664 N   0  0  0  0  0  0  0  0  0  0  0  0
   -1.7593    5.6266    3.0774 C   0  0  0  0  0  0  0  0  0  0  0  0
   -0.3614    5.7910    3.0991 C   0  0  0  0  0  0  0  0  0  0  0  0
    0.8584    7.0317    3.0957 S   0  0  0  0  0  0  0  0  0  0  0  0
    2.0937    5.8042    2.8259 C   0  0  0  0  0  0  0  0  0  0  0  0
    3.4785    5.8437    2.5991 C   0  0  0  0  0  0  0  0  0  0  0  0
    4.2366    7.0890    2.7387 C   0  0  0  0  0  0  0  0  0  0  0  0
    5.3357    7.1536    3.5939 C   0  0  0  0  0  0  0  0  0  0  0  0
    5.9949    8.3536    3.7759 C   0  0  0  0  0  0  0  0  0  0  0  0
    5.5695    9.4920    3.1123 C   0  0  0  0  0  0  0  0  0  0  0  0
    4.4689    9.4480    2.2657 C   0  0  0  0  0  0  0  0  0  0  0  0
    4.0265   10.6693    1.5138 C   0  0  0  0  0  0  0  0  0  0  0  0
    4.7186   10.7343    0.1507 C   0  0  0  0  0  0  0  0  0  0  0  0
    3.8068    8.2417    2.0909 C   0  0  0  0  0  0  0  0  0  0  0  0
    3.9893    4.5710    2.3140 C   0  0  0  0  0  0  0  0  0  0  0  0
    2.7665    3.3152    2.4563 S   0  0  0  0  0  0  0  0  0  0  0  0
    1.5673    4.5129    2.7860 C   0  0  0  0  0  0  0  0  0  0  0  0
    0.1867    4.5091    2.9589 C   0  0  0  0  0  0  0  0  0  0  0  0
   -0.7932    3.5634    2.9093 N   0  0  0  0  0  0  0  0  0  0  0  0
   -1.9998    4.2257    2.9664 C   0  0  0  0  0  0  0  0  0  0  0  0
   -3.3176    3.7430    2.8195 C   0  0  0  0  0  0  0  0  0  0  0  0
   -3.7892    2.4497    2.7085 N   0  0  0  0  0  0  0  0  0  0  0  0
   -5.0614    2.5358    2.2249 C   0  0  0  0  0  0  0  0  0  0  0  0
   -5.9587    1.6294    1.6659 C   0  0  0  0  0  0  0  0  0  0  0  0
   -5.8606   -0.0315    1.2500 S   0  0  0  0  0  0  0  0  0  0  0  0
   -3.3674    1.2353    3.3780 C   0  0  0  0  0  0  0  0  0  0  0  0
   -2.9311    1.5014    4.8145 C   0  0  0  0  0  0  0  0  0  0  0  0
   -0.4724    2.2502    2.3952 C   0  0  0  0  0  0  0  0  0  0  0  0
   -0.9066    2.0953    0.9418 C   0  0  0  0  0  0  0  0  0  0  0  0
    5.2575    4.1783    1.8013 C   0  0  0  0  0  0  0  0  0  0  0  0
    6.2807    5.0484    1.4148 C   0  0  0  0  0  0  0  0  0  0  0  0
    7.4669    4.5976    0.8683 C   0  0  0  0  0  0  0  0  0  0  0  0
    7.7334    3.2423    0.6440 C   0  0  0  0  0  0  0  0  0  0  0  0
    6.6998    2.3141    1.0044 C   0  0  0  0  0  0  0  0  0  0  0  0
    6.8456    1.0057    0.7491 N   0  0  0  0  0  0  0  0  0  0  0  0
    5.8841    0.1619    1.0538 C   0  0  0  0  0  0  0  0  0  0  0  0
    6.0831   -1.2463    0.6988 C   0  0  0  0  0  0  0  0  0  0  0  0
    7.3560   -1.7993    0.7947 C   0  0  0  0  0  0  0  0  0  0  0  0
    7.5452   -3.1357    0.4869 C   0  0  0  0  0  0  0  0  0  0  0  0
    6.4821   -3.9262    0.1011 C   0  0  0  0  0  0  0  0  0  0  0  0
    5.2006   -3.3786   -0.0058 C   0  0  0  0  0  0  0  0  0  0  0  0
    4.2111   -4.2323   -0.3779 O   0  0  0  0  0  0  0  0  0  0  0  0
    2.8647   -3.8038   -0.2771 C   0  0  0  0  0  0  0  0  0  0  0  0
    1.9700   -5.0189   -0.4696 C   0  0  0  0  0  0  0  0  0  0  0  0
    5.0121   -2.0319    0.2703 C   0  0  0  0  0  0  0  0  0  0  0  0
    4.6977    0.6276    1.7021 C   0  0  0  0  0  0  0  0  0  0  0  0
    4.5449    1.9099    1.9187 N   0  0  0  0  0  0  0  0  0  0  0  0
    5.4962    2.7845    1.5749 C   0  0  0  0  0  0  0  0  0  0  0  0
    3.6425   -0.2894    2.1670 C   0  0  0  0  0  0  0  0  0  0  0  0
    3.9613   -1.3053    3.0668 C   0  0  0  0  0  0  0  0  0  0  0  0
    2.9801   -2.1892    3.4664 C   0  0  0  0  0  0  0  0  0  0  0  0
    1.6919   -2.1049    2.9611 C   0  0  0  0  0  0  0  0  0  0  0  0
    1.3684   -1.0991    2.0548 C   0  0  0  0  0  0  0  0  0  0  0  0
    0.1507   -0.9441    1.4703 O   0  0  0  0  0  0  0  0  0  0  0  0
   -0.8662   -1.9026    1.7226 C   0  0  0  0  0  0  0  0  0  0  0  0
   -2.0360   -1.6206    0.7926 C   0  0  0  0  0  0  0  0  0  0  0  0
    2.3479   -0.1748    1.6850 C   0  0  0  0  0  0  0  0  0  0  0  0
    8.9205    2.6783    0.1162 C   0  0  0  0  0  0  0  0  0  0  0  0
   10.0283    3.2014   -0.5028 C   0  0  0  0  0  0  0  0  0  0  0  0
   10.2566    4.5660   -1.0220 C   0  0  0  0  0  0  0  0  0  0  0  0
    9.6201    5.5779   -0.8354 O   0  0  0  0  0  0  0  0  0  0  0  0
   11.4655    4.4578   -1.8825 C   0  0  0  0  0  0  0  0  0  0  0  0
   11.9787    3.1517   -1.8267 C   0  0  0  0  0  0  0  0  0  0  0  0
   13.0973    2.8008   -2.5636 C   0  0  0  0  0  0  0  0  0  0  0  0
   13.6905    3.7761   -3.3519 C   0  0  0  0  0  0  0  0  0  0  0  0
   14.7664    3.4592   -4.0781 F   0  0  0  0  0  0  0  0  0  0  0  0
   13.1984    5.0775   -3.4137 C   0  0  0  0  0  0  0  0  0  0  0  0
   13.8006    5.9889   -4.1840 F   0  0  0  0  0  0  0  0  0  0  0  0
   12.0694    5.4233   -2.6677 C   0  0  0  0  0  0  0  0  0  0  0  0
   11.6023    6.6670   -2.7331 F   0  0  0  0  0  0  0  0  0  0  0  0
   11.1436    2.3709   -0.9155 C   0  0  0  0  0  0  0  0  0  0  0  0
   11.4376    1.1066   -0.4728 C   0  0  0  0  0  0  0  0  0  0  0  0
   10.7349    0.3942    0.5223 C   0  0  0  0  0  0  0  0  0  0  0  0
   10.2721   -0.2567    1.3482 N   0  0  0  0  0  0  0  0  0  0  0  0
   12.5434    0.3511   -0.9160 C   0  0  0  0  0  0  0  0  0  0  0  0
   13.4175   -0.3184   -1.2415 N   0  0  0  0  0  0  0  0  0  0  0  0
   -7.0451   -5.4792   -2.9096 H   0  0  0  0  0  0  0  0  0  0  0  0
   -3.7598   -9.4240   -4.4763 H   0  0  0  0  0  0  0  0  0  0  0  0
   -1.0524   -6.6319   -1.2289 H   0  0  0  0  0  0  0  0  0  0  0  0
    0.6033   -9.5437   -1.9979 H   0  0  0  0  0  0  0  0  0  0  0  0
    2.1019   -7.9768   -3.2203 H   0  0  0  0  0  0  0  0  0  0  0  0
    0.5489   -6.3795   -4.5927 H   0  0  0  0  0  0  0  0  0  0  0  0
   -0.8392   -7.8484   -6.3159 H   0  0  0  0  0  0  0  0  0  0  0  0
   -0.1393  -10.3489   -6.0105 H   0  0  0  0  0  0  0  0  0  0  0  0
    1.8726  -10.4629   -4.2248 H   0  0  0  0  0  0  0  0  0  0  0  0
    2.2364   -9.2909   -5.5156 H   0  0  0  0  0  0  0  0  0  0  0  0
   -0.7367  -10.9784   -3.6763 H   0  0  0  0  0  0  0  0  0  0  0  0
   -3.4720   -2.2000   -3.1995 H   0  0  0  0  0  0  0  0  0  0  0  0
   -2.9446   -3.5167   -2.1525 H   0  0  0  0  0  0  0  0  0  0  0  0
   -3.9255   -3.8800   -3.5938 H   0  0  0  0  0  0  0  0  0  0  0  0
   -9.8954   -1.1261    1.1086 H   0  0  0  0  0  0  0  0  0  0  0  0
  -10.5355   -0.6620   -0.4829 H   0  0  0  0  0  0  0  0  0  0  0  0
  -10.6542   -2.3538    0.0573 H   0  0  0  0  0  0  0  0  0  0  0  0
   -9.7286    3.1946    1.1206 H   0  0  0  0  0  0  0  0  0  0  0  0
  -11.7198    3.8987   -0.1434 H   0  0  0  0  0  0  0  0  0  0  0  0
  -12.2071    2.9076   -2.3433 H   0  0  0  0  0  0  0  0  0  0  0  0
  -11.8134    1.0539   -3.9021 H   0  0  0  0  0  0  0  0  0  0  0  0
  -10.3592    0.0550   -3.7647 H   0  0  0  0  0  0  0  0  0  0  0  0
  -10.4300    2.9479   -4.7537 H   0  0  0  0  0  0  0  0  0  0  0  0
   -8.9792    1.9555   -4.6134 H   0  0  0  0  0  0  0  0  0  0  0  0
  -10.2401    1.5153   -5.7704 H   0  0  0  0  0  0  0  0  0  0  0  0
   -8.6688    0.5465   -2.0621 H   0  0  0  0  0  0  0  0  0  0  0  0
    5.6575    6.2653    4.1179 H   0  0  0  0  0  0  0  0  0  0  0  0
    6.8438    8.4027    4.4416 H   0  0  0  0  0  0  0  0  0  0  0  0
    6.0923   10.4260    3.2586 H   0  0  0  0  0  0  0  0  0  0  0  0
    4.2726   11.5657    2.0862 H   0  0  0  0  0  0  0  0  0  0  0  0
    2.9448   10.6411    1.3691 H   0  0  0  0  0  0  0  0  0  0  0  0
    4.3980   11.6177   -0.3963 H   0  0  0  0  0  0  0  0  0  0  0  0
    5.7983   10.7754    0.2749 H   0  0  0  0  0  0  0  0  0  0  0  0
    4.4765    9.8534   -0.4397 H   0  0  0  0  0  0  0  0  0  0  0  0
    2.9514    8.1924    1.4329 H   0  0  0  0  0  0  0  0  0  0  0  0
   -2.5891    0.7244    2.8081 H   0  0  0  0  0  0  0  0  0  0  0  0
   -4.2367    0.5721    3.3851 H   0  0  0  0  0  0  0  0  0  0  0  0
   -2.6521    0.5650    5.2904 H   0  0  0  0  0  0  0  0  0  0  0  0
   -3.7496    1.9451    5.3772 H   0  0  0  0  0  0  0  0  0  0  0  0
   -2.0834    2.1802    4.8577 H   0  0  0  0  0  0  0  0  0  0  0  0
    0.6126    2.1498    2.4579 H   0  0  0  0  0  0  0  0  0  0  0  0
   -0.8936    1.4722    3.0268 H   0  0  0  0  0  0  0  0  0  0  0  0
   -0.4279    2.8575    0.3308 H   0  0  0  0  0  0  0  0  0  0  0  0
   -0.6062    1.1163    0.5821 H   0  0  0  0  0  0  0  0  0  0  0  0
   -1.9835    2.1969    0.8323 H   0  0  0  0  0  0  0  0  0  0  0  0
    6.1428    6.1106    1.5323 H   0  0  0  0  0  0  0  0  0  0  0  0
    8.2108    5.3266    0.5936 H   0  0  0  0  0  0  0  0  0  0  0  0
    8.1815   -1.1864    1.1209 H   0  0  0  0  0  0  0  0  0  0  0  0
    8.5327   -3.5647    0.5615 H   0  0  0  0  0  0  0  0  0  0  0  0
    6.6131   -4.9726   -0.1253 H   0  0  0  0  0  0  0  0  0  0  0  0
    2.6891   -3.3591    0.7118 H   0  0  0  0  0  0  0  0  0  0  0  0
    2.6485   -3.0467   -1.0442 H   0  0  0  0  0  0  0  0  0  0  0  0
    0.9309   -4.7401   -0.3161 H   0  0  0  0  0  0  0  0  0  0  0  0
    2.2371   -5.7878    0.2501 H   0  0  0  0  0  0  0  0  0  0  0  0
    2.0921   -5.4229   -1.4711 H   0  0  0  0  0  0  0  0  0  0  0  0
    4.0445   -1.5792    0.1332 H   0  0  0  0  0  0  0  0  0  0  0  0
    4.9676   -1.3932    3.4461 H   0  0  0  0  0  0  0  0  0  0  0  0
    3.2188   -2.9717    4.1707 H   0  0  0  0  0  0  0  0  0  0  0  0
    0.9550   -2.8272    3.2734 H   0  0  0  0  0  0  0  0  0  0  0  0
   -0.4894   -2.9157    1.5366 H   0  0  0  0  0  0  0  0  0  0  0  0
   -1.1876   -1.8351    2.7716 H   0  0  0  0  0  0  0  0  0  0  0  0
   -2.4150   -0.6120    0.9221 H   0  0  0  0  0  0  0  0  0  0  0  0
   -2.8419   -2.3189    0.9999 H   0  0  0  0  0  0  0  0  0  0  0  0
   -1.7296   -1.7306   -0.2435 H   0  0  0  0  0  0  0  0  0  0  0  0
    2.0943    0.6046    0.9838 H   0  0  0  0  0  0  0  0  0  0  0  0
    8.9027    1.5960    0.1932 H   0  0  0  0  0  0  0  0  0  0  0  0
   13.5198    1.8100   -2.5569 H   0  0  0  0  0  0  0  0  0  0  0  0
  1  2  2  0  0  0  0
  2  3  1  0  0  0  0
  3  4  2  0  0  0  0
  3  5  1  0  0  0  0
  5  6  2  0  0  0  0
  6  7  1  0  0  0  0
  7  8  2  0  0  0  0
  8  9  1  0  0  0  0
  9 10  2  0  0  0  0
 10 11  1  0  0  0  0
 11 12  2  0  0  0  0
 12 13  1  0  0  0  0
 13 14  3  0  0  0  0
 12 15  1  0  0  0  0
 15 16  3  0  0  0  0
  8 17  1  0  0  0  0
 17 18  1  0  0  0  0
 18 19  1  0  0  0  0
 19 20  2  0  0  0  0
 20 21  1  0  0  0  0
 21 22  1  0  0  0  0
 21 23  1  0  0  0  0
  1 24  1  0  0  0  0
 24 25  2  0  0  0  0
 25 26  1  0  0  0  0
 26 27  1  0  0  0  0
 27 28  2  0  0  0  0
 27 29  1  0  0  0  0
 29 30  1  0  0  0  0
 26 31  2  0  0  0  0
 31 32  1  0  0  0  0
 32 33  1  0  0  0  0
 32 34  1  0  0  0  0
 34 35  2  0  0  0  0
 31 36  1  0  0  0  0
 36 37  2  0  0  0  0
 37 38  1  0  0  0  0
 38 39  2  0  0  0  0
 39 40  1  0  0  0  0
 40 41  2  0  0  0  0
 41 42  1  0  0  0  0
 42 43  1  0  0  0  0
 43 44  1  0  0  0  0
 42 45  2  0  0  0  0
 37 46  1  0  0  0  0
 46 47  1  0  0  0  0
 47 48  1  0  0  0  0
 48 49  1  0  0  0  0
 49 50  1  0  0  0  0
 50 51  1  0  0  0  0
 51 52  2  0  0  0  0
 52 53  1  0  0  0  0
 53 54  1  0  0  0  0
 51 55  1  0  0  0  0
 55 56  1  0  0  0  0
 56 57  1  0  0  0  0
 57 58  1  0  0  0  0
 58 59  1  0  0  0  0
 59 60  1  0  0  0  0
 60 61  2  0  0  0  0
 61 62  1  0  0  0  0
 62 63  2  0  0  0  0
 63 64  1  0  0  0  0
 64 65  1  0  0  0  0
 65 66  1  0  0  0  0
 64 67  2  0  0  0  0
 59 68  2  0  0  0  0
 68 69  1  0  0  0  0
 69 70  1  0  0  0  0
 70 71  1  0  0  0  0
 71 72  1  0  0  0  0
 72 73  1  0  0  0  0
 73 74  1  0  0  0  0
 74 75  1  0  0  0  0
 75 76  1  0  0  0  0
 76 77  1  0  0  0  0
 77 78  1  0  0  0  0
 75 79  1  0  0  0  0
 79 80  1  0  0  0  0
 72 81  1  0  0  0  0
 81 82  1  0  0  0  0
 68 83  1  0  0  0  0
 83 84  2  0  0  0  0
 84 85  1  0  0  0  0
 85 86  2  0  0  0  0
 86 87  1  0  0  0  0
 87 88  2  0  0  0  0
 88 89  1  0  0  0  0
 89 90  1  0  0  0  0
 90 91  2  0  0  0  0
 91 92  1  0  0  0  0
 92 93  2  0  0  0  0
 93 94  1  0  0  0  0
 94 95  1  0  0  0  0
 95 96  1  0  0  0  0
 96 97  1  0  0  0  0
 94 98  2  0  0  0  0
 89 99  2  0  0  0  0
 99100  1  0  0  0  0
100101  2  0  0  0  0
 99102  1  0  0  0  0
102103  2  0  0  0  0
103104  1  0  0  0  0
104105  2  0  0  0  0
105106  1  0  0  0  0
106107  1  0  0  0  0
107108  1  0  0  0  0
108109  1  0  0  0  0
106110  2  0  0  0  0
 86111  1  0  0  0  0
111112  2  0  0  0  0
112113  1  0  0  0  0
113114  2  0  0  0  0
113115  1  0  0  0  0
115116  2  0  0  0  0
116117  1  0  0  0  0
117118  2  0  0  0  0
118119  1  0  0  0  0
118120  1  0  0  0  0
120121  1  0  0  0  0
120122  2  0  0  0  0
122123  1  0  0  0  0
116124  1  0  0  0  0
124125  2  0  0  0  0
125126  1  0  0  0  0
126127  3  0  0  0  0
125128  1  0  0  0  0
128129  3  0  0  0  0
 11  2  1  0  0  0  0
 23 17  1  0  0  0  0
 29 24  1  0  0  0  0
 78 36  1  0  0  0  0
101 83  1  0  0  0  0
110102  1  0  0  0  0
124112  1  0  0  0  0
 10  5  1  0  0  0  0
 22 18  1  0  0  0  0
 34 25  1  0  0  0  0
 45 38  1  0  0  0  0
 77 46  2  0  0  0  0
101 87  1  0  0  0  0
122115  1  0  0  0  0
 23  7  1  0  0  0  0
 76 48  2  0  0  0  0
 98 90  1  0  0  0  0
 74 49  2  0  0  0  0
 54 50  2  0  0  0  0
 73 55  2  0  0  0  0
 71 56  2  0  0  0  0
 70 58  2  0  0  0  0
 67 60  1  0  0  0  0
  1130  1  0  0  0  0
  6131  1  0  0  0  0
  9132  1  0  0  0  0
 17133  1  0  0  0  0
 18134  1  0  0  0  0
 19135  1  0  0  0  0
 20136  1  0  0  0  0
 21137  1  0  0  0  0
 22138  1  0  0  0  0
 22139  1  0  0  0  0
 23140  1  0  0  0  0
 30141  1  0  0  0  0
 30142  1  0  0  0  0
 30143  1  0  0  0  0
 33144  1  0  0  0  0
 33145  1  0  0  0  0
 33146  1  0  0  0  0
 39147  1  0  0  0  0
 40148  1  0  0  0  0
 41149  1  0  0  0  0
 43150  1  0  0  0  0
 43151  1  0  0  0  0
 44152  1  0  0  0  0
 44153  1  0  0  0  0
 44154  1  0  0  0  0
 45155  1  0  0  0  0
 61156  1  0  0  0  0
 62157  1  0  0  0  0
 63158  1  0  0  0  0
 65159  1  0  0  0  0
 65160  1  0  0  0  0
 66161  1  0  0  0  0
 66162  1  0  0  0  0
 66163  1  0  0  0  0
 67164  1  0  0  0  0
 79165  1  0  0  0  0
 79166  1  0  0  0  0
 80167  1  0  0  0  0
 80168  1  0  0  0  0
 80169  1  0  0  0  0
 81170  1  0  0  0  0
 81171  1  0  0  0  0
 82172  1  0  0  0  0
 82173  1  0  0  0  0
 82174  1  0  0  0  0
 84175  1  0  0  0  0
 85176  1  0  0  0  0
 91177  1  0  0  0  0
 92178  1  0  0  0  0
 93179  1  0  0  0  0
 96180  1  0  0  0  0
 96181  1  0  0  0  0
 97182  1  0  0  0  0
 97183  1  0  0  0  0
 97184  1  0  0  0  0
 98185  1  0  0  0  0
103186  1  0  0  0  0
104187  1  0  0  0  0
105188  1  0  0  0  0
108189  1  0  0  0  0
108190  1  0  0  0  0
109191  1  0  0  0  0
109192  1  0  0  0  0
109193  1  0  0  0  0
110194  1  0  0  0  0
111195  1  0  0  0  0
117196  1  0  0  0  0
M  END
