211

C         -2.08010      -10.68650        5.87840
C         -1.37440      -10.61930        7.04450
C         -0.07190       -9.93130        7.20720
O          0.49340       -9.19350        6.42440
C          0.46570      -10.39360        8.49850
C          1.69270      -10.04470        9.06150
C          1.91710      -10.59630       10.29890
C          0.99720      -11.44740       10.92710
C         -0.20630      -11.81610       10.37490
C         -0.46060      -11.25600        9.11860
C         -1.61930      -11.39940        8.24260
C         -2.77020      -12.08220        8.53680
C         -2.98400      -12.81400        9.72300
N         -3.22140      -13.43090       10.66190
C         -3.91450      -12.12350        7.71170
N         -4.89160      -12.18430        7.11170
C          1.86640      -11.61510       12.14850
C          1.45530      -10.80890       13.39910
C          2.70970      -10.78560       14.24250
C          3.58100       -9.98070       13.64780
C          2.93020       -9.44650       12.39230
C          1.47200       -9.37140       12.86300
C          2.89160      -10.66670       11.44760
C         -1.91950       -9.82030        4.76870
C         -1.57410       -8.49320        4.75770
C         -1.51810       -7.93110        3.46650
C         -1.17400       -6.61230        3.11230
C         -0.87520       -5.57420        4.10990
C         -1.53500       -4.34880        4.02720
C         -1.24390       -3.33690        4.92250
C         -0.30190       -3.53660        5.91350
C          0.34740       -4.76140        6.01190
S          1.57560       -4.92700        7.28400
C          1.19860       -6.57180        7.98090
C         -0.16800       -6.60380        8.63680
C          0.07060       -5.77800        5.11000
C         -1.14340       -6.32830        1.75840
C         -1.44750       -7.27970        0.75000
C         -1.82110       -8.58680        1.10480
C         -2.13120       -9.59620        0.08250
C         -1.24460       -9.83600       -0.96670
C         -1.54960      -10.78510       -1.92180
C         -2.72520      -11.51310       -1.85250
C         -3.60450      -11.29200       -0.80090
S         -5.13530      -12.14380       -0.59040
C         -5.04340      -13.52430       -1.79300
C         -6.21150      -14.46280       -1.55630
C         -3.30490      -10.33110        0.15970
C         -1.85630       -8.87610        2.45920
S         -2.25970      -10.42130        3.15200
C         -1.33860       -6.73020       -0.54980
C         -0.91650       -5.43130       -0.56020
S         -0.67970       -4.79910        1.05910
C         -0.67920       -4.58370       -1.68170
C         -0.47220       -4.92700       -3.00450
C         -0.30850       -6.28190       -3.54000
C          0.61820       -7.16040       -2.98490
C          0.80510       -8.40750       -3.54860
C          0.07390       -8.78860       -4.66110
C         -0.85250       -7.92380       -5.22790
C         -1.60400       -8.30090       -6.47120
C         -0.87420       -7.77200       -7.70770
C         -1.03000       -6.66960       -4.66210
C         -0.34070       -3.78020       -3.81300
S         -0.03180       -3.57390       -5.52090
C          0.00480       -1.85920       -5.28070
C          0.24800       -0.68620       -6.01240
C          0.65570       -0.50050       -7.35120
C          0.99780        0.82020       -7.79400
N          1.42200        0.83950       -9.04780
S          1.38780       -0.67330       -9.62380
N          0.83250       -1.41280       -8.29410
C          0.81200        1.90570       -6.91070
C          0.97930        3.28640       -7.09950
S          1.54790        4.38970       -8.30630
C          1.19630        5.71660       -7.22130
C          1.34330        7.10940       -7.34320
C          1.81300        7.75200       -8.57270
C          2.96350        7.29450       -9.20810
C          3.39420        7.90520      -10.37090
C          2.68630        8.96650      -10.90770
C          1.52400        9.42220      -10.29750
C          0.77010       10.60190      -10.84040
C          1.07130       11.85210      -10.01110
C          1.09300        8.80160       -9.13520
C          0.92250        7.76210       -6.19270
S          0.29220        6.65400       -4.98490
C          0.65190        5.30590       -6.00060
C          0.53710        3.91220       -5.93170
N          0.12790        2.97550       -5.02070
C          0.30360        1.72550       -5.59210
C          0.12420        0.40340       -5.10430
N         -0.16340       -0.10990       -3.84890
C         -0.22150       -1.47270       -3.95830
C         -0.41580       -2.57430       -3.11430
S         -0.68570       -2.84540       -1.42990
C         -0.02610        0.49210       -2.54180
C          1.39090        1.00970       -2.30800
C         -0.69960        3.38440       -3.90780
C         -2.13870        2.90210       -4.07340
C          1.01870        9.14050       -5.82500
C          0.25770        9.63980       -4.74140
N         -0.68020        9.03980       -3.99720
N         -1.07150        9.95820       -3.16240
C         -2.12420        9.70710       -2.21740
C         -1.78090       10.27380       -0.84850
N         -0.49010       11.12440       -3.26250
C          0.38410       10.97560       -4.26690
C          1.27840       11.89580       -4.86470
C          1.95790       11.37480       -5.96540
C          1.87100       10.06450       -6.41930
F          2.81840       12.18190       -6.61510
C          1.45290       13.24670       -4.43580
C          1.25350       13.76450       -3.19780
C          1.08360       15.23430       -3.02200
O          1.31840       16.09460       -3.83940
C          0.51660       15.40220       -1.66880
C          0.06910       16.58340       -1.08110
C         -0.43240       16.42350        0.18840
C         -0.50310       15.17670        0.82490
C         -0.06120       14.00420        0.26060
C          0.47060       14.14870       -1.02340
C          1.06880       13.14860       -1.90280
C          1.57790       11.94430       -1.49500
C          2.36170       11.09380       -2.30060
N          3.03010       10.36340       -2.88210
C          1.44870       11.42710       -0.19150
N          1.35790       10.93320        0.84190
C         -1.12160       15.75810        2.07140
C         -0.20850       15.93780        3.30890
C          1.19740       16.09310        2.78370
C          1.27680       17.27370        2.18450
C         -0.07340       17.93790        2.29380
C         -0.52990       17.39940        3.65920
C         -1.03200       17.14880        1.36730
H         -2.79940      -11.48590        5.74730
H          2.37770       -9.39410        8.54130
H         -0.89630      -12.48410       10.86250
H          2.17080      -12.63390       12.37960
H          0.54570      -11.15320       13.88330
H          2.84950      -11.38020       15.12600
H          4.59410       -9.76850       13.93500
H          3.36470       -8.54900       11.96010
H          1.33230       -8.63610       13.65350
H          0.75590       -9.18660       12.06420
H          3.88090      -11.05280       11.20950
H         -1.40750       -7.92820        5.65500
H         -2.28880       -4.19870        3.26920
H         -1.75860       -2.39050        4.85170
H         -0.06200       -2.75500        6.61760
H          1.28050       -7.31690        7.19140
H          1.98800       -6.73380        8.71480
H         -0.94900       -6.40810        7.90340
H         -0.34520       -7.58370        9.07840
H         -0.23510       -5.85080        9.41910
H          0.60100       -6.71710        5.15830
H         -0.31450       -9.29180       -1.02020
H         -0.86450      -10.96190       -2.73740
H         -2.94190      -12.24080       -2.61770
H         -4.09340      -14.03480       -1.63370
H         -5.08160      -13.10340       -2.79830
H         -6.18420      -14.85420       -0.54220
H         -6.16460      -15.29540       -2.25510
H         -7.15430      -13.93970       -1.69770
H         -4.01040      -10.15350        0.95720
H         -1.58490       -7.27320       -1.44320
H          1.19540       -6.85480       -2.12460
H          1.53240       -9.08460       -3.12410
H          0.22990       -9.76390       -5.09980
H         -2.60970       -7.87680       -6.43860
H         -1.69230       -9.38700       -6.53850
H         -1.41720       -8.03630       -8.61210
H          0.12590       -8.19590       -7.76610
H         -0.78290       -6.68940       -7.65900
H         -1.74580       -5.98510       -5.09420
H          3.52430        6.47800       -8.77960
H          4.29130        7.55430      -10.85880
H          3.03610        9.44410      -11.81140
H          1.05530       10.77850      -11.87890
H         -0.30320       10.40040      -10.81040
H          0.55030       12.71460      -10.42000
H          0.75270       11.71200       -8.98050
H          2.13890       12.05960      -10.01070
H          0.18430        9.13600       -8.65430
H         -0.24630       -0.29300       -1.81420
H         -0.76970        1.27660       -2.39980
H          2.09840        0.18500       -2.35350
H          1.67330        1.74060       -3.06190
H          1.46030        1.47050       -1.32630
H         -0.26970        3.05120       -2.96250
H         -0.68480        4.47700       -3.89850
H         -2.57130        3.33070       -4.97450
H         -2.73510        3.21450       -3.22030
H         -2.18530        1.81900       -4.15830
H         -3.04300       10.17150       -2.59280
H         -2.26020        8.62450       -2.18780
H         -1.60940       11.34430       -0.92500
H         -0.88600        9.80420       -0.44800
H         -2.60350       10.09710       -0.16160
H          2.51070        9.77580       -7.23680
H          1.72960       13.96020       -5.20600
H          0.13110       17.52300       -1.60760
H         -0.12330       13.04970        0.75760
H         -2.10910       15.38330        2.33380
H         -0.35040       15.19260        4.08700
H          1.94840       15.32790        2.84920
H          2.10870       17.69270        1.64920
H         -0.09160       19.01500        2.14920
H          0.07280       17.77710        4.48380
H         -1.58520       17.57470        3.86440
H         -1.95940       17.68620        1.17770
