
  xtb     02122210403D
 energy: -366.153820945440 gnorm: 0.000481490445 xtb: 6.4.1 (unknown)
216243  0     0  0            999 V2000
    2.2098   -5.3435   -3.0629 C   0  0  0  0  0  0  0  0  0  0  0  0
    2.8353   -4.2751   -3.6412 C   0  0  0  0  0  0  0  0  0  0  0  0
    2.1573   -3.0929   -4.2339 C   0  0  0  0  0  0  0  0  0  0  0  0
    0.9677   -2.8928   -4.3637 O   0  0  0  0  0  0  0  0  0  0  0  0
    3.2151   -2.1102   -4.5075 C   0  0  0  0  0  0  0  0  0  0  0  0
    3.0453   -0.8660   -5.1124 C   0  0  0  0  0  0  0  0  0  0  0  0
    4.1989   -0.1241   -5.1882 C   0  0  0  0  0  0  0  0  0  0  0  0
    5.4201   -0.5734   -4.6644 C   0  0  0  0  0  0  0  0  0  0  0  0
    5.6045   -1.8132   -4.0991 C   0  0  0  0  0  0  0  0  0  0  0  0
    4.4498   -2.6014   -4.0411 C   0  0  0  0  0  0  0  0  0  0  0  0
    4.2510   -3.9626   -3.5483 C   0  0  0  0  0  0  0  0  0  0  0  0
    5.2454   -4.8060   -3.1214 C   0  0  0  0  0  0  0  0  0  0  0  0
    6.6037   -4.4448   -3.0161 C   0  0  0  0  0  0  0  0  0  0  0  0
    7.7203   -4.2080   -2.8850 N   0  0  0  0  0  0  0  0  0  0  0  0
    5.0621   -6.1509   -2.7367 C   0  0  0  0  0  0  0  0  0  0  0  0
    5.0021   -7.2541   -2.4229 N   0  0  0  0  0  0  0  0  0  0  0  0
    6.1302    0.7097   -5.0123 C   0  0  0  0  0  0  0  0  0  0  0  0
    6.3296    1.7194   -3.8581 C   0  0  0  0  0  0  0  0  0  0  0  0
    6.6304    3.0168   -4.5730 C   0  0  0  0  0  0  0  0  0  0  0  0
    5.5059    3.4355   -5.1392 C   0  0  0  0  0  0  0  0  0  0  0  0
    4.4241    2.4344   -4.8077 C   0  0  0  0  0  0  0  0  0  0  0  0
    4.8866    1.9953   -3.4140 C   0  0  0  0  0  0  0  0  0  0  0  0
    4.7846    1.1900   -5.6454 C   0  0  0  0  0  0  0  0  0  0  0  0
    0.8200   -5.6147   -3.1111 C   0  0  0  0  0  0  0  0  0  0  0  0
   -0.1199   -5.2854   -4.0536 C   0  0  0  0  0  0  0  0  0  0  0  0
   -1.4492   -5.4513   -3.6125 C   0  0  0  0  0  0  0  0  0  0  0  0
   -2.6219   -4.9807   -4.2350 C   0  0  0  0  0  0  0  0  0  0  0  0
   -2.6224   -4.3848   -5.5785 C   0  0  0  0  0  0  0  0  0  0  0  0
   -3.5277   -4.8441   -6.5341 C   0  0  0  0  0  0  0  0  0  0  0  0
   -3.5276   -4.2961   -7.8022 C   0  0  0  0  0  0  0  0  0  0  0  0
   -2.6432   -3.2855   -8.1387 C   0  0  0  0  0  0  0  0  0  0  0  0
   -1.7630   -2.8018   -7.1806 C   0  0  0  0  0  0  0  0  0  0  0  0
   -0.5708   -1.5292   -7.4810 S   0  0  0  0  0  0  0  0  0  0  0  0
   -1.2307   -0.6208   -8.9242 C   0  0  0  0  0  0  0  0  0  0  0  0
   -2.5296    0.0943   -8.6060 C   0  0  0  0  0  0  0  0  0  0  0  0
   -1.7559   -3.3505   -5.9034 C   0  0  0  0  0  0  0  0  0  0  0  0
   -3.7718   -5.0089   -3.4698 C   0  0  0  0  0  0  0  0  0  0  0  0
   -3.8389   -5.5591   -2.1627 C   0  0  0  0  0  0  0  0  0  0  0  0
   -2.6889   -6.1199   -1.5800 C   0  0  0  0  0  0  0  0  0  0  0  0
   -2.6975   -6.6997   -0.2278 C   0  0  0  0  0  0  0  0  0  0  0  0
   -3.2016   -6.0001    0.8647 C   0  0  0  0  0  0  0  0  0  0  0  0
   -3.2229   -6.5933    2.1148 C   0  0  0  0  0  0  0  0  0  0  0  0
   -2.7169   -7.8652    2.2957 C   0  0  0  0  0  0  0  0  0  0  0  0
   -2.1726   -8.5547    1.2162 C   0  0  0  0  0  0  0  0  0  0  0  0
   -1.5429  -10.1776    1.5308 S   0  0  0  0  0  0  0  0  0  0  0  0
   -0.2259  -10.3850    0.2799 C   0  0  0  0  0  0  0  0  0  0  0  0
    0.8996   -9.3877    0.4671 C   0  0  0  0  0  0  0  0  0  0  0  0
   -2.1777   -7.9767   -0.0432 C   0  0  0  0  0  0  0  0  0  0  0  0
   -1.5159   -6.0167   -2.3106 C   0  0  0  0  0  0  0  0  0  0  0  0
    0.0772   -6.3641   -1.6954 S   0  0  0  0  0  0  0  0  0  0  0  0
   -5.0713   -5.2719   -1.5297 C   0  0  0  0  0  0  0  0  0  0  0  0
   -5.8684   -4.4261   -2.2522 C   0  0  0  0  0  0  0  0  0  0  0  0
   -5.2413   -4.1537   -3.8697 S   0  0  0  0  0  0  0  0  0  0  0  0
   -6.8380   -3.5239   -1.7125 C   0  0  0  0  0  0  0  0  0  0  0  0
   -7.4686   -3.5748   -0.4787 C   0  0  0  0  0  0  0  0  0  0  0  0
   -7.6365   -4.8121    0.2819 C   0  0  0  0  0  0  0  0  0  0  0  0
   -8.0503   -5.9805   -0.3549 C   0  0  0  0  0  0  0  0  0  0  0  0
   -8.1634   -7.1537    0.3650 C   0  0  0  0  0  0  0  0  0  0  0  0
   -7.8605   -7.1768    1.7161 C   0  0  0  0  0  0  0  0  0  0  0  0
   -7.4481   -6.0213    2.3671 C   0  0  0  0  0  0  0  0  0  0  0  0
   -7.1608   -6.0249    3.8405 C   0  0  0  0  0  0  0  0  0  0  0  0
   -8.4105   -5.6180    4.6237 C   0  0  0  0  0  0  0  0  0  0  0  0
   -7.3474   -4.8435    1.6422 C   0  0  0  0  0  0  0  0  0  0  0  0
   -7.8161   -2.2814   -0.0306 C   0  0  0  0  0  0  0  0  0  0  0  0
   -8.3691   -1.6475    1.5099 S   0  0  0  0  0  0  0  0  0  0  0  0
   -7.9112   -0.0474    1.0086 C   0  0  0  0  0  0  0  0  0  0  0  0
   -7.5926    1.1986    1.5900 C   0  0  0  0  0  0  0  0  0  0  0  0
   -7.7910    1.7754    2.8662 C   0  0  0  0  0  0  0  0  0  0  0  0
   -7.1267    3.0155    3.1925 C   0  0  0  0  0  0  0  0  0  0  0  0
   -7.4264    3.4387    4.4080 N   0  0  0  0  0  0  0  0  0  0  0  0
   -8.4483    2.3840    5.0897 S   0  0  0  0  0  0  0  0  0  0  0  0
   -8.5430    1.3337    3.8599 N   0  0  0  0  0  0  0  0  0  0  0  0
   -6.1592    3.5332    2.2963 C   0  0  0  0  0  0  0  0  0  0  0  0
   -5.0307    4.3507    2.5019 C   0  0  0  0  0  0  0  0  0  0  0  0
   -4.2634    5.2389    3.7826 S   0  0  0  0  0  0  0  0  0  0  0  0
   -2.7877    5.2886    2.8406 C   0  0  0  0  0  0  0  0  0  0  0  0
   -1.4570    5.6107    3.1721 C   0  0  0  0  0  0  0  0  0  0  0  0
   -1.0330    6.1269    4.4761 C   0  0  0  0  0  0  0  0  0  0  0  0
   -0.0531    5.4665    5.2103 C   0  0  0  0  0  0  0  0  0  0  0  0
    0.3559    5.9802    6.4263 C   0  0  0  0  0  0  0  0  0  0  0  0
   -0.1974    7.1526    6.9082 C   0  0  0  0  0  0  0  0  0  0  0  0
   -1.1821    7.8212    6.1899 C   0  0  0  0  0  0  0  0  0  0  0  0
   -1.7286    9.1269    6.6871 C   0  0  0  0  0  0  0  0  0  0  0  0
   -0.7089   10.2465    6.4669 C   0  0  0  0  0  0  0  0  0  0  0  0
   -1.6031    7.2900    4.9809 C   0  0  0  0  0  0  0  0  0  0  0  0
   -0.5886    5.2492    2.1596 C   0  0  0  0  0  0  0  0  0  0  0  0
   -1.4048    4.5532    0.7782 S   0  0  0  0  0  0  0  0  0  0  0  0
   -2.9254    4.7052    1.5791 C   0  0  0  0  0  0  0  0  0  0  0  0
   -4.2145    4.1994    1.3754 C   0  0  0  0  0  0  0  0  0  0  0  0
   -4.8296    3.4105    0.4417 N   0  0  0  0  0  0  0  0  0  0  0  0
   -6.0093    2.9618    1.0049 C   0  0  0  0  0  0  0  0  0  0  0  0
   -6.8679    1.9142    0.6007 C   0  0  0  0  0  0  0  0  0  0  0  0
   -6.8841    1.2060   -0.5862 N   0  0  0  0  0  0  0  0  0  0  0  0
   -7.4667   -0.0060   -0.3168 C   0  0  0  0  0  0  0  0  0  0  0  0
   -7.4465   -1.2678   -0.9163 C   0  0  0  0  0  0  0  0  0  0  0  0
   -6.7807   -1.8940   -2.3775 S   0  0  0  0  0  0  0  0  0  0  0  0
   -6.8521    1.7541   -1.9243 C   0  0  0  0  0  0  0  0  0  0  0  0
   -8.2173    1.6363   -2.6003 C   0  0  0  0  0  0  0  0  0  0  0  0
   -4.0431    2.8170   -0.6173 C   0  0  0  0  0  0  0  0  0  0  0  0
   -3.4906    1.4529   -0.2115 C   0  0  0  0  0  0  0  0  0  0  0  0
    0.8511    5.2349    2.1760 C   0  0  0  0  0  0  0  0  0  0  0  0
    1.5278    4.0562    1.7784 C   0  0  0  0  0  0  0  0  0  0  0  0
    2.9572    3.9258    1.8886 C   0  0  0  0  0  0  0  0  0  0  0  0
    3.3582    2.6864    1.5967 N   0  0  0  0  0  0  0  0  0  0  0  0
    2.0867    1.8073    1.1710 S   0  0  0  0  0  0  0  0  0  0  0  0
    0.9527    2.9229    1.3725 N   0  0  0  0  0  0  0  0  0  0  0  0
    3.7671    4.9934    2.3377 C   0  0  0  0  0  0  0  0  0  0  0  0
    3.0851    6.1582    2.7270 C   0  0  0  0  0  0  0  0  0  0  0  0
    3.6568    7.3604    3.2188 C   0  0  0  0  0  0  0  0  0  0  0  0
    2.7301    8.3240    3.4734 C   0  0  0  0  0  0  0  0  0  0  0  0
    2.9293    9.6736    4.0154 C   0  0  0  0  0  0  0  0  0  0  0  0
    2.0308   10.4546    4.2179 O   0  0  0  0  0  0  0  0  0  0  0  0
    4.2151    9.9203    4.2642 O   0  0  0  0  0  0  0  0  0  0  0  0
    4.5199   11.2031    4.8167 C   0  0  0  0  0  0  0  0  0  0  0  0
    6.0005   11.2385    5.1424 C   0  0  0  0  0  0  0  0  0  0  0  0
    1.1023    7.8361    3.1177 S   0  0  0  0  0  0  0  0  0  0  0  0
    1.6659    6.2634    2.6310 C   0  0  0  0  0  0  0  0  0  0  0  0
    5.1807    4.8268    2.4973 C   0  0  0  0  0  0  0  0  0  0  0  0
    5.9330    3.9738    1.7609 C   0  0  0  0  0  0  0  0  0  0  0  0
    5.5115    3.2831    0.5065 C   0  0  0  0  0  0  0  0  0  0  0  0
    4.8043    3.7217   -0.3739 O   0  0  0  0  0  0  0  0  0  0  0  0
    6.3298    2.0555    0.4645 C   0  0  0  0  0  0  0  0  0  0  0  0
    6.1373    0.9331   -0.3342 C   0  0  0  0  0  0  0  0  0  0  0  0
    7.0680   -0.0589   -0.1443 C   0  0  0  0  0  0  0  0  0  0  0  0
    8.1254    0.0538    0.7701 C   0  0  0  0  0  0  0  0  0  0  0  0
    8.3306    1.1578    1.5633 C   0  0  0  0  0  0  0  0  0  0  0  0
    7.3859    2.1761    1.3928 C   0  0  0  0  0  0  0  0  0  0  0  0
    7.2444    3.4448    2.1018 C   0  0  0  0  0  0  0  0  0  0  0  0
    8.1686    4.0276    2.9253 C   0  0  0  0  0  0  0  0  0  0  0  0
    7.9871    5.2810    3.5468 C   0  0  0  0  0  0  0  0  0  0  0  0
    7.8941    6.2994    4.0692 N   0  0  0  0  0  0  0  0  0  0  0  0
    9.4361    3.4786    3.2100 C   0  0  0  0  0  0  0  0  0  0  0  0
   10.4799    3.0825    3.4769 N   0  0  0  0  0  0  0  0  0  0  0  0
    8.6402   -1.3320    0.4611 C   0  0  0  0  0  0  0  0  0  0  0  0
    8.3396   -2.4588    1.4805 C   0  0  0  0  0  0  0  0  0  0  0  0
    7.0850   -2.0487    2.2106 C   0  0  0  0  0  0  0  0  0  0  0  0
    6.0726   -2.1419    1.3588 C   0  0  0  0  0  0  0  0  0  0  0  0
    6.6244   -2.6214    0.0398 C   0  0  0  0  0  0  0  0  0  0  0  0
    7.7661   -3.5241    0.5310 C   0  0  0  0  0  0  0  0  0  0  0  0
    7.4567   -1.4559   -0.5487 C   0  0  0  0  0  0  0  0  0  0  0  0
    2.7851   -5.9904   -2.4114 H   0  0  0  0  0  0  0  0  0  0  0  0
    2.0785   -0.5616   -5.4821 H   0  0  0  0  0  0  0  0  0  0  0  0
    6.5584   -2.1543   -3.7338 H   0  0  0  0  0  0  0  0  0  0  0  0
    7.0091    0.6167   -5.6475 H   0  0  0  0  0  0  0  0  0  0  0  0
    7.0386    1.4067   -3.0955 H   0  0  0  0  0  0  0  0  0  0  0  0
    7.6105    3.4513   -4.6391 H   0  0  0  0  0  0  0  0  0  0  0  0
    5.3590    4.2920   -5.7707 H   0  0  0  0  0  0  0  0  0  0  0  0
    3.3967    2.7719   -4.9125 H   0  0  0  0  0  0  0  0  0  0  0  0
    4.8256    2.7962   -2.6792 H   0  0  0  0  0  0  0  0  0  0  0  0
    4.3566    1.1164   -3.0485 H   0  0  0  0  0  0  0  0  0  0  0  0
    4.7549    1.3678   -6.7186 H   0  0  0  0  0  0  0  0  0  0  0  0
    0.1327   -4.9304   -5.0341 H   0  0  0  0  0  0  0  0  0  0  0  0
   -4.2111   -5.6425   -6.2865 H   0  0  0  0  0  0  0  0  0  0  0  0
   -4.2182   -4.6640   -8.5466 H   0  0  0  0  0  0  0  0  0  0  0  0
   -2.6494   -2.8928   -9.1432 H   0  0  0  0  0  0  0  0  0  0  0  0
   -0.4417    0.0918   -9.1645 H   0  0  0  0  0  0  0  0  0  0  0  0
   -1.3338   -1.3150   -9.7574 H   0  0  0  0  0  0  0  0  0  0  0  0
   -2.3827    0.7897   -7.7829 H   0  0  0  0  0  0  0  0  0  0  0  0
   -3.3039   -0.6154   -8.3211 H   0  0  0  0  0  0  0  0  0  0  0  0
   -2.8703    0.6503   -9.4774 H   0  0  0  0  0  0  0  0  0  0  0  0
   -1.0755   -2.9534   -5.1680 H   0  0  0  0  0  0  0  0  0  0  0  0
   -3.5513   -4.9865    0.7406 H   0  0  0  0  0  0  0  0  0  0  0  0
   -3.6269   -6.0527    2.9577 H   0  0  0  0  0  0  0  0  0  0  0  0
   -2.7253   -8.3324    3.2682 H   0  0  0  0  0  0  0  0  0  0  0  0
   -0.6711  -10.3225   -0.7124 H   0  0  0  0  0  0  0  0  0  0  0  0
    0.1214  -11.4054    0.4412 H   0  0  0  0  0  0  0  0  0  0  0  0
    0.5364   -8.3681    0.3544 H   0  0  0  0  0  0  0  0  0  0  0  0
    1.3344   -9.4925    1.4583 H   0  0  0  0  0  0  0  0  0  0  0  0
    1.6758   -9.5611   -0.2753 H   0  0  0  0  0  0  0  0  0  0  0  0
   -1.8004   -8.5129   -0.9002 H   0  0  0  0  0  0  0  0  0  0  0  0
   -5.3110   -5.5826   -0.5304 H   0  0  0  0  0  0  0  0  0  0  0  0
   -8.2830   -5.9591   -1.4092 H   0  0  0  0  0  0  0  0  0  0  0  0
   -8.4865   -8.0577   -0.1297 H   0  0  0  0  0  0  0  0  0  0  0  0
   -7.9422   -8.1007    2.2698 H   0  0  0  0  0  0  0  0  0  0  0  0
   -6.3556   -5.3215    4.0622 H   0  0  0  0  0  0  0  0  0  0  0  0
   -6.8429   -7.0211    4.1541 H   0  0  0  0  0  0  0  0  0  0  0  0
   -8.2067   -5.6180    5.6919 H   0  0  0  0  0  0  0  0  0  0  0  0
   -9.2238   -6.3123    4.4249 H   0  0  0  0  0  0  0  0  0  0  0  0
   -8.7317   -4.6211    4.3303 H   0  0  0  0  0  0  0  0  0  0  0  0
   -7.0143   -3.9427    2.1364 H   0  0  0  0  0  0  0  0  0  0  0  0
    0.3769    4.5508    4.8301 H   0  0  0  0  0  0  0  0  0  0  0  0
    1.1137    5.4646    6.9984 H   0  0  0  0  0  0  0  0  0  0  0  0
    0.1354    7.5535    7.8547 H   0  0  0  0  0  0  0  0  0  0  0  0
   -1.9561    9.0515    7.7532 H   0  0  0  0  0  0  0  0  0  0  0  0
   -2.6520    9.3662    6.1573 H   0  0  0  0  0  0  0  0  0  0  0  0
    0.1952   10.0567    7.0407 H   0  0  0  0  0  0  0  0  0  0  0  0
   -0.4294   10.3138    5.4183 H   0  0  0  0  0  0  0  0  0  0  0  0
   -1.1222   11.2022    6.7805 H   0  0  0  0  0  0  0  0  0  0  0  0
   -2.3639    7.7968    4.4053 H   0  0  0  0  0  0  0  0  0  0  0  0
   -6.1041    1.2186   -2.5199 H   0  0  0  0  0  0  0  0  0  0  0  0
   -6.5901    2.8107   -1.8524 H   0  0  0  0  0  0  0  0  0  0  0  0
   -8.4904    0.5940   -2.7402 H   0  0  0  0  0  0  0  0  0  0  0  0
   -8.9815    2.1211   -1.9967 H   0  0  0  0  0  0  0  0  0  0  0  0
   -8.1835    2.1170   -3.5741 H   0  0  0  0  0  0  0  0  0  0  0  0
   -3.2138    3.5018   -0.8109 H   0  0  0  0  0  0  0  0  0  0  0  0
   -4.6256    2.7320   -1.5317 H   0  0  0  0  0  0  0  0  0  0  0  0
   -4.2982    0.7565    0.0010 H   0  0  0  0  0  0  0  0  0  0  0  0
   -2.8829    1.0493   -1.0162 H   0  0  0  0  0  0  0  0  0  0  0  0
   -2.8699    1.5497    0.6759 H   0  0  0  0  0  0  0  0  0  0  0  0
    4.7088    7.5101    3.3803 H   0  0  0  0  0  0  0  0  0  0  0  0
    3.9055   11.3559    5.7113 H   0  0  0  0  0  0  0  0  0  0  0  0
    4.2507   11.9738    4.0855 H   0  0  0  0  0  0  0  0  0  0  0  0
    6.2453   10.4587    5.8583 H   0  0  0  0  0  0  0  0  0  0  0  0
    6.2581   12.2051    5.5652 H   0  0  0  0  0  0  0  0  0  0  0  0
    6.5856   11.0754    4.2416 H   0  0  0  0  0  0  0  0  0  0  0  0
    5.6338    5.3579    3.3240 H   0  0  0  0  0  0  0  0  0  0  0  0
    5.3048    0.8708   -1.0143 H   0  0  0  0  0  0  0  0  0  0  0  0
    9.1375    1.2323    2.2739 H   0  0  0  0  0  0  0  0  0  0  0  0
    9.6522   -1.3886    0.0668 H   0  0  0  0  0  0  0  0  0  0  0  0
    9.1846   -2.7441    2.1010 H   0  0  0  0  0  0  0  0  0  0  0  0
    7.0703   -1.6886    3.2228 H   0  0  0  0  0  0  0  0  0  0  0  0
    5.0437   -1.8748    1.5173 H   0  0  0  0  0  0  0  0  0  0  0  0
    5.9044   -3.0532   -0.6510 H   0  0  0  0  0  0  0  0  0  0  0  0
    7.4082   -4.4083    1.0563 H   0  0  0  0  0  0  0  0  0  0  0  0
    8.4484   -3.8190   -0.2641 H   0  0  0  0  0  0  0  0  0  0  0  0
    7.6989   -1.6147   -1.5969 H   0  0  0  0  0  0  0  0  0  0  0  0
  1  2  2  0  0  0  0
  2  3  1  0  0  0  0
  3  4  2  0  0  0  0
  3  5  1  0  0  0  0
  5  6  2  0  0  0  0
  6  7  1  0  0  0  0
  7  8  2  0  0  0  0
  8  9  1  0  0  0  0
  9 10  2  0  0  0  0
 10 11  1  0  0  0  0
 11 12  2  0  0  0  0
 12 13  1  0  0  0  0
 13 14  3  0  0  0  0
 12 15  1  0  0  0  0
 15 16  3  0  0  0  0
  8 17  1  0  0  0  0
 17 18  1  0  0  0  0
 18 19  1  0  0  0  0
 19 20  2  0  0  0  0
 20 21  1  0  0  0  0
 21 22  1  0  0  0  0
 21 23  1  0  0  0  0
  1 24  1  0  0  0  0
 24 25  2  0  0  0  0
 25 26  1  0  0  0  0
 26 27  2  0  0  0  0
 27 28  1  0  0  0  0
 28 29  2  0  0  0  0
 29 30  1  0  0  0  0
 30 31  2  0  0  0  0
 31 32  1  0  0  0  0
 32 33  1  0  0  0  0
 33 34  1  0  0  0  0
 34 35  1  0  0  0  0
 32 36  2  0  0  0  0
 27 37  1  0  0  0  0
 37 38  2  0  0  0  0
 38 39  1  0  0  0  0
 39 40  1  0  0  0  0
 40 41  2  0  0  0  0
 41 42  1  0  0  0  0
 42 43  2  0  0  0  0
 43 44  1  0  0  0  0
 44 45  1  0  0  0  0
 45 46  1  0  0  0  0
 46 47  1  0  0  0  0
 44 48  2  0  0  0  0
 39 49  2  0  0  0  0
 49 50  1  0  0  0  0
 38 51  1  0  0  0  0
 51 52  2  0  0  0  0
 52 53  1  0  0  0  0
 52 54  1  0  0  0  0
 54 55  2  0  0  0  0
 55 56  1  0  0  0  0
 56 57  2  0  0  0  0
 57 58  1  0  0  0  0
 58 59  2  0  0  0  0
 59 60  1  0  0  0  0
 60 61  1  0  0  0  0
 61 62  1  0  0  0  0
 60 63  2  0  0  0  0
 55 64  1  0  0  0  0
 64 65  1  0  0  0  0
 65 66  1  0  0  0  0
 66 67  1  0  0  0  0
 67 68  1  0  0  0  0
 68 69  1  0  0  0  0
 69 70  2  0  0  0  0
 70 71  1  0  0  0  0
 71 72  1  0  0  0  0
 69 73  1  0  0  0  0
 73 74  1  0  0  0  0
 74 75  1  0  0  0  0
 75 76  1  0  0  0  0
 76 77  1  0  0  0  0
 77 78  1  0  0  0  0
 78 79  2  0  0  0  0
 79 80  1  0  0  0  0
 80 81  2  0  0  0  0
 81 82  1  0  0  0  0
 82 83  1  0  0  0  0
 83 84  1  0  0  0  0
 82 85  2  0  0  0  0
 77 86  2  0  0  0  0
 86 87  1  0  0  0  0
 87 88  1  0  0  0  0
 88 89  1  0  0  0  0
 89 90  1  0  0  0  0
 90 91  1  0  0  0  0
 91 92  1  0  0  0  0
 92 93  1  0  0  0  0
 93 94  1  0  0  0  0
 94 95  1  0  0  0  0
 95 96  1  0  0  0  0
 93 97  1  0  0  0  0
 97 98  1  0  0  0  0
 90 99  1  0  0  0  0
 99100  1  0  0  0  0
 86101  1  0  0  0  0
101102  1  0  0  0  0
102103  1  0  0  0  0
103104  2  0  0  0  0
104105  1  0  0  0  0
105106  1  0  0  0  0
103107  1  0  0  0  0
107108  2  0  0  0  0
108109  1  0  0  0  0
109110  2  0  0  0  0
110111  1  0  0  0  0
111112  2  0  0  0  0
111113  1  0  0  0  0
113114  1  0  0  0  0
114115  1  0  0  0  0
110116  1  0  0  0  0
116117  1  0  0  0  0
107118  1  0  0  0  0
118119  2  0  0  0  0
119120  1  0  0  0  0
120121  2  0  0  0  0
120122  1  0  0  0  0
122123  2  0  0  0  0
123124  1  0  0  0  0
124125  2  0  0  0  0
125126  1  0  0  0  0
126127  2  0  0  0  0
127128  1  0  0  0  0
128129  2  0  0  0  0
129130  1  0  0  0  0
130131  3  0  0  0  0
129132  1  0  0  0  0
132133  3  0  0  0  0
125134  1  0  0  0  0
134135  1  0  0  0  0
135136  1  0  0  0  0
136137  2  0  0  0  0
137138  1  0  0  0  0
138139  1  0  0  0  0
138140  1  0  0  0  0
 11  2  1  0  0  0  0
 23 17  1  0  0  0  0
 50 24  1  0  0  0  0
 96 54  1  0  0  0  0
117101  2  0  0  0  0
128119  1  0  0  0  0
140134  1  0  0  0  0
 10  5  1  0  0  0  0
 22 18  1  0  0  0  0
 49 26  1  0  0  0  0
 63 56  1  0  0  0  0
 95 64  2  0  0  0  0
106102  2  0  0  0  0
117108  1  0  0  0  0
127122  1  0  0  0  0
139135  1  0  0  0  0
 23  7  1  0  0  0  0
 36 28  1  0  0  0  0
 53 37  1  0  0  0  0
 94 66  2  0  0  0  0
140124  1  0  0  0  0
 48 40  1  0  0  0  0
 92 67  2  0  0  0  0
 72 68  2  0  0  0  0
 91 73  2  0  0  0  0
 89 74  2  0  0  0  0
 88 76  2  0  0  0  0
 85 78  1  0  0  0  0
  1141  1  0  0  0  0
  6142  1  0  0  0  0
  9143  1  0  0  0  0
 17144  1  0  0  0  0
 18145  1  0  0  0  0
 19146  1  0  0  0  0
 20147  1  0  0  0  0
 21148  1  0  0  0  0
 22149  1  0  0  0  0
 22150  1  0  0  0  0
 23151  1  0  0  0  0
 25152  1  0  0  0  0
 29153  1  0  0  0  0
 30154  1  0  0  0  0
 31155  1  0  0  0  0
 34156  1  0  0  0  0
 34157  1  0  0  0  0
 35158  1  0  0  0  0
 35159  1  0  0  0  0
 35160  1  0  0  0  0
 36161  1  0  0  0  0
 41162  1  0  0  0  0
 42163  1  0  0  0  0
 43164  1  0  0  0  0
 46165  1  0  0  0  0
 46166  1  0  0  0  0
 47167  1  0  0  0  0
 47168  1  0  0  0  0
 47169  1  0  0  0  0
 48170  1  0  0  0  0
 51171  1  0  0  0  0
 57172  1  0  0  0  0
 58173  1  0  0  0  0
 59174  1  0  0  0  0
 61175  1  0  0  0  0
 61176  1  0  0  0  0
 62177  1  0  0  0  0
 62178  1  0  0  0  0
 62179  1  0  0  0  0
 63180  1  0  0  0  0
 79181  1  0  0  0  0
 80182  1  0  0  0  0
 81183  1  0  0  0  0
 83184  1  0  0  0  0
 83185  1  0  0  0  0
 84186  1  0  0  0  0
 84187  1  0  0  0  0
 84188  1  0  0  0  0
 85189  1  0  0  0  0
 97190  1  0  0  0  0
 97191  1  0  0  0  0
 98192  1  0  0  0  0
 98193  1  0  0  0  0
 98194  1  0  0  0  0
 99195  1  0  0  0  0
 99196  1  0  0  0  0
100197  1  0  0  0  0
100198  1  0  0  0  0
100199  1  0  0  0  0
109200  1  0  0  0  0
114201  1  0  0  0  0
114202  1  0  0  0  0
115203  1  0  0  0  0
115204  1  0  0  0  0
115205  1  0  0  0  0
118206  1  0  0  0  0
123207  1  0  0  0  0
126208  1  0  0  0  0
134209  1  0  0  0  0
135210  1  0  0  0  0
136211  1  0  0  0  0
137212  1  0  0  0  0
138213  1  0  0  0  0
139214  1  0  0  0  0
139215  1  0  0  0  0
140216  1  0  0  0  0
M  END
