
  xtb     02232223533D
 energy: -380.686367552524 gnorm: 0.000626325467 xtb: 6.4.1 (unknown)
228255  0     0  0            999 V2000
   -9.6489   -1.9777    0.3175 C   0  0  0  0  0  0  0  0  0  0  0  0
   -8.5164   -2.7397    0.1199 C   0  0  0  0  0  0  0  0  0  0  0  0
   -7.3700   -2.3715   -0.7074 C   0  0  0  0  0  0  0  0  0  0  0  0
   -7.3047   -1.4792   -1.5411 O   0  0  0  0  0  0  0  0  0  0  0  0
   -6.2776   -3.2873   -0.3462 C   0  0  0  0  0  0  0  0  0  0  0  0
   -4.9660   -3.2530   -0.8143 C   0  0  0  0  0  0  0  0  0  0  0  0
   -4.1516   -4.2152   -0.2677 C   0  0  0  0  0  0  0  0  0  0  0  0
   -4.6142   -5.1494    0.6683 C   0  0  0  0  0  0  0  0  0  0  0  0
   -5.9110   -5.2032    1.1260 C   0  0  0  0  0  0  0  0  0  0  0  0
   -6.7545   -4.2266    0.5886 C   0  0  0  0  0  0  0  0  0  0  0  0
   -8.1737   -3.9537    0.8311 C   0  0  0  0  0  0  0  0  0  0  0  0
   -9.0207   -4.7506    1.5579 C   0  0  0  0  0  0  0  0  0  0  0  0
   -8.6256   -5.9255    2.2295 C   0  0  0  0  0  0  0  0  0  0  0  0
   -8.3725   -6.8871    2.8043 N   0  0  0  0  0  0  0  0  0  0  0  0
  -10.4098   -4.5511    1.6985 C   0  0  0  0  0  0  0  0  0  0  0  0
  -11.5477   -4.4870    1.8424 N   0  0  0  0  0  0  0  0  0  0  0  0
   -3.2619   -5.8074    0.7964 C   0  0  0  0  0  0  0  0  0  0  0  0
   -2.4395   -5.4609    2.0555 C   0  0  0  0  0  0  0  0  0  0  0  0
   -1.0254   -5.8445    1.6827 C   0  0  0  0  0  0  0  0  0  0  0  0
   -0.5878   -4.9605    0.7951 C   0  0  0  0  0  0  0  0  0  0  0  0
   -1.6985   -3.9644    0.5521 C   0  0  0  0  0  0  0  0  0  0  0  0
   -2.3345   -3.9341    1.9478 C   0  0  0  0  0  0  0  0  0  0  0  0
   -2.7472   -4.7657   -0.2489 C   0  0  0  0  0  0  0  0  0  0  0  0
   -9.9680   -0.7263   -0.2122 C   0  0  0  0  0  0  0  0  0  0  0  0
   -9.0630    0.1088   -1.4498 S   0  0  0  0  0  0  0  0  0  0  0  0
  -10.0081    1.5733   -1.3227 C   0  0  0  0  0  0  0  0  0  0  0  0
  -10.9975    1.4062   -0.3609 C   0  0  0  0  0  0  0  0  0  0  0  0
  -12.2175    2.4461    0.2989 S   0  0  0  0  0  0  0  0  0  0  0  0
  -12.7466    1.1691    1.3576 C   0  0  0  0  0  0  0  0  0  0  0  0
  -13.8686    1.5219    2.2309 C   0  0  0  0  0  0  0  0  0  0  0  0
  -14.3662    2.6238    2.2243 O   0  0  0  0  0  0  0  0  0  0  0  0
  -14.2717    0.5113    3.0025 O   0  0  0  0  0  0  0  0  0  0  0  0
  -15.3500    0.7789    3.9002 C   0  0  0  0  0  0  0  0  0  0  0  0
  -14.8578    1.4504    5.1739 C   0  0  0  0  0  0  0  0  0  0  0  0
  -12.0195    0.0112    1.2270 C   0  0  0  0  0  0  0  0  0  0  0  0
  -11.0018    0.1216    0.2418 C   0  0  0  0  0  0  0  0  0  0  0  0
  -12.3334   -1.3919    2.1527 Cl  0  0  0  0  0  0  0  0  0  0  0  0
   -9.4761    2.6845   -2.0245 C   0  0  0  0  0  0  0  0  0  0  0  0
   -9.5679    4.0589   -1.8081 C   0  0  0  0  0  0  0  0  0  0  0  0
  -10.6765    4.7610   -1.1645 C   0  0  0  0  0  0  0  0  0  0  0  0
  -11.9692    4.5910   -1.6563 C   0  0  0  0  0  0  0  0  0  0  0  0
  -13.0087    5.3295   -1.1221 C   0  0  0  0  0  0  0  0  0  0  0  0
  -12.7713    6.2232   -0.0939 C   0  0  0  0  0  0  0  0  0  0  0  0
  -11.4878    6.4022    0.4085 C   0  0  0  0  0  0  0  0  0  0  0  0
  -11.2162    7.4131    1.4842 C   0  0  0  0  0  0  0  0  0  0  0  0
  -10.8223    8.7537    0.8603 C   0  0  0  0  0  0  0  0  0  0  0  0
  -10.4447    5.6753   -0.1435 C   0  0  0  0  0  0  0  0  0  0  0  0
   -8.4490    4.7304   -2.3393 C   0  0  0  0  0  0  0  0  0  0  0  0
   -7.7939    6.3462   -2.1223 S   0  0  0  0  0  0  0  0  0  0  0  0
   -6.3065    5.8390   -2.8674 C   0  0  0  0  0  0  0  0  0  0  0  0
   -4.9599    6.2444   -2.9856 C   0  0  0  0  0  0  0  0  0  0  0  0
   -4.2506    7.4256   -2.6657 C   0  0  0  0  0  0  0  0  0  0  0  0
   -2.8093    7.4326   -2.7536 C   0  0  0  0  0  0  0  0  0  0  0  0
   -2.2953    8.6095   -2.4380 N   0  0  0  0  0  0  0  0  0  0  0  0
   -3.5014    9.6214   -2.0635 S   0  0  0  0  0  0  0  0  0  0  0  0
   -4.7349    8.5946   -2.2810 N   0  0  0  0  0  0  0  0  0  0  0  0
   -2.1226    6.2257   -3.0309 C   0  0  0  0  0  0  0  0  0  0  0  0
   -0.7907    5.8159   -2.8305 C   0  0  0  0  0  0  0  0  0  0  0  0
    0.7224    6.4509   -2.2585 S   0  0  0  0  0  0  0  0  0  0  0  0
    1.3660    4.8227   -2.2031 C   0  0  0  0  0  0  0  0  0  0  0  0
    2.5740    4.2836   -1.7265 C   0  0  0  0  0  0  0  0  0  0  0  0
    3.6810    5.1330   -1.2691 C   0  0  0  0  0  0  0  0  0  0  0  0
    4.8765    5.1630   -1.9807 C   0  0  0  0  0  0  0  0  0  0  0  0
    5.8869    6.0185   -1.5882 C   0  0  0  0  0  0  0  0  0  0  0  0
    5.7136    6.8425   -0.4907 C   0  0  0  0  0  0  0  0  0  0  0  0
    4.5239    6.8303    0.2250 C   0  0  0  0  0  0  0  0  0  0  0  0
    4.3041    7.7746    1.3711 C   0  0  0  0  0  0  0  0  0  0  0  0
    3.6438    9.0617    0.8722 C   0  0  0  0  0  0  0  0  0  0  0  0
    3.5094    5.9752   -0.1791 C   0  0  0  0  0  0  0  0  0  0  0  0
    2.5665    2.8970   -1.7747 C   0  0  0  0  0  0  0  0  0  0  0  0
    1.0994    2.2695   -2.5127 S   0  0  0  0  0  0  0  0  0  0  0  0
    0.4607    3.8631   -2.6558 C   0  0  0  0  0  0  0  0  0  0  0  0
   -0.7647    4.4290   -3.0172 C   0  0  0  0  0  0  0  0  0  0  0  0
   -1.9996    3.9668   -3.3792 N   0  0  0  0  0  0  0  0  0  0  0  0
   -2.8517    5.0569   -3.3781 C   0  0  0  0  0  0  0  0  0  0  0  0
   -4.2552    5.1211   -3.4993 C   0  0  0  0  0  0  0  0  0  0  0  0
   -5.1484    4.1141   -3.8031 N   0  0  0  0  0  0  0  0  0  0  0  0
   -6.3750    4.5282   -3.3557 C   0  0  0  0  0  0  0  0  0  0  0  0
   -7.5759    3.8988   -3.0443 C   0  0  0  0  0  0  0  0  0  0  0  0
   -8.1241    2.2688   -3.0847 S   0  0  0  0  0  0  0  0  0  0  0  0
   -5.0251    3.1255   -4.8531 C   0  0  0  0  0  0  0  0  0  0  0  0
   -6.0180    3.3886   -5.9839 C   0  0  0  0  0  0  0  0  0  0  0  0
   -2.3170    2.5669   -3.1824 C   0  0  0  0  0  0  0  0  0  0  0  0
   -3.0619    2.3368   -1.8715 C   0  0  0  0  0  0  0  0  0  0  0  0
    3.5134    1.9761   -1.2544 C   0  0  0  0  0  0  0  0  0  0  0  0
    3.4166    0.5881   -1.2116 C   0  0  0  0  0  0  0  0  0  0  0  0
    2.3565   -0.1960   -1.6849 N   0  0  0  0  0  0  0  0  0  0  0  0
    2.7606   -1.3254   -2.4282 C   0  0  0  0  0  0  0  0  0  0  0  0
    2.3216   -2.6093   -2.1172 C   0  0  0  0  0  0  0  0  0  0  0  0
    2.7773   -3.6891   -2.8438 C   0  0  0  0  0  0  0  0  0  0  0  0
    3.6846   -3.5266   -3.8851 C   0  0  0  0  0  0  0  0  0  0  0  0
    4.1936   -4.7174   -4.6379 C   0  0  0  0  0  0  0  0  0  0  0  0
    4.1202   -2.2433   -4.1855 C   0  0  0  0  0  0  0  0  0  0  0  0
    3.6649   -1.1525   -3.4707 C   0  0  0  0  0  0  0  0  0  0  0  0
    1.1126   -0.1899   -1.0497 C   0  0  0  0  0  0  0  0  0  0  0  0
    0.0021   -0.7208   -1.7073 C   0  0  0  0  0  0  0  0  0  0  0  0
   -1.2357   -0.7266   -1.0977 C   0  0  0  0  0  0  0  0  0  0  0  0
   -1.4155   -0.1937    0.1735 C   0  0  0  0  0  0  0  0  0  0  0  0
   -2.7533   -0.2153    0.8495 C   0  0  0  0  0  0  0  0  0  0  0  0
   -0.3113    0.3606    0.8103 C   0  0  0  0  0  0  0  0  0  0  0  0
    0.9351    0.3642    0.2168 C   0  0  0  0  0  0  0  0  0  0  0  0
    4.5620    0.0043   -0.6309 C   0  0  0  0  0  0  0  0  0  0  0  0
    4.9829   -1.6286   -0.2636 S   0  0  0  0  0  0  0  0  0  0  0  0
    6.4767   -1.0730    0.4986 C   0  0  0  0  0  0  0  0  0  0  0  0
    6.5700    0.3444    0.5157 C   0  0  0  0  0  0  0  0  0  0  0  0
    7.5492    1.0706    1.1415 N   0  0  0  0  0  0  0  0  0  0  0  0
    7.9582    2.2963    0.5842 C   0  0  0  0  0  0  0  0  0  0  0  0
    8.1844    3.4036    1.3976 C   0  0  0  0  0  0  0  0  0  0  0  0
    8.6531    4.5790    0.8496 C   0  0  0  0  0  0  0  0  0  0  0  0
    8.9054    4.6868   -0.5140 C   0  0  0  0  0  0  0  0  0  0  0  0
    9.4845    5.9481   -1.0771 C   0  0  0  0  0  0  0  0  0  0  0  0
    8.6412    3.5890   -1.3218 C   0  0  0  0  0  0  0  0  0  0  0  0
    8.1745    2.4046   -0.7859 C   0  0  0  0  0  0  0  0  0  0  0  0
    8.0945    0.6721    2.3769 C   0  0  0  0  0  0  0  0  0  0  0  0
    9.4375    0.9084    2.6597 C   0  0  0  0  0  0  0  0  0  0  0  0
    9.9688    0.5042    3.8681 C   0  0  0  0  0  0  0  0  0  0  0  0
    9.1892   -0.1488    4.8157 C   0  0  0  0  0  0  0  0  0  0  0  0
    9.7957   -0.6209    6.1009 C   0  0  0  0  0  0  0  0  0  0  0  0
    7.8449   -0.3600    4.5321 C   0  0  0  0  0  0  0  0  0  0  0  0
    7.2956    0.0517    3.3345 C   0  0  0  0  0  0  0  0  0  0  0  0
    5.4943    0.9251   -0.1727 C   0  0  0  0  0  0  0  0  0  0  0  0
    4.9953    2.5571   -0.4992 S   0  0  0  0  0  0  0  0  0  0  0  0
    7.4959   -1.9095    0.9466 C   0  0  0  0  0  0  0  0  0  0  0  0
    7.5496   -3.2828    1.0442 C   0  0  0  0  0  0  0  0  0  0  0  0
    6.4554   -4.2173    0.7790 C   0  0  0  0  0  0  0  0  0  0  0  0
    5.3526   -3.9704    0.3181 O   0  0  0  0  0  0  0  0  0  0  0  0
    6.9355   -5.5467    1.1988 C   0  0  0  0  0  0  0  0  0  0  0  0
    6.2329   -6.7471    1.1473 C   0  0  0  0  0  0  0  0  0  0  0  0
    6.9377   -7.8281    1.6205 C   0  0  0  0  0  0  0  0  0  0  0  0
    8.2460   -7.7213    2.1077 C   0  0  0  0  0  0  0  0  0  0  0  0
    8.9533   -6.5426    2.1560 C   0  0  0  0  0  0  0  0  0  0  0  0
    8.2539   -5.4306    1.6815 C   0  0  0  0  0  0  0  0  0  0  0  0
    8.6710   -4.0330    1.5557 C   0  0  0  0  0  0  0  0  0  0  0  0
    9.9254   -3.5521    1.8490 C   0  0  0  0  0  0  0  0  0  0  0  0
   10.9573   -4.3142    2.4303 C   0  0  0  0  0  0  0  0  0  0  0  0
   11.8382   -4.8617    2.9251 N   0  0  0  0  0  0  0  0  0  0  0  0
   10.3845   -2.2482    1.5845 C   0  0  0  0  0  0  0  0  0  0  0  0
   10.8585   -1.2223    1.3700 N   0  0  0  0  0  0  0  0  0  0  0  0
    8.3317   -9.1924    2.4295 C   0  0  0  0  0  0  0  0  0  0  0  0
    8.1776   -9.6180    3.9107 C   0  0  0  0  0  0  0  0  0  0  0  0
    7.3435   -8.5536    4.5791 C   0  0  0  0  0  0  0  0  0  0  0  0
    6.1056   -8.6576    4.1144 C   0  0  0  0  0  0  0  0  0  0  0  0
    6.0808   -9.7940    3.1225 C   0  0  0  0  0  0  0  0  0  0  0  0
    7.1256  -10.7277    3.7539 C   0  0  0  0  0  0  0  0  0  0  0  0
    6.8743   -9.3125    1.8827 C   0  0  0  0  0  0  0  0  0  0  0  0
  -10.3597   -2.3419    1.0472 H   0  0  0  0  0  0  0  0  0  0  0  0
   -4.6600   -2.5213   -1.5461 H   0  0  0  0  0  0  0  0  0  0  0  0
   -6.2491   -5.9329    1.8426 H   0  0  0  0  0  0  0  0  0  0  0  0
   -3.2240   -6.8648    0.5415 H   0  0  0  0  0  0  0  0  0  0  0  0
   -2.8305   -5.8734    2.9817 H   0  0  0  0  0  0  0  0  0  0  0  0
   -0.5257   -6.7213    2.0508 H   0  0  0  0  0  0  0  0  0  0  0  0
    0.3528   -4.9486    0.2764 H   0  0  0  0  0  0  0  0  0  0  0  0
   -1.4111   -3.0139    0.1114 H   0  0  0  0  0  0  0  0  0  0  0  0
   -1.6635   -3.5134    2.6951 H   0  0  0  0  0  0  0  0  0  0  0  0
   -3.2940   -3.4214    1.9873 H   0  0  0  0  0  0  0  0  0  0  0  0
   -2.3672   -5.1293   -1.2019 H   0  0  0  0  0  0  0  0  0  0  0  0
  -15.7863   -0.1993    4.1122 H   0  0  0  0  0  0  0  0  0  0  0  0
  -16.0824    1.4159    3.3937 H   0  0  0  0  0  0  0  0  0  0  0  0
  -14.0938    0.8397    5.6494 H   0  0  0  0  0  0  0  0  0  0  0  0
  -15.6889    1.5794    5.8612 H   0  0  0  0  0  0  0  0  0  0  0  0
  -14.4379    2.4259    4.9407 H   0  0  0  0  0  0  0  0  0  0  0  0
  -12.1445    3.8979   -2.4655 H   0  0  0  0  0  0  0  0  0  0  0  0
  -14.0092    5.2027   -1.5069 H   0  0  0  0  0  0  0  0  0  0  0  0
  -13.5902    6.7891    0.3251 H   0  0  0  0  0  0  0  0  0  0  0  0
  -12.1070    7.5469    2.1003 H   0  0  0  0  0  0  0  0  0  0  0  0
  -10.4049    7.0629    2.1252 H   0  0  0  0  0  0  0  0  0  0  0  0
  -11.6252    9.1263    0.2282 H   0  0  0  0  0  0  0  0  0  0  0  0
   -9.9308    8.6383    0.2479 H   0  0  0  0  0  0  0  0  0  0  0  0
  -10.6203    9.4893    1.6353 H   0  0  0  0  0  0  0  0  0  0  0  0
   -9.4409    5.8063    0.2339 H   0  0  0  0  0  0  0  0  0  0  0  0
    5.0022    4.5253   -2.8433 H   0  0  0  0  0  0  0  0  0  0  0  0
    6.8088    6.0472   -2.1470 H   0  0  0  0  0  0  0  0  0  0  0  0
    6.5062    7.5119   -0.1885 H   0  0  0  0  0  0  0  0  0  0  0  0
    5.2586    8.0160    1.8429 H   0  0  0  0  0  0  0  0  0  0  0  0
    3.6611    7.3068    2.1191 H   0  0  0  0  0  0  0  0  0  0  0  0
    2.6901    8.8382    0.3996 H   0  0  0  0  0  0  0  0  0  0  0  0
    4.2800    9.5528    0.1393 H   0  0  0  0  0  0  0  0  0  0  0  0
    3.4719    9.7472    1.6987 H   0  0  0  0  0  0  0  0  0  0  0  0
    2.5741    5.9573    0.3621 H   0  0  0  0  0  0  0  0  0  0  0  0
   -5.2018    2.1273   -4.4380 H   0  0  0  0  0  0  0  0  0  0  0  0
   -4.0161    3.1933   -5.2605 H   0  0  0  0  0  0  0  0  0  0  0  0
   -5.8346    2.6889   -6.7946 H   0  0  0  0  0  0  0  0  0  0  0  0
   -7.0407    3.2577   -5.6425 H   0  0  0  0  0  0  0  0  0  0  0  0
   -5.9005    4.4015   -6.3631 H   0  0  0  0  0  0  0  0  0  0  0  0
   -1.3648    2.0320   -3.1525 H   0  0  0  0  0  0  0  0  0  0  0  0
   -2.8888    2.1712   -4.0193 H   0  0  0  0  0  0  0  0  0  0  0  0
   -2.4573    2.6812   -1.0356 H   0  0  0  0  0  0  0  0  0  0  0  0
   -3.2531    1.2763   -1.7446 H   0  0  0  0  0  0  0  0  0  0  0  0
   -4.0099    2.8680   -1.8604 H   0  0  0  0  0  0  0  0  0  0  0  0
    1.6411   -2.7568   -1.2923 H   0  0  0  0  0  0  0  0  0  0  0  0
    2.4388   -4.6823   -2.5868 H   0  0  0  0  0  0  0  0  0  0  0  0
    3.3731   -5.3745   -4.9210 H   0  0  0  0  0  0  0  0  0  0  0  0
    4.8766   -5.2890   -4.0092 H   0  0  0  0  0  0  0  0  0  0  0  0
    4.7268   -4.4141   -5.5354 H   0  0  0  0  0  0  0  0  0  0  0  0
    4.8270   -2.0926   -4.9889 H   0  0  0  0  0  0  0  0  0  0  0  0
    4.0127   -0.1580   -3.7111 H   0  0  0  0  0  0  0  0  0  0  0  0
    0.1207   -1.1276   -2.7002 H   0  0  0  0  0  0  0  0  0  0  0  0
   -2.0790   -1.1521   -1.6244 H   0  0  0  0  0  0  0  0  0  0  0  0
   -3.4897   -0.7427    0.2477 H   0  0  0  0  0  0  0  0  0  0  0  0
   -3.1114    0.7989    1.0240 H   0  0  0  0  0  0  0  0  0  0  0  0
   -2.6799   -0.7113    1.8164 H   0  0  0  0  0  0  0  0  0  0  0  0
   -0.4283    0.7867    1.7966 H   0  0  0  0  0  0  0  0  0  0  0  0
    1.7803    0.7888    0.7384 H   0  0  0  0  0  0  0  0  0  0  0  0
    7.9991    3.3312    2.4590 H   0  0  0  0  0  0  0  0  0  0  0  0
    8.8340    5.4284    1.4920 H   0  0  0  0  0  0  0  0  0  0  0  0
    8.9460    6.8191   -0.7093 H   0  0  0  0  0  0  0  0  0  0  0  0
   10.5252    6.0481   -0.7677 H   0  0  0  0  0  0  0  0  0  0  0  0
    9.4536    5.9447   -2.1638 H   0  0  0  0  0  0  0  0  0  0  0  0
    8.8226    3.6507   -2.3851 H   0  0  0  0  0  0  0  0  0  0  0  0
    8.0009    1.5492   -1.4223 H   0  0  0  0  0  0  0  0  0  0  0  0
   10.0621    1.3916    1.9254 H   0  0  0  0  0  0  0  0  0  0  0  0
   11.0147    0.6801    4.0692 H   0  0  0  0  0  0  0  0  0  0  0  0
   10.4759   -1.4510    5.9092 H   0  0  0  0  0  0  0  0  0  0  0  0
   10.3704    0.1758    6.5698 H   0  0  0  0  0  0  0  0  0  0  0  0
    9.0295   -0.9574    6.7948 H   0  0  0  0  0  0  0  0  0  0  0  0
    7.2145   -0.8485    5.2612 H   0  0  0  0  0  0  0  0  0  0  0  0
    6.2476   -0.1144    3.1322 H   0  0  0  0  0  0  0  0  0  0  0  0
    8.3821   -1.3822    1.2755 H   0  0  0  0  0  0  0  0  0  0  0  0
    5.2256   -6.7830    0.7623 H   0  0  0  0  0  0  0  0  0  0  0  0
    9.9614   -6.4799    2.5302 H   0  0  0  0  0  0  0  0  0  0  0  0
    9.1156   -9.7483    1.9188 H   0  0  0  0  0  0  0  0  0  0  0  0
    9.1100   -9.8774    4.4049 H   0  0  0  0  0  0  0  0  0  0  0  0
    7.7400   -7.8197    5.2561 H   0  0  0  0  0  0  0  0  0  0  0  0
    5.2612   -8.0277    4.3251 H   0  0  0  0  0  0  0  0  0  0  0  0
    5.1038  -10.2149    2.8985 H   0  0  0  0  0  0  0  0  0  0  0  0
    7.4415  -11.5347    3.0942 H   0  0  0  0  0  0  0  0  0  0  0  0
    6.8010  -11.1389    4.7087 H   0  0  0  0  0  0  0  0  0  0  0  0
    6.7083   -9.9449    1.0124 H   0  0  0  0  0  0  0  0  0  0  0  0
  1  2  2  0  0  0  0
  2  3  1  0  0  0  0
  3  4  2  0  0  0  0
  3  5  1  0  0  0  0
  5  6  2  0  0  0  0
  6  7  1  0  0  0  0
  7  8  2  0  0  0  0
  8  9  1  0  0  0  0
  9 10  2  0  0  0  0
 10 11  1  0  0  0  0
 11 12  2  0  0  0  0
 12 13  1  0  0  0  0
 13 14  3  0  0  0  0
 12 15  1  0  0  0  0
 15 16  3  0  0  0  0
  8 17  1  0  0  0  0
 17 18  1  0  0  0  0
 18 19  1  0  0  0  0
 19 20  2  0  0  0  0
 20 21  1  0  0  0  0
 21 22  1  0  0  0  0
 21 23  1  0  0  0  0
  1 24  1  0  0  0  0
 24 25  1  0  0  0  0
 25 26  1  0  0  0  0
 26 27  2  0  0  0  0
 27 28  1  0  0  0  0
 28 29  1  0  0  0  0
 29 30  1  0  0  0  0
 30 31  2  0  0  0  0
 30 32  1  0  0  0  0
 32 33  1  0  0  0  0
 33 34  1  0  0  0  0
 29 35  2  0  0  0  0
 35 36  1  0  0  0  0
 35 37  1  0  0  0  0
 26 38  1  0  0  0  0
 38 39  2  0  0  0  0
 39 40  1  0  0  0  0
 40 41  2  0  0  0  0
 41 42  1  0  0  0  0
 42 43  2  0  0  0  0
 43 44  1  0  0  0  0
 44 45  1  0  0  0  0
 45 46  1  0  0  0  0
 44 47  2  0  0  0  0
 39 48  1  0  0  0  0
 48 49  1  0  0  0  0
 49 50  1  0  0  0  0
 50 51  1  0  0  0  0
 51 52  1  0  0  0  0
 52 53  1  0  0  0  0
 53 54  2  0  0  0  0
 54 55  1  0  0  0  0
 55 56  1  0  0  0  0
 53 57  1  0  0  0  0
 57 58  1  0  0  0  0
 58 59  1  0  0  0  0
 59 60  1  0  0  0  0
 60 61  1  0  0  0  0
 61 62  1  0  0  0  0
 62 63  2  0  0  0  0
 63 64  1  0  0  0  0
 64 65  2  0  0  0  0
 65 66  1  0  0  0  0
 66 67  1  0  0  0  0
 67 68  1  0  0  0  0
 66 69  2  0  0  0  0
 61 70  2  0  0  0  0
 70 71  1  0  0  0  0
 71 72  1  0  0  0  0
 72 73  1  0  0  0  0
 73 74  1  0  0  0  0
 74 75  1  0  0  0  0
 75 76  1  0  0  0  0
 76 77  1  0  0  0  0
 77 78  1  0  0  0  0
 78 79  1  0  0  0  0
 79 80  1  0  0  0  0
 77 81  1  0  0  0  0
 81 82  1  0  0  0  0
 74 83  1  0  0  0  0
 83 84  1  0  0  0  0
 70 85  1  0  0  0  0
 85 86  2  0  0  0  0
 86 87  1  0  0  0  0
 87 88  1  0  0  0  0
 88 89  2  0  0  0  0
 89 90  1  0  0  0  0
 90 91  2  0  0  0  0
 91 92  1  0  0  0  0
 91 93  1  0  0  0  0
 93 94  2  0  0  0  0
 87 95  1  0  0  0  0
 95 96  2  0  0  0  0
 96 97  1  0  0  0  0
 97 98  2  0  0  0  0
 98 99  1  0  0  0  0
 98100  1  0  0  0  0
100101  2  0  0  0  0
 86102  1  0  0  0  0
102103  1  0  0  0  0
103104  1  0  0  0  0
104105  2  0  0  0  0
105106  1  0  0  0  0
106107  1  0  0  0  0
107108  2  0  0  0  0
108109  1  0  0  0  0
109110  2  0  0  0  0
110111  1  0  0  0  0
110112  1  0  0  0  0
112113  2  0  0  0  0
106114  1  0  0  0  0
114115  2  0  0  0  0
115116  1  0  0  0  0
116117  2  0  0  0  0
117118  1  0  0  0  0
117119  1  0  0  0  0
119120  2  0  0  0  0
105121  1  0  0  0  0
121122  1  0  0  0  0
104123  1  0  0  0  0
123124  2  0  0  0  0
124125  1  0  0  0  0
125126  2  0  0  0  0
125127  1  0  0  0  0
127128  2  0  0  0  0
128129  1  0  0  0  0
129130  2  0  0  0  0
130131  1  0  0  0  0
131132  2  0  0  0  0
132133  1  0  0  0  0
133134  2  0  0  0  0
134135  1  0  0  0  0
135136  3  0  0  0  0
134137  1  0  0  0  0
137138  3  0  0  0  0
130139  1  0  0  0  0
139140  1  0  0  0  0
140141  1  0  0  0  0
141142  2  0  0  0  0
142143  1  0  0  0  0
143144  1  0  0  0  0
143145  1  0  0  0  0
 11  2  1  0  0  0  0
 23 17  1  0  0  0  0
 36 24  2  0  0  0  0
 80 38  1  0  0  0  0
122 85  1  0  0  0  0
133124  1  0  0  0  0
145139  1  0  0  0  0
 10  5  1  0  0  0  0
 22 18  1  0  0  0  0
 36 27  1  0  0  0  0
 47 40  1  0  0  0  0
 79 48  2  0  0  0  0
 94 88  1  0  0  0  0
101 95  1  0  0  0  0
121102  2  0  0  0  0
132127  1  0  0  0  0
144140  1  0  0  0  0
 23  7  1  0  0  0  0
 78 50  2  0  0  0  0
113107  1  0  0  0  0
120114  1  0  0  0  0
145129  1  0  0  0  0
 76 51  2  0  0  0  0
 56 52  2  0  0  0  0
 75 57  2  0  0  0  0
 73 58  2  0  0  0  0
 72 60  2  0  0  0  0
 69 62  1  0  0  0  0
  1146  1  0  0  0  0
  6147  1  0  0  0  0
  9148  1  0  0  0  0
 17149  1  0  0  0  0
 18150  1  0  0  0  0
 19151  1  0  0  0  0
 20152  1  0  0  0  0
 21153  1  0  0  0  0
 22154  1  0  0  0  0
 22155  1  0  0  0  0
 23156  1  0  0  0  0
 33157  1  0  0  0  0
 33158  1  0  0  0  0
 34159  1  0  0  0  0
 34160  1  0  0  0  0
 34161  1  0  0  0  0
 41162  1  0  0  0  0
 42163  1  0  0  0  0
 43164  1  0  0  0  0
 45165  1  0  0  0  0
 45166  1  0  0  0  0
 46167  1  0  0  0  0
 46168  1  0  0  0  0
 46169  1  0  0  0  0
 47170  1  0  0  0  0
 63171  1  0  0  0  0
 64172  1  0  0  0  0
 65173  1  0  0  0  0
 67174  1  0  0  0  0
 67175  1  0  0  0  0
 68176  1  0  0  0  0
 68177  1  0  0  0  0
 68178  1  0  0  0  0
 69179  1  0  0  0  0
 81180  1  0  0  0  0
 81181  1  0  0  0  0
 82182  1  0  0  0  0
 82183  1  0  0  0  0
 82184  1  0  0  0  0
 83185  1  0  0  0  0
 83186  1  0  0  0  0
 84187  1  0  0  0  0
 84188  1  0  0  0  0
 84189  1  0  0  0  0
 89190  1  0  0  0  0
 90191  1  0  0  0  0
 92192  1  0  0  0  0
 92193  1  0  0  0  0
 92194  1  0  0  0  0
 93195  1  0  0  0  0
 94196  1  0  0  0  0
 96197  1  0  0  0  0
 97198  1  0  0  0  0
 99199  1  0  0  0  0
 99200  1  0  0  0  0
 99201  1  0  0  0  0
100202  1  0  0  0  0
101203  1  0  0  0  0
108204  1  0  0  0  0
109205  1  0  0  0  0
111206  1  0  0  0  0
111207  1  0  0  0  0
111208  1  0  0  0  0
112209  1  0  0  0  0
113210  1  0  0  0  0
115211  1  0  0  0  0
116212  1  0  0  0  0
118213  1  0  0  0  0
118214  1  0  0  0  0
118215  1  0  0  0  0
119216  1  0  0  0  0
120217  1  0  0  0  0
123218  1  0  0  0  0
128219  1  0  0  0  0
131220  1  0  0  0  0
139221  1  0  0  0  0
140222  1  0  0  0  0
141223  1  0  0  0  0
142224  1  0  0  0  0
143225  1  0  0  0  0
144226  1  0  0  0  0
144227  1  0  0  0  0
145228  1  0  0  0  0
M  END
