172

C          1.63620       -3.45310       -9.75920
C          0.54430       -4.21570      -10.05590
C         -0.82360       -3.99260       -9.52140
O         -1.16670       -3.17530       -8.69330
C         -1.70520       -4.88450      -10.29360
C         -3.08060       -5.03690      -10.13310
C         -3.64470       -5.95600      -10.98420
C         -2.89930       -6.65830      -11.94160
C         -1.54500       -6.50720      -12.12060
C         -0.94740       -5.58980      -11.25110
C          0.45360       -5.20740      -11.11040
C          1.51460       -5.76760      -11.77360
C          2.87060       -5.49760      -11.48920
N          3.99270       -5.37370      -11.27920
C          1.39770       -6.73530      -12.79250
N          1.37160       -7.51840      -13.63170
C         -4.10250       -7.42310      -12.43260
C         -4.24950       -8.89580      -11.97560
C         -3.52290       -9.01070      -10.65840
C         -4.22650       -8.34940       -9.74900
C         -5.44140       -7.77500      -10.43500
C         -5.70440       -8.87040      -11.48060
C         -4.93150       -6.64400      -11.36320
C          1.84320       -2.60120       -8.64500
C          2.60450       -1.43300       -8.66640
C          2.60820       -0.87660       -7.36870
C          1.88280       -1.76800       -6.49970
O          1.70830       -1.76550       -5.29360
N          1.42380       -2.78780       -7.34800
C          0.79690       -3.95350       -6.78900
C          3.30890        0.33320       -7.39810
N          3.77440        0.50280       -8.67780
C          4.75170        1.44770       -9.14690
C          3.36410       -0.55790       -9.52860
O          3.67560       -0.62190      -10.69590
C          3.49350        1.17440       -6.27260
C          3.76010        2.53840       -6.13890
C          3.67400        3.54100       -7.19810
C          4.57930        4.59740       -7.25500
C          4.43880        5.57080       -8.22560
C          3.39500        5.50960       -9.13260
C          2.47400        4.46960       -9.08310
C          1.30980        4.42500      -10.02990
C          0.10980        5.16190       -9.43150
C          2.62240        3.49190       -8.11090
C          3.91970        2.88780       -4.78880
S          4.23900        4.41150       -3.98540
C          4.06700        3.61470       -2.45770
C          4.12840        3.90790       -1.08870
C          4.49880        5.09160       -0.41310
C          4.54990        5.08430        1.01920
N          4.95640        6.24090        1.51780
S          5.24740        7.25440        0.28870
N          4.86530        6.25500       -0.92670
C          4.12040        3.92980        1.71050
C          3.88970        3.71970        3.07660
S          4.00560        4.57460        4.57870
C          3.21570        3.23030        5.37710
C          2.74420        3.04530        6.68560
C          2.77020        4.09730        7.69870
C          3.91590        4.86400        7.89460
C          3.91360        5.87300        8.83880
C          2.77740        6.12930        9.58680
C          1.61790        5.38790        9.39040
C          0.39830        5.62590       10.23240
C          0.42520        4.73120       11.47460
C          1.62460        4.37860        8.43980
C          2.09670        1.81640        6.81240
S          2.02530        0.92750        5.29900
C          2.90790        2.17450        4.50780
C          3.30520        2.45550        3.19660
N          3.19120        1.87170        1.96650
C          3.69500        2.74980        1.02720
C          3.80630        2.70510       -0.39020
N          3.62410        1.70330       -1.32440
C          3.77140        2.25260       -2.56690
C          3.71190        1.82640       -3.89780
S          3.34750        0.36160       -4.71890
C          3.55020        0.26610       -1.18410
C          2.16410       -0.28980       -1.51990
C          2.44350        0.64040        1.84980
C          3.26370       -0.56840        2.29820
C          1.43240        1.21100        7.90890
C          0.32130        0.37410        7.80020
C         -0.13850        0.05800        9.09880
C          0.76860        0.66420       10.04970
O          0.82780        0.63840       11.25820
N          1.71230        1.34980        9.24590
C          2.90930        1.88560        9.83820
C         -1.32800       -0.66190        8.98880
N         -1.56930       -0.83480        7.64030
C         -2.53670       -1.69270        7.01270
C         -0.57340       -0.23050        6.84870
O         -0.54660       -0.30560        5.63490
C         -2.09030       -1.06060       10.11090
C         -3.39840       -1.38880       10.28330
S         -4.72530       -1.36360        9.14670
C         -5.86740       -1.83580       10.38940
C         -7.18270       -2.04150       10.06390
C         -8.19380       -2.50430       10.92240
N         -9.06050       -2.91340       11.55440
C         -7.60030       -1.82700        8.73350
N         -7.93450       -1.65160        7.65040
N         -5.26160       -1.97280       11.59480
C         -5.96700       -2.20750       12.83850
C         -6.85500       -1.04950       13.22610
C         -8.01910       -1.28600       13.94500
C         -8.83740       -0.23440       14.31390
C         -8.50280        1.06330       13.96560
C         -7.33910        1.30610       13.25780
C         -6.51580        0.25500       12.89340
C         -3.89140       -1.73980       11.61970
O         -3.22420       -1.83320       12.62300
H          2.45530       -3.42590      -10.46920
H         -3.61730       -4.47220       -9.38670
H         -0.98710       -7.04830      -12.86640
H         -4.36240       -7.28530      -13.48010
H         -3.98980       -9.63100      -12.73230
H         -2.57300       -9.49800      -10.53930
H         -3.98180       -8.17360       -8.71780
H         -6.26770       -7.49040       -9.78890
H         -6.41910       -8.57580      -12.24770
H         -6.01310       -9.81380      -11.03290
H         -5.73570       -5.99850      -11.71070
H         -0.28940       -3.84700       -6.79180
H          1.13640       -4.04240       -5.75600
H          1.07670       -4.84190       -7.35450
H          5.31100        0.96020       -9.94730
H          4.28250        2.34540       -9.55290
H          5.42510        1.72760       -8.33850
H          5.39650        4.64270       -6.55150
H          5.14680        6.38450       -8.27360
H          3.29060        6.27660       -9.88600
H          1.58490        4.89330      -10.97680
H          1.03310        3.38770      -10.22890
H         -0.18270        4.70580       -8.48840
H          0.35990        6.20380       -9.24430
H         -0.73660        5.12420      -10.11290
H          1.90410        2.68620       -8.04950
H          4.80510        4.65640        7.31940
H          4.80450        6.46270        8.99370
H          2.78570        6.91750       10.32550
H          0.36250        6.67150       10.54370
H         -0.50110        5.41000        9.65230
H          1.32180        4.92260       12.06040
H         -0.44260        4.92670       12.09950
H          0.41620        3.67960       11.19640
H          0.72320        3.80940        8.26100
H          3.85950       -0.00160       -0.17700
H          4.27640       -0.16790       -1.87990
H          2.07390       -1.30290       -1.13880
H          1.37400        0.32140       -1.08870
H          2.01000       -0.32340       -2.59470
H          2.08520        0.52860        0.83180
H          1.56890        0.72410        2.50420
H          4.20770       -0.63720        1.76130
H          3.48490       -0.49790        3.35970
H          2.69450       -1.47730        2.12740
H          2.78310        2.92930       10.12940
H          3.11780        1.30120       10.73580
H          3.74010        1.80540        9.13930
H         -2.14900       -1.92970        6.02020
H         -3.49950       -1.19290        6.88880
H         -2.66720       -2.61110        7.58330
H         -1.52450       -1.03840       11.03890
H         -5.18190       -2.34390       13.59290
H         -6.55040       -3.12940       12.76650
H         -8.28990       -2.29790       14.20480
H         -9.74270       -0.43080       14.86750
H         -9.14670        1.88340       14.24540
H         -7.06780        2.31570       12.98730
H         -5.60180        0.46040       12.35270
