
  xtb     02182212093D
 energy: -380.227982649834 gnorm: 0.000927819699 xtb: 6.4.1 (unknown)
233260  0     0  0            999 V2000
   11.1676    1.6084   -3.1193 C   0  0  0  0  0  0  0  0  0  0  0  0
   12.1948    2.2527   -3.7433 C   0  0  0  0  0  0  0  0  0  0  0  0
   13.5231    1.5648   -3.7770 C   0  0  0  0  0  0  0  0  0  0  0  0
   13.7314    0.4048   -3.4978 O   0  0  0  0  0  0  0  0  0  0  0  0
   14.4928    2.5987   -4.1674 C   0  0  0  0  0  0  0  0  0  0  0  0
   15.8815    2.4819   -4.2179 C   0  0  0  0  0  0  0  0  0  0  0  0
   16.5267    3.6381   -4.5843 C   0  0  0  0  0  0  0  0  0  0  0  0
   15.8452    4.8297   -4.8671 C   0  0  0  0  0  0  0  0  0  0  0  0
   14.4767    4.9591   -4.8262 C   0  0  0  0  0  0  0  0  0  0  0  0
   13.8008    3.7899   -4.4718 C   0  0  0  0  0  0  0  0  0  0  0  0
   12.3635    3.5447   -4.3540 C   0  0  0  0  0  0  0  0  0  0  0  0
   11.3815    4.3246   -4.9093 C   0  0  0  0  0  0  0  0  0  0  0  0
   11.6089    5.5514   -5.5662 C   0  0  0  0  0  0  0  0  0  0  0  0
   11.7183    6.5520   -6.1180 N   0  0  0  0  0  0  0  0  0  0  0  0
   10.0332    3.9331   -5.0038 C   0  0  0  0  0  0  0  0  0  0  0  0
    8.9262    3.6541   -5.1287 N   0  0  0  0  0  0  0  0  0  0  0  0
   17.1197    5.5853   -5.1493 C   0  0  0  0  0  0  0  0  0  0  0  0
   17.4574    5.8341   -6.6346 C   0  0  0  0  0  0  0  0  0  0  0  0
   18.9369    6.1433   -6.6221 C   0  0  0  0  0  0  0  0  0  0  0  0
   19.5827    5.0145   -6.3585 C   0  0  0  0  0  0  0  0  0  0  0  0
   18.5503    3.9233   -6.1884 C   0  0  0  0  0  0  0  0  0  0  0  0
   17.4913    4.4040   -7.1889 C   0  0  0  0  0  0  0  0  0  0  0  0
   17.8797    4.2560   -4.8385 C   0  0  0  0  0  0  0  0  0  0  0  0
    9.9391    2.0875   -2.6147 C   0  0  0  0  0  0  0  0  0  0  0  0
    9.5236    3.3709   -2.2572 C   0  0  0  0  0  0  0  0  0  0  0  0
    8.2185    3.2796   -1.7147 C   0  0  0  0  0  0  0  0  0  0  0  0
    7.8116    1.8935   -1.7266 C   0  0  0  0  0  0  0  0  0  0  0  0
    6.7861    1.3393   -1.3856 O   0  0  0  0  0  0  0  0  0  0  0  0
    8.9177    1.2243   -2.2702 N   0  0  0  0  0  0  0  0  0  0  0  0
    8.8843   -0.2019   -2.4878 C   0  0  0  0  0  0  0  0  0  0  0  0
    9.5021   -0.9717   -1.3222 C   0  0  0  0  0  0  0  0  0  0  0  0
    7.8004    4.5486   -1.3357 C   0  0  0  0  0  0  0  0  0  0  0  0
    8.8107    5.4305   -1.6403 N   0  0  0  0  0  0  0  0  0  0  0  0
    8.7137    6.8749   -1.6941 C   0  0  0  0  0  0  0  0  0  0  0  0
    9.8039    7.5685   -0.8858 C   0  0  0  0  0  0  0  0  0  0  0  0
    9.9067    4.7648   -2.2196 C   0  0  0  0  0  0  0  0  0  0  0  0
   10.9105    5.3337   -2.6073 O   0  0  0  0  0  0  0  0  0  0  0  0
    6.5257    4.8574   -0.7801 C   0  0  0  0  0  0  0  0  0  0  0  0
    6.1459    5.7620    0.2033 C   0  0  0  0  0  0  0  0  0  0  0  0
    7.0517    6.5053    1.0779 C   0  0  0  0  0  0  0  0  0  0  0  0
    8.1765    5.8805    1.6123 C   0  0  0  0  0  0  0  0  0  0  0  0
    8.9699    6.5555    2.5212 C   0  0  0  0  0  0  0  0  0  0  0  0
    8.6557    7.8504    2.8978 C   0  0  0  0  0  0  0  0  0  0  0  0
    7.5416    8.4899    2.3686 C   0  0  0  0  0  0  0  0  0  0  0  0
    7.1569    9.8714    2.8106 C   0  0  0  0  0  0  0  0  0  0  0  0
    6.1001    9.7949    3.9146 C   0  0  0  0  0  0  0  0  0  0  0  0
    6.7441    7.8054    1.4643 C   0  0  0  0  0  0  0  0  0  0  0  0
    4.7555    5.7277    0.4076 C   0  0  0  0  0  0  0  0  0  0  0  0
    3.6950    6.5690    1.5165 S   0  0  0  0  0  0  0  0  0  0  0  0
    2.3637    5.6386    0.9165 C   0  0  0  0  0  0  0  0  0  0  0  0
    0.9840    5.4840    1.1332 C   0  0  0  0  0  0  0  0  0  0  0  0
    0.0693    6.1777    1.9556 C   0  0  0  0  0  0  0  0  0  0  0  0
   -1.3196    5.8084    1.9194 C   0  0  0  0  0  0  0  0  0  0  0  0
   -2.0635    6.5669    2.7089 N   0  0  0  0  0  0  0  0  0  0  0  0
   -1.1044    7.6504    3.4352 S   0  0  0  0  0  0  0  0  0  0  0  0
    0.3008    7.1926    2.7730 N   0  0  0  0  0  0  0  0  0  0  0  0
   -1.7107    4.6816    1.1624 C   0  0  0  0  0  0  0  0  0  0  0  0
   -2.9169    3.9630    1.1158 C   0  0  0  0  0  0  0  0  0  0  0  0
   -4.5076    4.0243    1.8006 S   0  0  0  0  0  0  0  0  0  0  0  0
   -4.8275    2.4387    1.1412 C   0  0  0  0  0  0  0  0  0  0  0  0
   -5.9075    1.5458    1.3003 C   0  0  0  0  0  0  0  0  0  0  0  0
   -7.1384    1.8841    2.0199 C   0  0  0  0  0  0  0  0  0  0  0  0
   -8.3765    1.7540    1.3981 C   0  0  0  0  0  0  0  0  0  0  0  0
   -9.5306    2.0775    2.0866 C   0  0  0  0  0  0  0  0  0  0  0  0
   -9.4578    2.5464    3.3861 C   0  0  0  0  0  0  0  0  0  0  0  0
   -8.2274    2.7148    4.0098 C   0  0  0  0  0  0  0  0  0  0  0  0
   -8.1406    3.2070    5.4261 C   0  0  0  0  0  0  0  0  0  0  0  0
   -8.1020    2.0297    6.4025 C   0  0  0  0  0  0  0  0  0  0  0  0
   -7.0744    2.3785    3.3170 C   0  0  0  0  0  0  0  0  0  0  0  0
   -5.6208    0.3153    0.7448 C   0  0  0  0  0  0  0  0  0  0  0  0
   -4.0940    0.3190   -0.1329 S   0  0  0  0  0  0  0  0  0  0  0  0
   -3.7605    1.9225    0.4082 C   0  0  0  0  0  0  0  0  0  0  0  0
   -2.6706    2.8011    0.3789 C   0  0  0  0  0  0  0  0  0  0  0  0
   -1.3779    2.7935   -0.0669 N   0  0  0  0  0  0  0  0  0  0  0  0
   -0.7685    3.9461    0.3906 C   0  0  0  0  0  0  0  0  0  0  0  0
    0.5539    4.4390    0.2682 C   0  0  0  0  0  0  0  0  0  0  0  0
    1.6279    4.0202   -0.4964 N   0  0  0  0  0  0  0  0  0  0  0  0
    2.7240    4.7366   -0.0880 C   0  0  0  0  0  0  0  0  0  0  0  0
    4.0901    4.7854   -0.3853 C   0  0  0  0  0  0  0  0  0  0  0  0
    5.1778    3.9238   -1.4057 S   0  0  0  0  0  0  0  0  0  0  0  0
    1.6182    3.4526   -1.8278 C   0  0  0  0  0  0  0  0  0  0  0  0
    1.7841    4.5380   -2.8915 C   0  0  0  0  0  0  0  0  0  0  0  0
   -0.7976    1.5681   -0.5703 C   0  0  0  0  0  0  0  0  0  0  0  0
   -1.2430    1.2680   -2.0014 C   0  0  0  0  0  0  0  0  0  0  0  0
   -6.2614   -0.9481    0.9461 C   0  0  0  0  0  0  0  0  0  0  0  0
   -5.6160   -2.1330    1.2851 C   0  0  0  0  0  0  0  0  0  0  0  0
   -4.2760   -2.2679    1.6086 N   0  0  0  0  0  0  0  0  0  0  0  0
   -3.5723   -1.2730    2.2933 C   0  0  0  0  0  0  0  0  0  0  0  0
   -2.2103   -1.0951    2.0508 C   0  0  0  0  0  0  0  0  0  0  0  0
   -1.5283   -0.0433    2.6309 C   0  0  0  0  0  0  0  0  0  0  0  0
   -2.1750    0.8638    3.4601 C   0  0  0  0  0  0  0  0  0  0  0  0
   -1.4620    2.0515    4.0302 C   0  0  0  0  0  0  0  0  0  0  0  0
   -3.5167    0.6411    3.7498 C   0  0  0  0  0  0  0  0  0  0  0  0
   -4.2089   -0.4117    3.1876 C   0  0  0  0  0  0  0  0  0  0  0  0
   -3.6590   -3.5015    1.3229 C   0  0  0  0  0  0  0  0  0  0  0  0
   -3.8512   -4.1032    0.0827 C   0  0  0  0  0  0  0  0  0  0  0  0
   -3.3128   -5.3478   -0.1733 C   0  0  0  0  0  0  0  0  0  0  0  0
   -2.5666   -6.0162    0.7894 C   0  0  0  0  0  0  0  0  0  0  0  0
   -2.0446   -7.3940    0.5233 C   0  0  0  0  0  0  0  0  0  0  0  0
   -2.3494   -5.3905    2.0105 C   0  0  0  0  0  0  0  0  0  0  0  0
   -2.8873   -4.1485    2.2816 C   0  0  0  0  0  0  0  0  0  0  0  0
   -6.5259   -3.2174    1.3279 C   0  0  0  0  0  0  0  0  0  0  0  0
   -6.3434   -4.9053    1.6430 S   0  0  0  0  0  0  0  0  0  0  0  0
   -8.0813   -5.1392    1.4208 C   0  0  0  0  0  0  0  0  0  0  0  0
   -8.7632   -3.9062    1.2359 C   0  0  0  0  0  0  0  0  0  0  0  0
  -10.1180   -3.7440    1.1951 N   0  0  0  0  0  0  0  0  0  0  0  0
  -10.6436   -2.6105    0.5377 C   0  0  0  0  0  0  0  0  0  0  0  0
  -10.2637   -2.3231   -0.7699 C   0  0  0  0  0  0  0  0  0  0  0  0
  -10.7557   -1.1970   -1.3988 C   0  0  0  0  0  0  0  0  0  0  0  0
  -11.6331   -0.3377   -0.7471 C   0  0  0  0  0  0  0  0  0  0  0  0
  -12.1258    0.9033   -1.4250 C   0  0  0  0  0  0  0  0  0  0  0  0
  -12.0223   -0.6473    0.5505 C   0  0  0  0  0  0  0  0  0  0  0  0
  -11.5383   -1.7704    1.1912 C   0  0  0  0  0  0  0  0  0  0  0  0
  -11.0098   -4.5415    1.9392 C   0  0  0  0  0  0  0  0  0  0  0  0
  -12.2661   -4.8336    1.4152 C   0  0  0  0  0  0  0  0  0  0  0  0
  -13.1503   -5.6114    2.1354 C   0  0  0  0  0  0  0  0  0  0  0  0
  -12.8081   -6.1210    3.3823 C   0  0  0  0  0  0  0  0  0  0  0  0
  -13.7623   -7.0011    4.1288 C   0  0  0  0  0  0  0  0  0  0  0  0
  -11.5599   -5.8040    3.9057 C   0  0  0  0  0  0  0  0  0  0  0  0
  -10.6701   -5.0163    3.2033 C   0  0  0  0  0  0  0  0  0  0  0  0
   -7.8468   -2.8477    1.1127 C   0  0  0  0  0  0  0  0  0  0  0  0
   -8.0006   -1.1452    0.8209 S   0  0  0  0  0  0  0  0  0  0  0  0
   -8.6983   -6.3772    1.2739 C   0  0  0  0  0  0  0  0  0  0  0  0
   -8.1774   -7.6505    1.3675 C   0  0  0  0  0  0  0  0  0  0  0  0
   -6.8296   -8.0062    1.8098 C   0  0  0  0  0  0  0  0  0  0  0  0
   -5.9196   -7.2564    2.1257 O   0  0  0  0  0  0  0  0  0  0  0  0
   -6.7739   -9.4797    1.8249 C   0  0  0  0  0  0  0  0  0  0  0  0
   -5.6825  -10.2739    2.1638 C   0  0  0  0  0  0  0  0  0  0  0  0
   -5.9211  -11.6238    2.0628 C   0  0  0  0  0  0  0  0  0  0  0  0
   -7.1568  -12.1431    1.6585 C   0  0  0  0  0  0  0  0  0  0  0  0
   -8.2441  -11.3684    1.3275 C   0  0  0  0  0  0  0  0  0  0  0  0
   -8.0215   -9.9927    1.4203 C   0  0  0  0  0  0  0  0  0  0  0  0
   -8.9086   -8.8676    1.1175 C   0  0  0  0  0  0  0  0  0  0  0  0
  -10.1965   -8.9829    0.6481 C   0  0  0  0  0  0  0  0  0  0  0  0
  -11.0132   -7.9221    0.2137 C   0  0  0  0  0  0  0  0  0  0  0  0
  -11.7368   -7.1295   -0.2010 N   0  0  0  0  0  0  0  0  0  0  0  0
  -10.8868  -10.2015    0.4996 C   0  0  0  0  0  0  0  0  0  0  0  0
  -11.5235  -11.1494    0.3692 N   0  0  0  0  0  0  0  0  0  0  0  0
   -6.6793  -13.5706    1.7566 C   0  0  0  0  0  0  0  0  0  0  0  0
   -6.3281  -14.3040    0.4386 C   0  0  0  0  0  0  0  0  0  0  0  0
   -5.9299  -13.2385   -0.5521 C   0  0  0  0  0  0  0  0  0  0  0  0
   -4.7591  -12.7468   -0.1691 C   0  0  0  0  0  0  0  0  0  0  0  0
   -4.3449  -13.4708    1.0880 C   0  0  0  0  0  0  0  0  0  0  0  0
   -4.9437  -14.8588    0.8103 C   0  0  0  0  0  0  0  0  0  0  0  0
   -5.3014  -12.9915    2.2078 C   0  0  0  0  0  0  0  0  0  0  0  0
   11.3827    0.5633   -2.9161 H   0  0  0  0  0  0  0  0  0  0  0  0
   16.3690    1.5498   -3.9785 H   0  0  0  0  0  0  0  0  0  0  0  0
   13.9619    5.8835   -5.0285 H   0  0  0  0  0  0  0  0  0  0  0  0
   17.3070    6.4523   -4.5188 H   0  0  0  0  0  0  0  0  0  0  0  0
   16.8106    6.5501   -7.1340 H   0  0  0  0  0  0  0  0  0  0  0  0
   19.3451    7.1291   -6.7463 H   0  0  0  0  0  0  0  0  0  0  0  0
   20.6379    4.8692   -6.2187 H   0  0  0  0  0  0  0  0  0  0  0  0
   18.9012    2.8991   -6.2830 H   0  0  0  0  0  0  0  0  0  0  0  0
   16.5412    3.8780   -7.1170 H   0  0  0  0  0  0  0  0  0  0  0  0
   17.8501    4.3692   -8.2162 H   0  0  0  0  0  0  0  0  0  0  0  0
   18.5757    4.2370   -4.0017 H   0  0  0  0  0  0  0  0  0  0  0  0
    9.3888   -0.4387   -3.4277 H   0  0  0  0  0  0  0  0  0  0  0  0
    7.8273   -0.4705   -2.5755 H   0  0  0  0  0  0  0  0  0  0  0  0
    8.9669   -0.7407   -0.4044 H   0  0  0  0  0  0  0  0  0  0  0  0
    9.4286   -2.0396   -1.5086 H   0  0  0  0  0  0  0  0  0  0  0  0
   10.5500   -0.7137   -1.1869 H   0  0  0  0  0  0  0  0  0  0  0  0
    8.8093    7.1728   -2.7453 H   0  0  0  0  0  0  0  0  0  0  0  0
    7.7249    7.1628   -1.3354 H   0  0  0  0  0  0  0  0  0  0  0  0
    9.7636    7.2676    0.1568 H   0  0  0  0  0  0  0  0  0  0  0  0
   10.7792    7.3162   -1.2913 H   0  0  0  0  0  0  0  0  0  0  0  0
    9.6645    8.6443   -0.9456 H   0  0  0  0  0  0  0  0  0  0  0  0
    8.4092    4.8637    1.3314 H   0  0  0  0  0  0  0  0  0  0  0  0
    9.8368    6.0670    2.9416 H   0  0  0  0  0  0  0  0  0  0  0  0
    9.2799    8.3685    3.6113 H   0  0  0  0  0  0  0  0  0  0  0  0
    6.7521   10.4309    1.9649 H   0  0  0  0  0  0  0  0  0  0  0  0
    8.0350   10.4016    3.1839 H   0  0  0  0  0  0  0  0  0  0  0  0
    6.4909    9.2553    4.7745 H   0  0  0  0  0  0  0  0  0  0  0  0
    5.2157    9.2727    3.5569 H   0  0  0  0  0  0  0  0  0  0  0  0
    5.8107   10.7934    4.2333 H   0  0  0  0  0  0  0  0  0  0  0  0
    5.8747    8.2919    1.0463 H   0  0  0  0  0  0  0  0  0  0  0  0
   -8.4296    1.4251    0.3708 H   0  0  0  0  0  0  0  0  0  0  0  0
  -10.4896    1.9635    1.6035 H   0  0  0  0  0  0  0  0  0  0  0  0
  -10.3635    2.7977    3.9194 H   0  0  0  0  0  0  0  0  0  0  0  0
   -9.0043    3.8349    5.6530 H   0  0  0  0  0  0  0  0  0  0  0  0
   -7.2383    3.8088    5.5511 H   0  0  0  0  0  0  0  0  0  0  0  0
   -8.0376    2.3875    7.4275 H   0  0  0  0  0  0  0  0  0  0  0  0
   -9.0001    1.4243    6.3015 H   0  0  0  0  0  0  0  0  0  0  0  0
   -7.2401    1.3975    6.2006 H   0  0  0  0  0  0  0  0  0  0  0  0
   -6.1109    2.4974    3.7903 H   0  0  0  0  0  0  0  0  0  0  0  0
    2.4396    2.7329   -1.9012 H   0  0  0  0  0  0  0  0  0  0  0  0
    0.6747    2.9475   -1.9978 H   0  0  0  0  0  0  0  0  0  0  0  0
    2.7403    5.0428   -2.7888 H   0  0  0  0  0  0  0  0  0  0  0  0
    0.9881    5.2751   -2.8046 H   0  0  0  0  0  0  0  0  0  0  0  0
    1.7381    4.0874   -3.8790 H   0  0  0  0  0  0  0  0  0  0  0  0
    0.2877    1.6248   -0.4841 H   0  0  0  0  0  0  0  0  0  0  0  0
   -1.1426    0.7531    0.0760 H   0  0  0  0  0  0  0  0  0  0  0  0
   -2.3061    1.0437   -2.0198 H   0  0  0  0  0  0  0  0  0  0  0  0
   -0.7034    0.4045   -2.3794 H   0  0  0  0  0  0  0  0  0  0  0  0
   -1.0675    2.1113   -2.6662 H   0  0  0  0  0  0  0  0  0  0  0  0
   -1.7008   -1.7722    1.3808 H   0  0  0  0  0  0  0  0  0  0  0  0
   -0.4750    0.0843    2.4222 H   0  0  0  0  0  0  0  0  0  0  0  0
   -1.9730    2.9721    3.7484 H   0  0  0  0  0  0  0  0  0  0  0  0
   -0.4373    2.1023    3.6696 H   0  0  0  0  0  0  0  0  0  0  0  0
   -1.4449    2.0023    5.1184 H   0  0  0  0  0  0  0  0  0  0  0  0
   -4.0274    1.3103    4.4271 H   0  0  0  0  0  0  0  0  0  0  0  0
   -5.2504   -0.5641    3.4302 H   0  0  0  0  0  0  0  0  0  0  0  0
   -4.4346   -3.5927   -0.6703 H   0  0  0  0  0  0  0  0  0  0  0  0
   -3.4812   -5.8123   -1.1343 H   0  0  0  0  0  0  0  0  0  0  0  0
   -1.6953   -7.4878   -0.5026 H   0  0  0  0  0  0  0  0  0  0  0  0
   -2.8459   -8.1177    0.6724 H   0  0  0  0  0  0  0  0  0  0  0  0
   -1.2303   -7.6423    1.1990 H   0  0  0  0  0  0  0  0  0  0  0  0
   -1.7672   -5.8914    2.7703 H   0  0  0  0  0  0  0  0  0  0  0  0
   -2.7297   -3.6807    3.2425 H   0  0  0  0  0  0  0  0  0  0  0  0
   -9.5857   -2.9879   -1.2846 H   0  0  0  0  0  0  0  0  0  0  0  0
  -10.4548   -0.9811   -2.4135 H   0  0  0  0  0  0  0  0  0  0  0  0
  -11.3709    1.6877   -1.3569 H   0  0  0  0  0  0  0  0  0  0  0  0
  -13.0372    1.2681   -0.9579 H   0  0  0  0  0  0  0  0  0  0  0  0
  -12.3190    0.7181   -2.4793 H   0  0  0  0  0  0  0  0  0  0  0  0
  -12.7101    0.0030    1.0715 H   0  0  0  0  0  0  0  0  0  0  0  0
  -11.8407   -1.9981    2.2026 H   0  0  0  0  0  0  0  0  0  0  0  0
  -12.5365   -4.4618    0.4395 H   0  0  0  0  0  0  0  0  0  0  0  0
  -14.1154   -5.8438    1.7117 H   0  0  0  0  0  0  0  0  0  0  0  0
  -13.8329   -7.9723    3.6386 H   0  0  0  0  0  0  0  0  0  0  0  0
  -14.7590   -6.5638    4.1415 H   0  0  0  0  0  0  0  0  0  0  0  0
  -13.4324   -7.1566    5.1529 H   0  0  0  0  0  0  0  0  0  0  0  0
  -11.2800   -6.1731    4.8820 H   0  0  0  0  0  0  0  0  0  0  0  0
   -9.7072   -4.7734    3.6283 H   0  0  0  0  0  0  0  0  0  0  0  0
   -9.7479   -6.3182    1.0168 H   0  0  0  0  0  0  0  0  0  0  0  0
   -4.7480   -9.8297    2.4703 H   0  0  0  0  0  0  0  0  0  0  0  0
   -9.1875  -11.7860    1.0179 H   0  0  0  0  0  0  0  0  0  0  0  0
   -7.2177  -14.2082    2.4551 H   0  0  0  0  0  0  0  0  0  0  0  0
   -7.0791  -15.0141    0.1030 H   0  0  0  0  0  0  0  0  0  0  0  0
   -6.5485  -12.9207   -1.3709 H   0  0  0  0  0  0  0  0  0  0  0  0
   -4.2044  -11.9362   -0.6045 H   0  0  0  0  0  0  0  0  0  0  0  0
   -3.2894  -13.4231    1.3437 H   0  0  0  0  0  0  0  0  0  0  0  0
   -4.9574  -15.5080    1.6849 H   0  0  0  0  0  0  0  0  0  0  0  0
   -4.4573  -15.3697   -0.0195 H   0  0  0  0  0  0  0  0  0  0  0  0
   -4.9406  -13.2518    3.2012 H   0  0  0  0  0  0  0  0  0  0  0  0
  1  2  2  0  0  0  0
  2  3  1  0  0  0  0
  3  4  2  0  0  0  0
  3  5  1  0  0  0  0
  5  6  2  0  0  0  0
  6  7  1  0  0  0  0
  7  8  2  0  0  0  0
  8  9  1  0  0  0  0
  9 10  2  0  0  0  0
 10 11  1  0  0  0  0
 11 12  2  0  0  0  0
 12 13  1  0  0  0  0
 13 14  3  0  0  0  0
 12 15  1  0  0  0  0
 15 16  3  0  0  0  0
  8 17  1  0  0  0  0
 17 18  1  0  0  0  0
 18 19  1  0  0  0  0
 19 20  2  0  0  0  0
 20 21  1  0  0  0  0
 21 22  1  0  0  0  0
 21 23  1  0  0  0  0
  1 24  1  0  0  0  0
 24 25  2  0  0  0  0
 25 26  1  0  0  0  0
 26 27  1  0  0  0  0
 27 28  2  0  0  0  0
 27 29  1  0  0  0  0
 29 30  1  0  0  0  0
 30 31  1  0  0  0  0
 26 32  2  0  0  0  0
 32 33  1  0  0  0  0
 33 34  1  0  0  0  0
 34 35  1  0  0  0  0
 33 36  1  0  0  0  0
 36 37  2  0  0  0  0
 32 38  1  0  0  0  0
 38 39  2  0  0  0  0
 39 40  1  0  0  0  0
 40 41  2  0  0  0  0
 41 42  1  0  0  0  0
 42 43  2  0  0  0  0
 43 44  1  0  0  0  0
 44 45  1  0  0  0  0
 45 46  1  0  0  0  0
 44 47  2  0  0  0  0
 39 48  1  0  0  0  0
 48 49  1  0  0  0  0
 49 50  1  0  0  0  0
 50 51  1  0  0  0  0
 51 52  1  0  0  0  0
 52 53  1  0  0  0  0
 53 54  2  0  0  0  0
 54 55  1  0  0  0  0
 55 56  1  0  0  0  0
 53 57  1  0  0  0  0
 57 58  1  0  0  0  0
 58 59  1  0  0  0  0
 59 60  1  0  0  0  0
 60 61  1  0  0  0  0
 61 62  1  0  0  0  0
 62 63  2  0  0  0  0
 63 64  1  0  0  0  0
 64 65  2  0  0  0  0
 65 66  1  0  0  0  0
 66 67  1  0  0  0  0
 67 68  1  0  0  0  0
 66 69  2  0  0  0  0
 61 70  2  0  0  0  0
 70 71  1  0  0  0  0
 71 72  1  0  0  0  0
 72 73  1  0  0  0  0
 73 74  1  0  0  0  0
 74 75  1  0  0  0  0
 75 76  1  0  0  0  0
 76 77  1  0  0  0  0
 77 78  1  0  0  0  0
 78 79  1  0  0  0  0
 79 80  1  0  0  0  0
 77 81  1  0  0  0  0
 81 82  1  0  0  0  0
 74 83  1  0  0  0  0
 83 84  1  0  0  0  0
 70 85  1  0  0  0  0
 85 86  2  0  0  0  0
 86 87  1  0  0  0  0
 87 88  1  0  0  0  0
 88 89  2  0  0  0  0
 89 90  1  0  0  0  0
 90 91  2  0  0  0  0
 91 92  1  0  0  0  0
 91 93  1  0  0  0  0
 93 94  2  0  0  0  0
 87 95  1  0  0  0  0
 95 96  2  0  0  0  0
 96 97  1  0  0  0  0
 97 98  2  0  0  0  0
 98 99  1  0  0  0  0
 98100  1  0  0  0  0
100101  2  0  0  0  0
 86102  1  0  0  0  0
102103  1  0  0  0  0
103104  1  0  0  0  0
104105  2  0  0  0  0
105106  1  0  0  0  0
106107  1  0  0  0  0
107108  2  0  0  0  0
108109  1  0  0  0  0
109110  2  0  0  0  0
110111  1  0  0  0  0
110112  1  0  0  0  0
112113  2  0  0  0  0
106114  1  0  0  0  0
114115  2  0  0  0  0
115116  1  0  0  0  0
116117  2  0  0  0  0
117118  1  0  0  0  0
117119  1  0  0  0  0
119120  2  0  0  0  0
105121  1  0  0  0  0
121122  1  0  0  0  0
104123  1  0  0  0  0
123124  2  0  0  0  0
124125  1  0  0  0  0
125126  2  0  0  0  0
125127  1  0  0  0  0
127128  2  0  0  0  0
128129  1  0  0  0  0
129130  2  0  0  0  0
130131  1  0  0  0  0
131132  2  0  0  0  0
132133  1  0  0  0  0
133134  2  0  0  0  0
134135  1  0  0  0  0
135136  3  0  0  0  0
134137  1  0  0  0  0
137138  3  0  0  0  0
130139  1  0  0  0  0
139140  1  0  0  0  0
140141  1  0  0  0  0
141142  2  0  0  0  0
142143  1  0  0  0  0
143144  1  0  0  0  0
143145  1  0  0  0  0
 11  2  1  0  0  0  0
 23 17  1  0  0  0  0
 29 24  1  0  0  0  0
 80 38  1  0  0  0  0
122 85  1  0  0  0  0
133124  1  0  0  0  0
145139  1  0  0  0  0
 10  5  1  0  0  0  0
 22 18  1  0  0  0  0
 36 25  1  0  0  0  0
 47 40  1  0  0  0  0
 79 48  2  0  0  0  0
 94 88  1  0  0  0  0
101 95  1  0  0  0  0
121102  2  0  0  0  0
132127  1  0  0  0  0
144140  1  0  0  0  0
 23  7  1  0  0  0  0
 78 50  2  0  0  0  0
113107  1  0  0  0  0
120114  1  0  0  0  0
145129  1  0  0  0  0
 76 51  2  0  0  0  0
 56 52  2  0  0  0  0
 75 57  2  0  0  0  0
 73 58  2  0  0  0  0
 72 60  2  0  0  0  0
 69 62  1  0  0  0  0
  1146  1  0  0  0  0
  6147  1  0  0  0  0
  9148  1  0  0  0  0
 17149  1  0  0  0  0
 18150  1  0  0  0  0
 19151  1  0  0  0  0
 20152  1  0  0  0  0
 21153  1  0  0  0  0
 22154  1  0  0  0  0
 22155  1  0  0  0  0
 23156  1  0  0  0  0
 30157  1  0  0  0  0
 30158  1  0  0  0  0
 31159  1  0  0  0  0
 31160  1  0  0  0  0
 31161  1  0  0  0  0
 34162  1  0  0  0  0
 34163  1  0  0  0  0
 35164  1  0  0  0  0
 35165  1  0  0  0  0
 35166  1  0  0  0  0
 41167  1  0  0  0  0
 42168  1  0  0  0  0
 43169  1  0  0  0  0
 45170  1  0  0  0  0
 45171  1  0  0  0  0
 46172  1  0  0  0  0
 46173  1  0  0  0  0
 46174  1  0  0  0  0
 47175  1  0  0  0  0
 63176  1  0  0  0  0
 64177  1  0  0  0  0
 65178  1  0  0  0  0
 67179  1  0  0  0  0
 67180  1  0  0  0  0
 68181  1  0  0  0  0
 68182  1  0  0  0  0
 68183  1  0  0  0  0
 69184  1  0  0  0  0
 81185  1  0  0  0  0
 81186  1  0  0  0  0
 82187  1  0  0  0  0
 82188  1  0  0  0  0
 82189  1  0  0  0  0
 83190  1  0  0  0  0
 83191  1  0  0  0  0
 84192  1  0  0  0  0
 84193  1  0  0  0  0
 84194  1  0  0  0  0
 89195  1  0  0  0  0
 90196  1  0  0  0  0
 92197  1  0  0  0  0
 92198  1  0  0  0  0
 92199  1  0  0  0  0
 93200  1  0  0  0  0
 94201  1  0  0  0  0
 96202  1  0  0  0  0
 97203  1  0  0  0  0
 99204  1  0  0  0  0
 99205  1  0  0  0  0
 99206  1  0  0  0  0
100207  1  0  0  0  0
101208  1  0  0  0  0
108209  1  0  0  0  0
109210  1  0  0  0  0
111211  1  0  0  0  0
111212  1  0  0  0  0
111213  1  0  0  0  0
112214  1  0  0  0  0
113215  1  0  0  0  0
115216  1  0  0  0  0
116217  1  0  0  0  0
118218  1  0  0  0  0
118219  1  0  0  0  0
118220  1  0  0  0  0
119221  1  0  0  0  0
120222  1  0  0  0  0
123223  1  0  0  0  0
128224  1  0  0  0  0
131225  1  0  0  0  0
139226  1  0  0  0  0
140227  1  0  0  0  0
141228  1  0  0  0  0
142229  1  0  0  0  0
143230  1  0  0  0  0
144231  1  0  0  0  0
144232  1  0  0  0  0
145233  1  0  0  0  0
M  END
