227

C         -5.80210       -0.82810        3.24380
C         -4.66690       -1.02230        3.96650
C         -3.44590       -1.69060        3.44130
O         -3.17630       -1.94070        2.28540
C         -2.67480       -2.09120        4.62760
C         -1.49470       -2.83110        4.63610
C         -0.99790       -3.08140        5.89130
C         -1.64280       -2.65570        7.06170
C         -2.81400       -1.93380        7.06860
C         -3.32520       -1.64760        5.79750
C         -4.52670       -0.91950        5.40920
C         -5.33120       -0.17330        6.22760
C         -6.38340        0.63960        5.75380
N         -7.21640        1.35490        5.41930
C         -5.15980       -0.05730        7.62220
N         -5.06850        0.06950        8.75950
C         -0.61600       -3.30920        7.95680
C          0.42210       -2.38730        8.63060
C          1.55090       -3.31970        9.00630
C          2.16620       -3.68080        7.88730
C          1.45860       -3.00560        6.73460
C          1.04460       -1.69370        7.41360
C          0.11280       -3.75930        6.64910
C         -5.90780       -0.92750        1.82160
C         -6.82910       -1.69340        1.12090
C         -6.44980       -1.68280       -0.24970
C         -5.33610       -0.77660       -0.40370
O         -4.73710       -0.37150       -1.38150
N         -5.05750       -0.35570        0.90800
C         -4.08140        0.66680        1.16670
C         -7.12300       -2.71650       -0.89180
N         -8.00040       -3.26980        0.00670
C         -9.03760       -4.22630       -0.27150
C         -7.86500       -2.69240        1.28870
O         -8.53650       -3.02600        2.23970
C         -6.77730       -3.21910       -2.17720
C         -6.52640       -4.53840       -2.54430
C         -6.67300       -5.67730       -1.63280
C         -7.35770       -6.82890       -2.00120
C         -7.46210       -7.87310       -1.10050
C         -6.88290       -7.77850        0.15370
C         -6.16260       -6.64810        0.52410
C         -5.49160       -6.56290        1.86750
C         -5.78140       -5.25940        2.61190
C         -6.05970       -5.60660       -0.38550
C         -5.82800       -4.60300       -3.75890
S         -4.93350       -5.90300       -4.52860
C         -4.01910       -4.72190       -5.41890
C         -2.76010       -4.61960       -6.04430
C         -1.77820       -5.56600       -6.42100
C         -0.43510       -5.11560       -6.69650
N          0.37120       -6.11180       -7.01830
S         -0.47170       -7.49450       -6.98500
N         -1.90310       -6.87580       -6.54450
C         -0.10540       -3.75880       -6.45960
C          1.11030       -3.14220       -6.10660
S          2.74800       -3.59710       -5.73720
C          2.94390       -2.12250       -4.80350
C          3.85860       -1.74360       -3.78110
C          5.08230       -2.48730       -3.49010
C          5.62800       -2.55570       -2.21040
C          6.79050       -3.26850       -1.98890
C          7.42060       -3.92610       -3.03020
C          6.88950       -3.87710       -4.31300
C          7.58190       -4.56360       -5.45540
C          8.59710       -3.62560       -6.11050
C          5.73020       -3.15010       -4.53050
C          3.43000       -0.60650       -3.13680
S          1.96520        0.06950       -3.85680
C          1.83900       -1.28670       -4.90970
C          0.79100       -1.86440       -5.63970
N         -0.55420       -1.64610       -5.73020
C         -1.13020       -2.80760       -6.19990
C         -2.47940       -3.22870       -6.13520
N         -3.59020       -2.50990       -5.73290
C         -4.48640       -3.41660       -5.22570
C         -5.52090       -3.34350       -4.29040
S         -6.18490       -2.06070       -3.35280
C         -4.03690       -1.22000       -6.21590
C         -5.18300       -1.38140       -7.21380
C         -1.14600       -0.51590       -5.05240
C         -1.05400        0.75680       -5.89040
C          3.73550        0.02300       -1.87240
C          4.03500        1.35810       -1.67380
N          4.50360        2.19000       -2.66570
C          5.17170        1.67200       -3.78520
C          6.11180        0.65340       -3.65210
C          6.74320        0.14030       -4.76650
C          6.46500        0.62930       -6.03760
C          7.13020        0.04640       -7.24700
C          5.54140        1.65990       -6.15960
C          4.89980        2.17900       -5.05280
C          4.19060        3.56250       -2.61500
C          2.90250        3.98250       -2.29660
C          2.62040        5.32960       -2.19490
C          3.60390        6.28500       -2.41830
C          3.29630        7.74040       -2.24800
C          4.87610        5.85570       -2.77500
C          5.17330        4.51080       -2.87330
C          3.76660        1.76060       -0.33730
S          3.76930        3.28180        0.48840
C          2.99400        2.53970        1.88930
C          2.72250        1.16810        1.67440
N          1.99560        0.36090        2.51890
C          0.77740        0.79460        3.06770
C          0.36010        0.32050        4.30750
C         -0.83480        0.75430        4.84860
C         -1.63950        1.66510        4.17860
C         -2.92210        2.15820        4.77620
C         -1.22430        2.11670        2.92920
C         -0.03660        1.68910        2.37400
C          2.40210       -0.97430        2.67440
C          3.75540       -1.26820        2.82610
C          4.16350       -2.57410        3.00170
C          3.24200       -3.61560        3.03840
C          3.70250       -5.02380        3.25680
C          1.89640       -3.31260        2.87300
C          1.47470       -2.01080        2.68540
C          3.22100        0.74250        0.43660
S          3.13530       -0.76450       -0.40960
C          2.73520        3.16270        3.10950
C          2.93980        4.46250        3.50850
C          3.37850        5.56800        2.65450
O          3.69050        5.52360        1.47570
C          3.35180        6.77610        3.49850
C          3.68970        8.07180        3.11840
C          3.57310        8.99900        4.12620
C          3.15380        8.65950        5.41850
C          2.82080        7.38300        5.80710
C          2.92860        6.42500        4.79610
C          2.68060        4.98270        4.82990
C          2.29770        4.27030        5.94170
C          2.02660        4.84290        7.20080
N          1.78670        5.23270        8.25460
C          2.14370        2.87290        6.01940
N          2.01470        1.74300        6.19410
C          3.26440       10.07990        5.91400
C          1.95650       10.89300        6.07650
C          0.96390       10.30700        5.10350
C          1.35930       10.62850        3.87900
C          2.62680       11.43750        4.00200
C          2.35120       12.17320        5.32300
C          3.73090       10.45860        4.47290
H         -6.74640       -0.70210        3.76020
H         -1.04990       -3.17120        3.71550
H         -3.31190       -1.62660        7.97370
H         -1.00260       -4.07710        8.62440
H          0.02580       -1.75590        9.42080
H          1.74800       -3.65020       10.00930
H          2.97770       -4.37510        7.76980
H          2.00230       -2.93870        5.79510
H          1.89960       -1.07400        7.67500
H          0.33380       -1.10130        6.84470
H          0.23650       -4.82410        6.45880
H         -3.89440        1.17480        0.22000
H         -3.14210        0.24020        1.52260
H         -4.46320        1.37720        1.90040
H         -9.28280       -4.20690       -1.33170
H         -9.91300       -3.95210        0.31940
H         -8.73480       -5.23610        0.01170
H         -7.81320       -6.89500       -2.97770
H         -8.00170       -8.76670       -1.37650
H         -6.98030       -8.59920        0.84970
H         -5.81620       -7.40620        2.48060
H         -4.41030       -6.65490        1.72430
H         -5.35930       -5.30370        3.61390
H         -5.34060       -4.40470        2.10340
H         -6.85240       -5.09220        2.69890
H         -5.48040       -4.73020       -0.13560
H          5.13480       -2.07370       -1.38300
H          7.20430       -3.31730       -0.99200
H          8.32560       -4.48730       -2.84650
H          8.09740       -5.45470       -5.09140
H          6.84520       -4.87390       -6.19880
H          9.34310       -3.30730       -5.38500
H          9.10430       -4.12630       -6.93200
H          8.09580       -2.74240       -6.49860
H          5.32730       -3.09100       -5.53070
H         -4.37630       -0.61580       -5.36750
H         -3.20340       -0.72670       -6.71270
H         -5.46930       -0.40690       -7.59970
H         -6.04850       -1.83210       -6.73540
H         -4.87610       -2.01160       -8.04610
H         -2.17130       -0.74990       -4.77860
H         -0.58930       -0.36100       -4.12240
H         -1.54660        1.57340       -5.37110
H         -0.01140        1.02390       -6.04570
H         -1.52040        0.62810       -6.86480
H          6.34500        0.26290       -2.67290
H          7.46580       -0.65340       -4.64350
H          7.14410        0.76160       -8.06600
H          6.58680       -0.83830       -7.58180
H          8.15240       -0.24970       -7.02110
H          5.31330        2.05840       -7.13790
H          4.17760        2.97480       -5.16250
H          2.12800        3.24690       -2.13170
H          1.62080        5.64550       -1.93370
H          2.32370        7.98470       -2.67100
H          3.26920        7.98190       -1.18540
H          4.05410        8.36000       -2.72120
H          5.65170        6.58390       -2.96340
H          6.16820        4.18490       -3.13950
H          0.98730       -0.37000        4.84690
H         -1.13640        0.39650        5.82260
H         -2.99470        3.24050        4.68590
H         -3.77960        1.72690        4.25800
H         -2.98650        1.89370        5.82910
H         -1.84310        2.81430        2.38360
H          0.26660        2.04810        1.40150
H          4.47840       -0.46550        2.81730
H          5.21470       -2.79080        3.12390
H          2.86750       -5.71850        3.21460
H          4.43040       -5.30720        2.49770
H          4.18440       -5.11780        4.22990
H          1.16880       -4.11160        2.88060
H          0.42960       -1.78540        2.53620
H          2.31930        2.49690        3.85570
H          4.01580        8.28620        2.11250
H          2.50360        7.14060        6.80750
H          3.95980       10.24520        6.73450
H          1.61630       11.00000        7.10300
H          0.13460        9.68890        5.39390
H          0.92610       10.33230        2.94160
H          2.89660       12.04170        3.13950
H          3.22990       12.66640        5.73640
H          1.53160       12.88620        5.24540
H          4.73040       10.87260        4.35360
