214

C         -2.98780       10.70180        0.21800
C         -2.25210       11.33220       -0.74160
C         -0.78440       11.28760       -0.89500
O          0.03890       10.92120       -0.07890
C         -0.50530       11.77250       -2.25730
C          0.73070       11.79860       -2.89950
C          0.68050       12.26510       -4.19080
C         -0.51290       12.67430       -4.80200
C         -1.73750       12.66050       -4.17820
C         -1.70810       12.19330       -2.86090
C         -2.79630       12.01560       -1.90420
C         -4.08100       12.46200       -2.06350
C         -5.10880       12.34400       -1.10320
N         -5.99440       12.30000       -0.37340
C         -4.54870       13.14940       -3.20350
N         -4.99540       13.71240       -4.09860
C          0.17440       13.00870       -6.10190
C          0.43760       14.50200       -6.41560
C          0.53260       15.20800       -5.08570
C          1.66180       14.82580       -4.50440
C          2.35110       13.85460       -5.43080
C          1.92630       14.42990       -6.79140
C          1.50430       12.55770       -5.41950
C         -2.56870        9.90390        1.30610
C         -3.44990        9.10390        2.00620
C         -2.84220        8.28490        2.97090
C         -3.44670        7.29430        3.78370
C         -4.85570        6.97240        3.74020
C         -5.63590        6.56660        4.78780
C         -6.96540        6.24000        4.44090
C         -7.97550        5.73270        5.41890
C         -7.73070        4.25290        5.71860
C         -7.17570        6.39010        3.10050
Cl        -8.63040        6.10070        2.24840
S         -5.77120        6.95240        2.25520
C         -2.58790        6.57470        4.60360
C         -1.19920        6.84070        4.70520
C         -0.61210        7.88350        3.96110
C          0.78310        8.23270        4.12240
C          1.67150        8.69110        3.19020
C          2.95720        8.98300        3.69940
C          4.10210        9.44680        2.85690
C          4.86100        8.25510        2.27080
C          3.02250        8.74190        5.04140
S          1.52950        8.16770        5.70260
Cl         4.38290        8.94610        6.05510
C         -1.44710        8.54410        3.06110
S         -0.93180        9.72380        1.89440
C         -0.52950        5.86070        5.47140
C         -1.34370        4.87060        5.93810
S         -3.01940        5.14650        5.51210
C         -0.90450        3.64350        6.52130
C          0.29280        3.40700        7.17440
C          1.15980        4.46420        7.69760
C          0.61910        5.53260        8.41000
C          1.44430        6.53510        8.87940
C          2.80790        6.48470        8.64480
C          3.36460        5.42460        7.94180
C          4.84750        5.33710        7.72700
C          5.49620        4.52980        8.85300
C          2.53190        4.41610        7.47880
C          0.56600        2.02520        7.24280
S          1.95490        1.10340        7.77620
C          1.24500       -0.32900        7.10440
C          1.60680       -1.65270        6.78440
C          2.73650       -2.44990        7.07790
C          2.84940       -3.75730        6.48260
N          3.94360       -4.39240        6.86840
S          4.76360       -3.43790        7.88770
N          3.75660       -2.17030        7.87230
C          1.90040       -4.15580        5.51200
C          1.93350       -5.14820        4.51600
S          2.97990       -6.41170        3.95190
C          2.00650       -6.54400        2.50380
C          2.18550       -7.25180        1.29950
C          3.34120       -8.12780        1.07910
C          4.24810       -7.86730        0.05640
C          5.36250       -8.67040       -0.09180
C          5.58410       -9.72450        0.77710
C          4.69350       -9.99040        1.80930
C          4.96130      -11.08960        2.79580
C          5.70440      -10.53410        4.01250
C          3.57680       -9.18090        1.95370
C          1.19880       -6.94230        0.38130
S          0.03570       -5.78080        1.01730
C          0.90600       -5.68530        2.50320
C          0.85940       -4.89470        3.65560
N          0.13910       -3.82140        4.10300
C          0.76400       -3.34690        5.23740
C          0.54930       -2.16980        5.99100
N         -0.47150       -1.23750        5.92430
C         -0.02530       -0.10960        6.56440
C         -0.42030        1.22830        6.65850
S         -1.74130        2.16810        6.06740
C         -1.88900       -1.50620        5.80230
C         -2.59440       -1.37900        7.15190
C         -0.82610       -3.18330        3.23630
C         -2.14450       -3.95250        3.18200
C          0.98980       -7.38070       -0.95480
C          0.05460       -6.86170       -1.81000
C          0.07260       -7.42870       -3.10030
C         -0.70180       -7.05400       -4.21770
C         -1.77590       -6.08650       -4.13200
C         -2.15030       -5.16040       -5.06380
C         -3.29080       -4.40130       -4.71500
C         -3.89770       -3.36300       -5.60240
C         -4.74050       -4.01990       -6.69680
C         -3.78340       -4.78330       -3.50140
Cl        -5.14690       -4.13640       -2.69450
S         -2.85990       -6.05120       -2.76390
C         -0.38550       -7.67580       -5.42100
C          0.63630       -8.65700       -5.55120
C          1.39350       -9.04840       -4.41980
C          2.46970      -10.01150       -4.49160
C          2.81670      -10.94090       -3.54920
C          3.96480      -11.69680       -3.86960
C          4.54340      -12.74710       -2.97700
C          5.33030      -12.10490       -1.83410
C          4.49420      -11.30260       -5.06600
S          3.59180      -10.03640       -5.82520
Cl         5.88600      -11.93880       -5.82790
C          1.07650       -8.42340       -3.22140
S          1.92260       -8.65410       -1.70990
C          0.72900       -9.16030       -6.86080
C         -0.15890       -8.59000       -7.74260
S         -1.18100       -7.39880       -6.93690
C         -0.37490       -8.74380       -9.12790
C          0.24770       -9.51210      -10.07380
C          1.35670      -10.48070       -9.90140
O          1.89890      -10.84770       -8.87960
C          1.68640      -10.95470      -11.25860
C          2.67070      -11.84710      -11.64000
C          2.80660      -12.14870      -12.98490
C          1.95850      -11.55500      -13.91350
Cl         2.14250      -11.93960      -15.58240
C          0.96290      -10.65710      -13.54140
C          0.82900      -10.35670      -12.19580
C         -0.09300       -9.46760      -11.48850
C         -1.08690       -8.74150      -12.09020
C         -2.00600       -7.87320      -11.46100
N         -2.79880       -7.14630      -11.05730
C         -1.35180       -8.75750      -13.47750
N         -1.63150       -8.71440      -14.58990
H         -4.06620       10.73270        0.11130
H          1.62430       11.46510       -2.39540
H         -2.64740       12.97010       -4.66450
H         -0.16410       12.45410       -6.97480
H         -0.24270       14.93690       -7.14270
H         -0.23520       15.84770       -4.69190
H          2.02630       15.08240       -3.52700
H          3.41370       13.70110       -5.26180
H          2.35890       15.40960       -6.98780
H          2.13100       13.76280       -7.62770
H          2.03670       11.71120       -5.84920
H         -4.50340        9.10520        1.79440
H         -5.28500        6.53650        5.80340
H         -7.89830        6.30920        6.34280
H         -8.97860        5.86410        5.01150
H         -8.44980        3.89290        6.45010
H         -7.83370        3.66330        4.81080
H         -6.72720        4.10600        6.11140
H          1.43460        8.79930        2.14770
H          3.71470       10.06830        2.04820
H          4.78220       10.04740        3.46320
H          5.68390        8.60060        1.65010
H          5.26450        7.63530        3.06830
H          4.19740        7.64510        1.66230
H          0.53530        5.82670        5.59880
H         -0.44430        5.56800        8.59400
H          1.02260        7.36290        9.42970
H          3.44570        7.27750        9.00750
H          5.27860        6.33970        7.70430
H          5.05600        4.85260        6.77090
H          5.08350        3.52380        8.88230
H          6.57100        4.46150        8.70230
H          5.30940        5.00440        9.81380
H          2.95300        3.59240        6.92050
H          4.08790       -7.02730       -0.60310
H          6.06620       -8.46870       -0.88570
H          6.46060      -10.34470        0.65720
H          5.56410      -11.87030        2.32810
H          4.01840      -11.53310        3.12190
H          5.89320      -11.32340        4.73630
H          6.65670      -10.10480        3.70950
H          5.11650       -9.75440        4.49140
H          2.87500       -9.37240        2.75300
H         -2.01660       -2.52290        5.43920
H         -2.33030       -0.79960        5.09100
H         -3.64100       -1.64920        7.04100
H         -2.13610       -2.04350        7.88150
H         -2.54010       -0.36020        7.52500
H         -0.39880       -3.15820        2.22720
H         -0.97250       -2.15420        3.56030
H         -1.98470       -4.93670        2.75000
H         -2.85540       -3.41600        2.56040
H         -2.57480       -4.08350        4.17220
H         -0.60070       -6.06060       -1.52090
H         -1.60550       -4.98590       -5.97370
H         -4.52270       -2.69400       -5.00910
H         -3.09990       -2.77560       -6.06110
H         -5.55230       -4.59270       -6.25470
H         -5.16620       -3.26170       -7.34900
H         -4.13110       -4.69250       -7.29550
H          2.24260      -11.11900       -2.65800
H          5.20000      -13.39770       -3.55600
H          3.73240      -13.35100       -2.56530
H          5.73120      -12.87210       -1.17650
H          6.15680      -11.51940       -2.22970
H          4.69010      -11.44480       -1.25310
H          1.41450       -9.92810       -7.16580
H         -1.16900       -8.10290       -9.49220
H          3.31450      -12.29100      -10.89660
H          3.56400      -12.83890      -13.32110
H          0.32990      -10.22130      -14.29600
