259

C          9.12000        7.87370        5.23260
C          9.73410        8.34820        4.11930
C          9.76570        9.81130        3.84690
O          9.54480       10.70050        4.63790
C         10.04570        9.92610        2.40250
C         10.03340       11.08650        1.62980
C         10.30150       10.87620        0.29860
C         10.56420        9.60590       -0.23340
C         10.59030        8.45380        0.51550
C         10.31990        8.64660        1.87260
C         10.29260        7.67810        2.96370
C         10.92790        6.46510        2.97880
C         11.53880        5.87820        1.85360
N         12.04530        5.35450        0.96640
C         11.13010        5.72390        4.16310
N         11.37240        5.12980        5.11480
C         10.72660       10.13800       -1.63520
C          9.53980        9.91960       -2.59750
C          9.77280       10.93280       -3.69490
C          9.52640       12.13570       -3.19220
C          9.12240       11.95590       -1.74660
C          8.39590       10.60800       -1.84170
C         10.43620       11.55430       -1.04270
C          8.58810        6.57980        5.46920
C          8.20750        6.08250        6.68840
C          7.62580        4.79830        6.63300
C          7.16280        4.01040        7.70510
C          7.13250        4.53780        9.07570
C          7.66470        3.81340       10.13640
C          7.59760        4.32220       11.42160
C          7.01070        5.54890       11.66060
C          6.47720        6.28100       10.60340
S          5.69820        7.81950       11.00880
C          5.89020        8.82940        9.49670
C          7.34120        9.17620        9.22720
C          6.53180        5.77080        9.31690
C          6.68590        2.75070        7.38690
C          6.62550        2.26490        6.05490
C          7.07910        3.05230        4.98210
C          7.06860        2.54910        3.60190
C          6.53540        3.30240        2.56260
C          6.57060        2.81200        1.26800
C          7.12710        1.57780        1.00010
C          7.66180        0.81830        2.03810
S          8.35650       -0.74100        1.58660
C          8.63200       -1.61450        3.16890
C          9.98230       -1.29750        3.78470
C          7.63600        1.30660        3.33220
C          7.55910        4.30920        5.30280
S          8.18900        5.46850        4.16650
C          5.98910        1.00710        5.98420
C          5.57660        0.52150        7.19570
S          6.00080        1.59830        8.51380
C          4.76240       -0.63370        7.36530
C          4.20890       -1.19800        8.50010
C          4.59720       -0.87860        9.87580
C          3.63680       -0.53110       10.81970
C          4.01950       -0.27370       12.12210
C          5.34800       -0.38320       12.49520
C          6.31520       -0.75440       11.57050
C          7.76000       -0.87710       11.96220
C          8.54230        0.35980       11.52140
C          5.92910       -0.98860       10.25940
C          3.23710       -2.16590        8.17090
S          2.13600       -3.13930        9.12330
C          1.44370       -3.76740        7.65960
C          0.35130       -4.54630        7.22650
C         -0.76700       -5.10160        7.89370
C         -1.91270       -5.53280        7.12630
N         -2.91430       -5.92110        7.89820
S         -2.46410       -5.77600        9.44660
N         -0.97200       -5.19990        9.19660
C         -1.84750       -5.52290        5.71360
C         -2.76800       -5.78680        4.67450
S         -4.46970       -6.05130        4.41990
C         -4.24230       -5.85130        2.69050
C         -5.13190       -5.63040        1.61030
C         -6.58640       -5.70760        1.75320
C         -7.42750       -4.72960        1.22940
C         -8.79470       -4.83760        1.39570
C         -9.33380       -5.90730        2.09000
C         -8.50840       -6.88130        2.63660
C         -9.07350       -8.00770        3.45250
C         -9.02410       -7.65620        4.94080
C         -7.13720       -6.76920        2.46360
C         -4.44140       -5.27340        0.46710
S         -2.69720       -5.28450        0.69470
C         -2.90240       -5.67430        2.35580
C         -2.06850       -5.64350        3.47360
N         -0.76000       -5.31970        3.70980
C         -0.63030       -5.16810        5.07490
C          0.39430       -4.53520        5.80850
N          1.45440       -3.75560        5.38140
C          2.06880       -3.27850        6.50810
C          3.08190       -2.36260        6.79890
S          4.14050       -1.35760        5.88420
C          1.59400       -3.02630        4.13640
C          0.40830       -2.10110        3.88160
C          0.28900       -5.66740        2.77580
C          0.12620       -7.09550        2.25770
C         -4.84780       -4.74950       -0.80090
C         -5.95290       -4.89250       -1.58400
C         -5.91590       -4.10090       -2.76440
C         -6.90900       -3.97330       -3.75600
C         -8.07050       -4.83300       -3.79820
C         -8.16060       -6.16520       -3.47930
C         -9.39990       -6.73900       -3.81120
C        -10.25940       -5.85900       -4.40820
C        -11.55190       -6.07930       -5.02580
C        -11.82900       -5.70820       -6.28620
C        -10.85620       -5.21800       -7.23010
C         -9.52840       -5.53930       -7.34760
C         -8.88460       -4.90850       -8.42090
C         -9.71900       -4.09740       -9.13570
S         -9.20840       -3.07320      -10.45460
C        -10.76910       -2.84950      -11.37590
C        -11.19710       -4.11670      -12.08770
S        -11.32570       -4.10440       -8.48230
S         -9.56800       -4.26680       -4.47390
C         -6.67780       -3.02140       -4.75350
C         -5.49090       -2.24540       -4.83510
C         -4.49480       -2.35780       -3.83140
C         -3.36400       -1.46730       -3.74980
C         -3.28470       -0.14180       -4.11980
C         -2.09740        0.48390       -3.73130
C         -1.23620       -0.34180       -3.04050
C         -0.03030        0.00640       -2.36930
C          0.60040       -0.81800       -1.50260
C          1.73230       -0.48900       -0.70570
C          2.50000        0.65070       -0.64780
C          3.52450        0.59800        0.30740
C          3.55740       -0.58330        0.99640
S          4.63630       -0.95380        2.31440
C          4.87410       -2.75510        2.08100
C          5.59800       -3.07440        0.78960
S          2.28880       -1.65320        0.47490
S         -1.90180       -1.94610       -2.93470
C         -4.73860       -3.31320       -2.84820
S         -3.69300       -3.62940       -1.50170
C         -5.47310       -1.45860       -5.99830
C         -6.62990       -1.53440       -6.74970
S         -7.78160       -2.63980       -6.04240
C         -6.81830       -0.79740       -7.94130
C         -7.95180       -0.59020       -8.67110
C         -9.32000       -1.00920       -8.30620
O         -9.65950       -1.77930       -7.42780
C        -10.22530       -0.26110       -9.19620
C        -11.61750       -0.23660       -9.14150
C        -12.20000        0.58760      -10.07500
C        -11.45000        1.32900      -10.99810
C        -10.07730        1.30850      -11.06630
C         -9.46410        0.47870      -10.12300
C         -8.04880        0.23040       -9.86600
C         -7.01100        0.65290      -10.65430
C         -5.64660        0.37570      -10.42710
N         -4.51670        0.20070      -10.31550
C         -7.16740        1.40600      -11.83640
N         -7.22290        2.01540      -12.80810
C        -12.67470        1.97410      -11.59630
C        -13.19680        1.44770      -12.95480
C        -12.77830        0.00170      -13.05250
C        -13.49990       -0.68900      -12.17990
C        -14.41240        0.27840      -11.46950
C        -14.68470        1.27570      -12.60740
C        -13.51130        1.15370      -10.56440
H          8.92330        8.60800        6.00790
H          9.83020       12.04750        2.07560
H         10.78900        7.47910        0.10050
H         11.69240        9.95600       -2.10230
H          9.38850        8.88900       -2.90650
H         10.13480       10.68290       -4.67490
H          9.64140       13.09170       -3.66850
H          8.58950       12.78090       -1.28130
H          7.48780       10.67170       -2.43910
H          8.16660       10.15810       -0.87750
H         11.20870       12.31730       -1.11500
H          8.39320        6.60960        7.60650
H          8.14610        2.86700        9.94830
H          8.01730        3.76330       12.24450
H          6.95690        5.95320       12.65950
H          5.30680        9.72530        9.70740
H          5.42890        8.30390        8.66150
H          7.75150        9.74970       10.05500
H          7.93800        8.27350        9.11140
H          7.42080        9.76940        8.31810
H          6.08480        6.30110        8.48990
H          6.07970        4.25900        2.76880
H          6.15820        3.40000        0.46080
H          7.15620        1.18790       -0.00600
H          8.57280       -2.67080        2.90430
H          7.79990       -1.37150        3.82890
H         10.08670       -0.23450        3.98960
H         10.10080       -1.84510        4.71820
H         10.78000       -1.58990        3.10610
H          8.07220        0.75670        4.15010
H          5.78540        0.50230        5.05530
H          2.60040       -0.45460       10.52700
H          3.27610        0.00650       12.85350
H          5.63560       -0.19000       13.51870
H          7.84140       -0.99110       13.04470
H          8.19370       -1.76310       11.49280
H          8.11860        1.25090       11.97820
H          8.49120        0.47030       10.44070
H          9.58660        0.27800       11.81420
H          6.66720       -1.28740        9.52790
H         -7.00810       -3.88090        0.71140
H         -9.44470       -4.07910        0.98470
H        -10.40450       -5.98340        2.21400
H         -8.49440       -8.91720        3.27930
H        -10.10750       -8.19850        3.15860
H         -7.99900       -7.46650        5.25070
H         -9.61080       -6.76150        5.13660
H         -9.42410       -8.47210        5.53810
H         -6.48480       -7.52480        2.87730
H          1.72380       -3.70200        3.29280
H          2.50470       -2.42990        4.22840
H          0.58180       -1.53450        2.97110
H          0.28870       -1.40540        4.70870
H         -0.51160       -2.66900        3.76880
H          1.24060       -5.60430        3.30390
H          0.27650       -4.96760        1.93260
H          0.98000       -7.35330        1.63690
H          0.07410       -7.79510        3.08940
H         -0.77460       -7.19450        1.65950
H         -6.78410       -5.51650       -1.31330
H         -7.33840       -6.73780       -3.08920
H         -9.62780       -7.78140       -3.67270
H        -12.31880       -6.54490       -4.42120
H        -12.84260       -5.79500       -6.65530
H         -9.03640       -6.24020       -6.69750
H         -7.84700       -5.03890       -8.66870
H        -11.51610       -2.50740      -10.65950
H        -10.55920       -2.04530      -12.08060
H        -10.41680       -4.45240      -12.76670
H        -12.10150       -3.92860      -12.66270
H        -11.39980       -4.90920      -11.37050
H         -4.09380        0.38480       -4.59240
H         -1.88830        1.52340       -3.91270
H          0.33010        1.01230       -2.53420
H          0.19510       -1.81140       -1.35310
H          2.33790        1.49750       -1.28960
H          4.23010        1.38770        0.49190
H          5.45110       -3.06290        2.95230
H          3.88880       -3.21950        2.11770
H          5.77960       -4.14520        0.72600
H          6.55030       -2.55140        0.74610
H          5.00030       -2.77530       -0.06870
H         -4.63290       -0.86320       -6.30720
H         -5.91830       -0.29320       -8.27460
H        -12.15200       -0.81540       -8.40360
H         -9.51710        1.89990      -11.77110
H        -12.71380        3.06010      -11.53380
H        -12.95000        2.07550      -13.80660
H        -11.99080       -0.34970      -13.69360
H        -13.44290       -1.73550      -11.94600
H        -15.27330       -0.15500      -10.96700
H        -15.26020        0.83800      -13.42180
H        -15.16140        2.19630      -12.27370
H        -14.08600        1.70800       -9.82460
