
  xtb     02122217283D
 energy: -255.239867427729 gnorm: 0.000802033420 xtb: 6.4.1 (unknown)
151169  0     0  0            999 V2000
    1.4971   -4.9099    6.7109 C   0  0  0  0  0  0  0  0  0  0  0  0
    2.0063   -4.3606    7.8456 C   0  0  0  0  0  0  0  0  0  0  0  0
    2.2905   -2.9116    8.0269 C   0  0  0  0  0  0  0  0  0  0  0  0
    2.3142   -2.0516    7.1729 O   0  0  0  0  0  0  0  0  0  0  0  0
    2.4431   -2.7190    9.4794 C   0  0  0  0  0  0  0  0  0  0  0  0
    2.6812   -1.5132   10.1368 C   0  0  0  0  0  0  0  0  0  0  0  0
    2.7724   -1.6299   11.5025 C   0  0  0  0  0  0  0  0  0  0  0  0
    2.6288   -2.8542   12.1711 C   0  0  0  0  0  0  0  0  0  0  0  0
    2.3962   -4.0510   11.5362 C   0  0  0  0  0  0  0  0  0  0  0  0
    2.3068   -3.9560   10.1435 C   0  0  0  0  0  0  0  0  0  0  0  0
    2.0976   -4.9982    9.1460 C   0  0  0  0  0  0  0  0  0  0  0  0
    2.1064   -6.3504    9.3625 C   0  0  0  0  0  0  0  0  0  0  0  0
    2.0855   -7.3068    8.3245 C   0  0  0  0  0  0  0  0  0  0  0  0
    2.1239   -8.1300    7.5253 N   0  0  0  0  0  0  0  0  0  0  0  0
    2.2128   -6.9552   10.6316 C   0  0  0  0  0  0  0  0  0  0  0  0
    2.2932   -7.5026   11.6375 N   0  0  0  0  0  0  0  0  0  0  0  0
    2.8251   -2.2263   13.5285 C   0  0  0  0  0  0  0  0  0  0  0  0
    1.5553   -2.0003   14.3763 C   0  0  0  0  0  0  0  0  0  0  0  0
    1.9807   -0.9675   15.3951 C   0  0  0  0  0  0  0  0  0  0  0  0
    2.1207    0.1903   14.7621 C   0  0  0  0  0  0  0  0  0  0  0  0
    1.7924   -0.0403   13.3047 C   0  0  0  0  0  0  0  0  0  0  0  0
    0.7115   -1.1199   13.4453 C   0  0  0  0  0  0  0  0  0  0  0  0
    2.9895   -0.8631   12.7827 C   0  0  0  0  0  0  0  0  0  0  0  0
    1.4534   -4.3160    5.4151 C   0  0  0  0  0  0  0  0  0  0  0  0
    0.3508   -4.3143    4.5712 C   0  0  0  0  0  0  0  0  0  0  0  0
    0.6720   -3.5832    3.4010 C   0  0  0  0  0  0  0  0  0  0  0  0
    2.0498   -3.1658    3.5184 C   0  0  0  0  0  0  0  0  0  0  0  0
    2.7863   -2.5487    2.7700 O   0  0  0  0  0  0  0  0  0  0  0  0
    2.4646   -3.6497    4.7705 N   0  0  0  0  0  0  0  0  0  0  0  0
    3.8626   -3.6505    5.1259 C   0  0  0  0  0  0  0  0  0  0  0  0
    4.4439   -5.0613    5.1095 C   0  0  0  0  0  0  0  0  0  0  0  0
   -0.4691   -3.5273    2.5923 C   0  0  0  0  0  0  0  0  0  0  0  0
   -1.4712   -4.2008    3.2495 N   0  0  0  0  0  0  0  0  0  0  0  0
   -2.8135   -4.4800    2.8005 C   0  0  0  0  0  0  0  0  0  0  0  0
   -2.8556   -5.6586    1.8319 C   0  0  0  0  0  0  0  0  0  0  0  0
   -1.0366   -4.7067    4.4960 C   0  0  0  0  0  0  0  0  0  0  0  0
   -1.7542   -5.3197    5.2547 O   0  0  0  0  0  0  0  0  0  0  0  0
   -0.5520   -2.8674    1.3422 C   0  0  0  0  0  0  0  0  0  0  0  0
   -2.0042   -2.7126    0.3699 S   0  0  0  0  0  0  0  0  0  0  0  0
   -1.1600   -1.7626   -0.7976 C   0  0  0  0  0  0  0  0  0  0  0  0
   -1.7091   -1.1636   -1.9332 C   0  0  0  0  0  0  0  0  0  0  0  0
   -0.9554   -0.2795   -2.7224 C   0  0  0  0  0  0  0  0  0  0  0  0
    0.4014   -0.0082   -2.3525 C   0  0  0  0  0  0  0  0  0  0  0  0
    1.2712    0.8968   -2.9345 C   0  0  0  0  0  0  0  0  0  0  0  0
    2.8763    0.7007   -2.3003 S   0  0  0  0  0  0  0  0  0  0  0  0
    2.3829   -0.5626   -1.2167 C   0  0  0  0  0  0  0  0  0  0  0  0
    3.3705   -1.2522   -0.4415 C   0  0  0  0  0  0  0  0  0  0  0  0
    3.4907   -2.6000   -0.2263 C   0  0  0  0  0  0  0  0  0  0  0  0
    4.6101   -2.9355    0.5531 C   0  0  0  0  0  0  0  0  0  0  0  0
    5.3506   -1.8578    0.9355 C   0  0  0  0  0  0  0  0  0  0  0  0
    6.5621   -1.8316    1.8015 C   0  0  0  0  0  0  0  0  0  0  0  0
    6.3758   -0.8867    2.9887 C   0  0  0  0  0  0  0  0  0  0  0  0
    4.6815   -0.3906    0.3125 S   0  0  0  0  0  0  0  0  0  0  0  0
    1.0219   -0.7943   -1.3211 C   0  0  0  0  0  0  0  0  0  0  0  0
    0.1991   -1.6048   -0.4712 C   0  0  0  0  0  0  0  0  0  0  0  0
    0.5159   -2.2261    0.7416 C   0  0  0  0  0  0  0  0  0  0  0  0
    1.0218    1.9801   -3.8407 C   0  0  0  0  0  0  0  0  0  0  0  0
    1.8126    2.4160   -4.8675 C   0  0  0  0  0  0  0  0  0  0  0  0
    1.3177    3.5741   -5.4966 C   0  0  0  0  0  0  0  0  0  0  0  0
    0.1695    4.0488   -4.9394 C   0  0  0  0  0  0  0  0  0  0  0  0
   -0.6190    5.2526   -5.3249 C   0  0  0  0  0  0  0  0  0  0  0  0
   -2.1082    4.9416   -5.4593 C   0  0  0  0  0  0  0  0  0  0  0  0
   -0.3355    3.0570   -3.6113 S   0  0  0  0  0  0  0  0  0  0  0  0
   -1.6808    0.1607   -3.8396 C   0  0  0  0  0  0  0  0  0  0  0  0
   -2.9606   -0.3384   -3.9003 C   0  0  0  0  0  0  0  0  0  0  0  0
   -3.3095   -1.3955   -2.5536 S   0  0  0  0  0  0  0  0  0  0  0  0
   -3.9300   -0.0643   -4.8972 C   0  0  0  0  0  0  0  0  0  0  0  0
   -5.1945   -0.6122   -5.0175 C   0  0  0  0  0  0  0  0  0  0  0  0
   -5.8854   -0.1241   -6.1176 C   0  0  0  0  0  0  0  0  0  0  0  0
   -7.5134   -0.6734   -6.5238 S   0  0  0  0  0  0  0  0  0  0  0  0
   -7.1859   -1.5536   -8.0999 C   0  0  0  0  0  0  0  0  0  0  0  0
   -6.3510   -2.7968   -7.8729 C   0  0  0  0  0  0  0  0  0  0  0  0
   -5.1839    0.8531   -6.8428 C   0  0  0  0  0  0  0  0  0  0  0  0
   -3.5900    1.0744   -6.1628 S   0  0  0  0  0  0  0  0  0  0  0  0
   -5.7614    1.5942   -7.8827 C   0  0  0  0  0  0  0  0  0  0  0  0
   -5.2512    2.6390   -8.6078 C   0  0  0  0  0  0  0  0  0  0  0  0
   -3.9278    3.2443   -8.4348 C   0  0  0  0  0  0  0  0  0  0  0  0
   -2.9919    2.8097   -7.7828 O   0  0  0  0  0  0  0  0  0  0  0  0
   -3.9460    4.5033   -9.1947 C   0  0  0  0  0  0  0  0  0  0  0  0
   -2.9415    5.4676   -9.2454 C   0  0  0  0  0  0  0  0  0  0  0  0
   -3.2678    6.5727   -9.9935 C   0  0  0  0  0  0  0  0  0  0  0  0
   -4.5000    6.7082  -10.6473 C   0  0  0  0  0  0  0  0  0  0  0  0
   -5.4930    5.7571  -10.6187 C   0  0  0  0  0  0  0  0  0  0  0  0
   -5.1829    4.6248   -9.8602 C   0  0  0  0  0  0  0  0  0  0  0  0
   -5.9731    3.4251   -9.5892 C   0  0  0  0  0  0  0  0  0  0  0  0
   -7.1388    3.0774  -10.2210 C   0  0  0  0  0  0  0  0  0  0  0  0
   -7.8038    1.8446  -10.0578 C   0  0  0  0  0  0  0  0  0  0  0  0
   -8.3693    0.8459  -10.0058 N   0  0  0  0  0  0  0  0  0  0  0  0
   -7.7915    3.8762  -11.1825 C   0  0  0  0  0  0  0  0  0  0  0  0
   -8.3728    4.4784  -11.9684 N   0  0  0  0  0  0  0  0  0  0  0  0
   -4.1572    8.0773  -11.1797 C   0  0  0  0  0  0  0  0  0  0  0  0
   -4.7963    9.2780  -10.4497 C   0  0  0  0  0  0  0  0  0  0  0  0
   -3.9313   10.4497  -10.8549 C   0  0  0  0  0  0  0  0  0  0  0  0
   -2.7627   10.3205  -10.2397 C   0  0  0  0  0  0  0  0  0  0  0  0
   -2.8183    9.0592   -9.4084 C   0  0  0  0  0  0  0  0  0  0  0  0
   -4.3006    9.0696   -9.0127 C   0  0  0  0  0  0  0  0  0  0  0  0
   -2.7819    7.9243  -10.4542 C   0  0  0  0  0  0  0  0  0  0  0  0
    0.9665   -5.8532    6.7777 H   0  0  0  0  0  0  0  0  0  0  0  0
    2.7855   -0.5928    9.5840 H   0  0  0  0  0  0  0  0  0  0  0  0
    2.2876   -4.9858   12.0606 H   0  0  0  0  0  0  0  0  0  0  0  0
    3.6623   -2.6077   14.1097 H   0  0  0  0  0  0  0  0  0  0  0  0
    1.0973   -2.9074   14.7608 H   0  0  0  0  0  0  0  0  0  0  0  0
    2.1828   -1.1899   16.4263 H   0  0  0  0  0  0  0  0  0  0  0  0
    2.4633    1.1280   15.1587 H   0  0  0  0  0  0  0  0  0  0  0  0
    1.5503    0.8378   12.7123 H   0  0  0  0  0  0  0  0  0  0  0  0
   -0.1844   -0.7432   13.9359 H   0  0  0  0  0  0  0  0  0  0  0  0
    0.4379   -1.5994   12.5072 H   0  0  0  0  0  0  0  0  0  0  0  0
    3.9377   -0.3352   12.8652 H   0  0  0  0  0  0  0  0  0  0  0  0
    4.0083   -3.1818    6.0995 H   0  0  0  0  0  0  0  0  0  0  0  0
    4.3532   -3.0347    4.3669 H   0  0  0  0  0  0  0  0  0  0  0  0
    3.9472   -5.6980    5.8395 H   0  0  0  0  0  0  0  0  0  0  0  0
    5.5038   -5.0241    5.3459 H   0  0  0  0  0  0  0  0  0  0  0  0
    4.3221   -5.5079    4.1251 H   0  0  0  0  0  0  0  0  0  0  0  0
   -3.3791   -4.7325    3.7026 H   0  0  0  0  0  0  0  0  0  0  0  0
   -3.2509   -3.5861    2.3499 H   0  0  0  0  0  0  0  0  0  0  0  0
   -3.8815   -5.8452    1.5282 H   0  0  0  0  0  0  0  0  0  0  0  0
   -2.2617   -5.4574    0.9437 H   0  0  0  0  0  0  0  0  0  0  0  0
   -2.4671   -6.5501    2.3181 H   0  0  0  0  0  0  0  0  0  0  0  0
    2.8008   -3.3211   -0.6276 H   0  0  0  0  0  0  0  0  0  0  0  0
    4.8545   -3.9450    0.8316 H   0  0  0  0  0  0  0  0  0  0  0  0
    6.7527   -2.8467    2.1569 H   0  0  0  0  0  0  0  0  0  0  0  0
    7.4305   -1.5094    1.2180 H   0  0  0  0  0  0  0  0  0  0  0  0
    6.3020    0.1418    2.6430 H   0  0  0  0  0  0  0  0  0  0  0  0
    7.2162   -0.9652    3.6741 H   0  0  0  0  0  0  0  0  0  0  0  0
    5.4606   -1.1319    3.5223 H   0  0  0  0  0  0  0  0  0  0  0  0
    1.4881   -2.1900    1.1987 H   0  0  0  0  0  0  0  0  0  0  0  0
    2.7075    1.9018   -5.1705 H   0  0  0  0  0  0  0  0  0  0  0  0
    1.7998    4.0410   -6.3371 H   0  0  0  0  0  0  0  0  0  0  0  0
   -0.4812    6.0334   -4.5692 H   0  0  0  0  0  0  0  0  0  0  0  0
   -0.2258    5.6324   -6.2707 H   0  0  0  0  0  0  0  0  0  0  0  0
   -2.2633    4.1427   -6.1802 H   0  0  0  0  0  0  0  0  0  0  0  0
   -2.6518    5.8248   -5.7882 H   0  0  0  0  0  0  0  0  0  0  0  0
   -2.5142    4.6220   -4.5018 H   0  0  0  0  0  0  0  0  0  0  0  0
   -1.2902    0.7998   -4.6089 H   0  0  0  0  0  0  0  0  0  0  0  0
   -5.5948   -1.3482   -4.3430 H   0  0  0  0  0  0  0  0  0  0  0  0
   -6.7072   -0.8648   -8.7929 H   0  0  0  0  0  0  0  0  0  0  0  0
   -8.1782   -1.7977   -8.4748 H   0  0  0  0  0  0  0  0  0  0  0  0
   -5.3670   -2.5355   -7.4863 H   0  0  0  0  0  0  0  0  0  0  0  0
   -6.8380   -3.4589   -7.1605 H   0  0  0  0  0  0  0  0  0  0  0  0
   -6.2232   -3.3290   -8.8133 H   0  0  0  0  0  0  0  0  0  0  0  0
   -6.7964    1.3290   -8.0696 H   0  0  0  0  0  0  0  0  0  0  0  0
   -2.0074    5.3233   -8.7258 H   0  0  0  0  0  0  0  0  0  0  0  0
   -6.4352    5.8757  -11.1272 H   0  0  0  0  0  0  0  0  0  0  0  0
   -4.1676    8.1831  -12.2626 H   0  0  0  0  0  0  0  0  0  0  0  0
   -5.8670    9.3846  -10.6004 H   0  0  0  0  0  0  0  0  0  0  0  0
   -4.2290   11.1971  -11.5664 H   0  0  0  0  0  0  0  0  0  0  0  0
   -1.8892   10.9383  -10.3347 H   0  0  0  0  0  0  0  0  0  0  0  0
   -2.0868    8.9669   -8.6098 H   0  0  0  0  0  0  0  0  0  0  0  0
   -4.6447    8.1444   -8.5538 H   0  0  0  0  0  0  0  0  0  0  0  0
   -4.5480    9.9101   -8.3665 H   0  0  0  0  0  0  0  0  0  0  0  0
   -1.8737    7.9259  -11.0539 H   0  0  0  0  0  0  0  0  0  0  0  0
  1  2  2  0  0  0  0
  2  3  1  0  0  0  0
  3  4  2  0  0  0  0
  3  5  1  0  0  0  0
  5  6  2  0  0  0  0
  6  7  1  0  0  0  0
  7  8  2  0  0  0  0
  8  9  1  0  0  0  0
  9 10  2  0  0  0  0
 10 11  1  0  0  0  0
 11 12  2  0  0  0  0
 12 13  1  0  0  0  0
 13 14  3  0  0  0  0
 12 15  1  0  0  0  0
 15 16  3  0  0  0  0
  8 17  1  0  0  0  0
 17 18  1  0  0  0  0
 18 19  1  0  0  0  0
 19 20  2  0  0  0  0
 20 21  1  0  0  0  0
 21 22  1  0  0  0  0
 21 23  1  0  0  0  0
  1 24  1  0  0  0  0
 24 25  2  0  0  0  0
 25 26  1  0  0  0  0
 26 27  1  0  0  0  0
 27 28  2  0  0  0  0
 27 29  1  0  0  0  0
 29 30  1  0  0  0  0
 30 31  1  0  0  0  0
 26 32  2  0  0  0  0
 32 33  1  0  0  0  0
 33 34  1  0  0  0  0
 34 35  1  0  0  0  0
 33 36  1  0  0  0  0
 36 37  2  0  0  0  0
 32 38  1  0  0  0  0
 38 39  1  0  0  0  0
 39 40  1  0  0  0  0
 40 41  1  0  0  0  0
 41 42  2  0  0  0  0
 42 43  1  0  0  0  0
 43 44  2  0  0  0  0
 44 45  1  0  0  0  0
 45 46  1  0  0  0  0
 46 47  1  0  0  0  0
 47 48  2  0  0  0  0
 48 49  1  0  0  0  0
 49 50  2  0  0  0  0
 50 51  1  0  0  0  0
 51 52  1  0  0  0  0
 50 53  1  0  0  0  0
 46 54  2  0  0  0  0
 54 55  1  0  0  0  0
 55 56  1  0  0  0  0
 44 57  1  0  0  0  0
 57 58  2  0  0  0  0
 58 59  1  0  0  0  0
 59 60  2  0  0  0  0
 60 61  1  0  0  0  0
 61 62  1  0  0  0  0
 60 63  1  0  0  0  0
 42 64  1  0  0  0  0
 64 65  2  0  0  0  0
 65 66  1  0  0  0  0
 65 67  1  0  0  0  0
 67 68  2  0  0  0  0
 68 69  1  0  0  0  0
 69 70  1  0  0  0  0
 70 71  1  0  0  0  0
 71 72  1  0  0  0  0
 69 73  2  0  0  0  0
 73 74  1  0  0  0  0
 73 75  1  0  0  0  0
 75 76  2  0  0  0  0
 76 77  1  0  0  0  0
 77 78  2  0  0  0  0
 77 79  1  0  0  0  0
 79 80  2  0  0  0  0
 80 81  1  0  0  0  0
 81 82  2  0  0  0  0
 82 83  1  0  0  0  0
 83 84  2  0  0  0  0
 84 85  1  0  0  0  0
 85 86  2  0  0  0  0
 86 87  1  0  0  0  0
 87 88  3  0  0  0  0
 86 89  1  0  0  0  0
 89 90  3  0  0  0  0
 82 91  1  0  0  0  0
 91 92  1  0  0  0  0
 92 93  1  0  0  0  0
 93 94  2  0  0  0  0
 94 95  1  0  0  0  0
 95 96  1  0  0  0  0
 95 97  1  0  0  0  0
 11  2  1  0  0  0  0
 23 17  1  0  0  0  0
 29 24  1  0  0  0  0
 56 38  2  0  0  0  0
 63 57  1  0  0  0  0
 74 67  1  0  0  0  0
 85 76  1  0  0  0  0
 97 91  1  0  0  0  0
 10  5  1  0  0  0  0
 22 18  1  0  0  0  0
 36 25  1  0  0  0  0
 55 40  2  0  0  0  0
 84 79  1  0  0  0  0
 96 92  1  0  0  0  0
 23  7  1  0  0  0  0
 66 41  1  0  0  0  0
 97 81  1  0  0  0  0
 54 43  1  0  0  0  0
 53 47  1  0  0  0  0
  1 98  1  0  0  0  0
  6 99  1  0  0  0  0
  9100  1  0  0  0  0
 17101  1  0  0  0  0
 18102  1  0  0  0  0
 19103  1  0  0  0  0
 20104  1  0  0  0  0
 21105  1  0  0  0  0
 22106  1  0  0  0  0
 22107  1  0  0  0  0
 23108  1  0  0  0  0
 30109  1  0  0  0  0
 30110  1  0  0  0  0
 31111  1  0  0  0  0
 31112  1  0  0  0  0
 31113  1  0  0  0  0
 34114  1  0  0  0  0
 34115  1  0  0  0  0
 35116  1  0  0  0  0
 35117  1  0  0  0  0
 35118  1  0  0  0  0
 48119  1  0  0  0  0
 49120  1  0  0  0  0
 51121  1  0  0  0  0
 51122  1  0  0  0  0
 52123  1  0  0  0  0
 52124  1  0  0  0  0
 52125  1  0  0  0  0
 56126  1  0  0  0  0
 58127  1  0  0  0  0
 59128  1  0  0  0  0
 61129  1  0  0  0  0
 61130  1  0  0  0  0
 62131  1  0  0  0  0
 62132  1  0  0  0  0
 62133  1  0  0  0  0
 64134  1  0  0  0  0
 68135  1  0  0  0  0
 71136  1  0  0  0  0
 71137  1  0  0  0  0
 72138  1  0  0  0  0
 72139  1  0  0  0  0
 72140  1  0  0  0  0
 75141  1  0  0  0  0
 80142  1  0  0  0  0
 83143  1  0  0  0  0
 91144  1  0  0  0  0
 92145  1  0  0  0  0
 93146  1  0  0  0  0
 94147  1  0  0  0  0
 95148  1  0  0  0  0
 96149  1  0  0  0  0
 96150  1  0  0  0  0
 97151  1  0  0  0  0
M  END
