
  xtb     02242214143D
 energy: -324.089905795319 gnorm: 0.000485725969 xtb: 6.4.1 (unknown)
189213  0     0  0            999 V2000
    7.9441    2.5435    3.3628 C   0  0  0  0  0  0  0  0  0  0  0  0
    7.8388    1.3825    2.6675 C   0  0  0  0  0  0  0  0  0  0  0  0
    6.5903    0.9722    1.9659 C   0  0  0  0  0  0  0  0  0  0  0  0
    5.6180    1.6559    1.7304 O   0  0  0  0  0  0  0  0  0  0  0  0
    6.7361   -0.4714    1.7155 C   0  0  0  0  0  0  0  0  0  0  0  0
    5.7762   -1.3174    1.1640 C   0  0  0  0  0  0  0  0  0  0  0  0
    6.1754   -2.6278    1.0648 C   0  0  0  0  0  0  0  0  0  0  0  0
    7.4396   -3.0680    1.4819 C   0  0  0  0  0  0  0  0  0  0  0  0
    8.3914   -2.2469    2.0392 C   0  0  0  0  0  0  0  0  0  0  0  0
    8.0042   -0.9078    2.1526 C   0  0  0  0  0  0  0  0  0  0  0  0
    8.7283    0.2355    2.6981 C   0  0  0  0  0  0  0  0  0  0  0  0
   10.0413    0.2646    3.0835 C   0  0  0  0  0  0  0  0  0  0  0  0
   10.7090    1.4409    3.4876 C   0  0  0  0  0  0  0  0  0  0  0  0
   11.3126    2.3709    3.7843 N   0  0  0  0  0  0  0  0  0  0  0  0
   10.9018   -0.8522    3.0702 C   0  0  0  0  0  0  0  0  0  0  0  0
   11.6462   -1.7260    3.0793 N   0  0  0  0  0  0  0  0  0  0  0  0
    7.1575   -4.4964    1.0873 C   0  0  0  0  0  0  0  0  0  0  0  0
    7.7738   -5.0215   -0.2332 C   0  0  0  0  0  0  0  0  0  0  0  0
    7.9577   -3.8234   -1.1313 C   0  0  0  0  0  0  0  0  0  0  0  0
    6.7554   -3.4158   -1.5156 C   0  0  0  0  0  0  0  0  0  0  0  0
    5.7358   -4.3287   -0.8804 C   0  0  0  0  0  0  0  0  0  0  0  0
    6.5233   -5.6484   -0.8714 C   0  0  0  0  0  0  0  0  0  0  0  0
    5.7455   -4.0079    0.6344 C   0  0  0  0  0  0  0  0  0  0  0  0
    7.0246    3.6351    3.2112 C   0  0  0  0  0  0  0  0  0  0  0  0
    6.2209    4.2020    4.1868 C   0  0  0  0  0  0  0  0  0  0  0  0
    5.3045    5.0810    3.5414 C   0  0  0  0  0  0  0  0  0  0  0  0
    5.6324    5.1219    2.1352 C   0  0  0  0  0  0  0  0  0  0  0  0
    5.1743    5.7360    1.1950 O   0  0  0  0  0  0  0  0  0  0  0  0
    6.7096    4.2214    2.0157 N   0  0  0  0  0  0  0  0  0  0  0  0
    7.3725    4.0103    0.7592 C   0  0  0  0  0  0  0  0  0  0  0  0
    4.2760    5.3562    4.4353 C   0  0  0  0  0  0  0  0  0  0  0  0
    4.5742    4.7386    5.6257 N   0  0  0  0  0  0  0  0  0  0  0  0
    3.8101    4.8114    6.8407 C   0  0  0  0  0  0  0  0  0  0  0  0
    5.7722    3.9976    5.5482 C   0  0  0  0  0  0  0  0  0  0  0  0
    6.2309    3.3742    6.4800 O   0  0  0  0  0  0  0  0  0  0  0  0
    3.0318    5.9586    4.1107 C   0  0  0  0  0  0  0  0  0  0  0  0
    2.8086    6.9080    3.1194 C   0  0  0  0  0  0  0  0  0  0  0  0
    3.8385    7.8178    2.6386 C   0  0  0  0  0  0  0  0  0  0  0  0
    4.8357    8.2680    3.5048 C   0  0  0  0  0  0  0  0  0  0  0  0
    5.8008    9.1435    3.0515 C   0  0  0  0  0  0  0  0  0  0  0  0
    5.7841    9.5834    1.7381 C   0  0  0  0  0  0  0  0  0  0  0  0
    4.7994    9.1480    0.8619 C   0  0  0  0  0  0  0  0  0  0  0  0
    4.7428    9.6424   -0.5544 C   0  0  0  0  0  0  0  0  0  0  0  0
    3.6989   10.7525   -0.6917 C   0  0  0  0  0  0  0  0  0  0  0  0
    3.8313    8.2701    1.3232 C   0  0  0  0  0  0  0  0  0  0  0  0
    1.4599    6.9028    2.7136 C   0  0  0  0  0  0  0  0  0  0  0  0
    0.6177    7.7047    1.4112 S   0  0  0  0  0  0  0  0  0  0  0  0
   -0.7665    6.7226    1.7290 C   0  0  0  0  0  0  0  0  0  0  0  0
   -1.9935    6.4114    1.1179 C   0  0  0  0  0  0  0  0  0  0  0  0
   -2.6445    6.9473   -0.0139 C   0  0  0  0  0  0  0  0  0  0  0  0
   -3.8429    6.3145   -0.4905 C   0  0  0  0  0  0  0  0  0  0  0  0
   -4.3465    6.9237   -1.5523 N   0  0  0  0  0  0  0  0  0  0  0  0
   -3.3994    8.1836   -1.9199 S   0  0  0  0  0  0  0  0  0  0  0  0
   -2.3029    7.9977   -0.7434 N   0  0  0  0  0  0  0  0  0  0  0  0
   -4.2732    5.1192    0.1265 C   0  0  0  0  0  0  0  0  0  0  0  0
   -5.1704    4.1287   -0.3097 C   0  0  0  0  0  0  0  0  0  0  0  0
   -6.1395    3.7610   -1.6988 S   0  0  0  0  0  0  0  0  0  0  0  0
   -6.3154    2.1172   -1.1231 C   0  0  0  0  0  0  0  0  0  0  0  0
   -6.8364    0.9349   -1.6990 C   0  0  0  0  0  0  0  0  0  0  0  0
   -7.4883    0.8259   -3.0007 C   0  0  0  0  0  0  0  0  0  0  0  0
   -8.5249   -0.0859   -3.1943 C   0  0  0  0  0  0  0  0  0  0  0  0
   -9.1300   -0.1926   -4.4312 C   0  0  0  0  0  0  0  0  0  0  0  0
   -8.7145    0.6058   -5.4827 C   0  0  0  0  0  0  0  0  0  0  0  0
   -7.6905    1.5279   -5.3060 C   0  0  0  0  0  0  0  0  0  0  0  0
   -7.2060    2.3685   -6.4518 C   0  0  0  0  0  0  0  0  0  0  0  0
   -6.0777    1.6516   -7.1960 C   0  0  0  0  0  0  0  0  0  0  0  0
   -7.0841    1.6277   -4.0636 C   0  0  0  0  0  0  0  0  0  0  0  0
   -6.6567   -0.1431   -0.8579 C   0  0  0  0  0  0  0  0  0  0  0  0
   -5.8857    0.2821    0.6558 S   0  0  0  0  0  0  0  0  0  0  0  0
   -5.7226    1.9148    0.1231 C   0  0  0  0  0  0  0  0  0  0  0  0
   -5.0527    3.0589    0.5783 C   0  0  0  0  0  0  0  0  0  0  0  0
   -4.1608    3.3611    1.5719 N   0  0  0  0  0  0  0  0  0  0  0  0
   -3.6337    4.6113    1.2931 C   0  0  0  0  0  0  0  0  0  0  0  0
   -2.5457    5.3284    1.8509 C   0  0  0  0  0  0  0  0  0  0  0  0
   -1.7254    5.0544    2.9397 N   0  0  0  0  0  0  0  0  0  0  0  0
   -0.6198    5.8711    2.8286 C   0  0  0  0  0  0  0  0  0  0  0  0
    0.6545    5.9821    3.3967 C   0  0  0  0  0  0  0  0  0  0  0  0
    1.5472    5.1664    4.6291 S   0  0  0  0  0  0  0  0  0  0  0  0
   -2.1683    4.5860    4.2398 C   0  0  0  0  0  0  0  0  0  0  0  0
   -1.3864    3.3811    4.7578 C   0  0  0  0  0  0  0  0  0  0  0  0
   -3.5987    2.2737    2.3400 C   0  0  0  0  0  0  0  0  0  0  0  0
   -2.3585    1.7055    1.6536 C   0  0  0  0  0  0  0  0  0  0  0  0
   -6.7506   -1.5430   -1.1660 C   0  0  0  0  0  0  0  0  0  0  0  0
   -5.7372   -2.1902   -2.4104 S   0  0  0  0  0  0  0  0  0  0  0  0
   -6.1728   -3.8230   -1.9769 C   0  0  0  0  0  0  0  0  0  0  0  0
   -7.1011   -3.8321   -0.9313 C   0  0  0  0  0  0  0  0  0  0  0  0
   -7.6644   -5.0413   -0.3090 C   0  0  0  0  0  0  0  0  0  0  0  0
   -7.2421   -6.1681   -0.5166 O   0  0  0  0  0  0  0  0  0  0  0  0
   -8.7777   -4.7602    0.5972 C   0  0  0  0  0  0  0  0  0  0  0  0
   -9.6108   -5.7239    1.1098 C   0  0  0  0  0  0  0  0  0  0  0  0
   -9.5640   -7.1957    0.9197 C   0  0  0  0  0  0  0  0  0  0  0  0
   -8.6187   -7.8410    1.9378 C   0  0  0  0  0  0  0  0  0  0  0  0
  -10.8227   -5.0172    2.1235 S   0  0  0  0  0  0  0  0  0  0  0  0
  -10.2083   -3.4182    1.8704 C   0  0  0  0  0  0  0  0  0  0  0  0
  -10.8315   -2.2577    2.5562 C   0  0  0  0  0  0  0  0  0  0  0  0
  -10.0974   -1.9463    3.8639 C   0  0  0  0  0  0  0  0  0  0  0  0
   -9.1219   -3.4382    1.0332 C   0  0  0  0  0  0  0  0  0  0  0  0
   -8.3930   -2.2499    0.5918 C   0  0  0  0  0  0  0  0  0  0  0  0
   -8.5971   -1.1233    1.0131 O   0  0  0  0  0  0  0  0  0  0  0  0
   -7.4111   -2.5370   -0.4622 C   0  0  0  0  0  0  0  0  0  0  0  0
   -5.6396   -4.9922   -2.5661 C   0  0  0  0  0  0  0  0  0  0  0  0
   -4.5017   -5.1377   -3.3004 C   0  0  0  0  0  0  0  0  0  0  0  0
   -3.5060   -4.0906   -3.5932 C   0  0  0  0  0  0  0  0  0  0  0  0
   -3.6689   -2.8850   -3.5664 O   0  0  0  0  0  0  0  0  0  0  0  0
   -2.2577   -4.8013   -3.9135 C   0  0  0  0  0  0  0  0  0  0  0  0
   -1.0032   -4.2343   -4.1296 C   0  0  0  0  0  0  0  0  0  0  0  0
   -0.0078   -5.1521   -4.3621 C   0  0  0  0  0  0  0  0  0  0  0  0
   -0.2404   -6.5347   -4.3807 C   0  0  0  0  0  0  0  0  0  0  0  0
   -1.4765   -7.1065   -4.1909 C   0  0  0  0  0  0  0  0  0  0  0  0
   -2.5044   -6.1902   -3.9509 C   0  0  0  0  0  0  0  0  0  0  0  0
   -3.9236   -6.4149   -3.6928 C   0  0  0  0  0  0  0  0  0  0  0  0
   -4.6063   -7.5872   -3.8575 C   0  0  0  0  0  0  0  0  0  0  0  0
   -6.0088   -7.7185   -3.7364 C   0  0  0  0  0  0  0  0  0  0  0  0
   -7.1429   -7.8906   -3.7094 N   0  0  0  0  0  0  0  0  0  0  0  0
   -4.0057   -8.8034   -4.2461 C   0  0  0  0  0  0  0  0  0  0  0  0
   -3.5677   -9.8193   -4.5515 N   0  0  0  0  0  0  0  0  0  0  0  0
    1.2103   -6.8540   -4.6415 C   0  0  0  0  0  0  0  0  0  0  0  0
    2.0699   -7.3470   -3.4504 C   0  0  0  0  0  0  0  0  0  0  0  0
    1.4489   -6.7740   -2.2009 C   0  0  0  0  0  0  0  0  0  0  0  0
    1.6737   -5.4667   -2.1983 C   0  0  0  0  0  0  0  0  0  0  0  0
    2.4478   -5.1317   -3.4494 C   0  0  0  0  0  0  0  0  0  0  0  0
    3.2821   -6.4136   -3.6023 C   0  0  0  0  0  0  0  0  0  0  0  0
    1.4670   -5.3143   -4.6343 C   0  0  0  0  0  0  0  0  0  0  0  0
    8.6815    2.6476    4.1489 H   0  0  0  0  0  0  0  0  0  0  0  0
    4.8145   -0.9365    0.8577 H   0  0  0  0  0  0  0  0  0  0  0  0
    9.3520   -2.6015    2.3746 H   0  0  0  0  0  0  0  0  0  0  0  0
    7.2117   -5.2307    1.8886 H   0  0  0  0  0  0  0  0  0  0  0  0
    8.6431   -5.6600   -0.1020 H   0  0  0  0  0  0  0  0  0  0  0  0
    8.9108   -3.3756   -1.3429 H   0  0  0  0  0  0  0  0  0  0  0  0
    6.5036   -2.5585   -2.1121 H   0  0  0  0  0  0  0  0  0  0  0  0
    4.7472   -4.3389   -1.3322 H   0  0  0  0  0  0  0  0  0  0  0  0
    6.0648   -6.4233   -0.2583 H   0  0  0  0  0  0  0  0  0  0  0  0
    6.7119   -6.0337   -1.8726 H   0  0  0  0  0  0  0  0  0  0  0  0
    4.8776   -4.4154    1.1495 H   0  0  0  0  0  0  0  0  0  0  0  0
    7.0026    3.1098    0.2653 H   0  0  0  0  0  0  0  0  0  0  0  0
    7.1424    4.8693    0.1286 H   0  0  0  0  0  0  0  0  0  0  0  0
    8.4498    3.9314    0.9062 H   0  0  0  0  0  0  0  0  0  0  0  0
    3.4823    5.8346    7.0268 H   0  0  0  0  0  0  0  0  0  0  0  0
    4.4620    4.4780    7.6486 H   0  0  0  0  0  0  0  0  0  0  0  0
    2.9368    4.1555    6.8018 H   0  0  0  0  0  0  0  0  0  0  0  0
    4.8417    7.9426    4.5352 H   0  0  0  0  0  0  0  0  0  0  0  0
    6.5707    9.4889    3.7262 H   0  0  0  0  0  0  0  0  0  0  0  0
    6.5458   10.2673    1.3915 H   0  0  0  0  0  0  0  0  0  0  0  0
    5.7203   10.0243   -0.8545 H   0  0  0  0  0  0  0  0  0  0  0  0
    4.4791    8.8160   -1.2166 H   0  0  0  0  0  0  0  0  0  0  0  0
    3.9493   11.5894   -0.0432 H   0  0  0  0  0  0  0  0  0  0  0  0
    2.7149   10.3841   -0.4110 H   0  0  0  0  0  0  0  0  0  0  0  0
    3.6565   11.1098   -1.7180 H   0  0  0  0  0  0  0  0  0  0  0  0
    3.0867    7.8993    0.6366 H   0  0  0  0  0  0  0  0  0  0  0  0
   -8.8707   -0.6873   -2.3664 H   0  0  0  0  0  0  0  0  0  0  0  0
   -9.9351   -0.8983   -4.5751 H   0  0  0  0  0  0  0  0  0  0  0  0
   -9.1945    0.5188   -6.4468 H   0  0  0  0  0  0  0  0  0  0  0  0
   -6.8397    3.3261   -6.0774 H   0  0  0  0  0  0  0  0  0  0  0  0
   -8.0284    2.5620   -7.1433 H   0  0  0  0  0  0  0  0  0  0  0  0
   -5.2466    1.4547   -6.5226 H   0  0  0  0  0  0  0  0  0  0  0  0
   -6.4287    0.7009   -7.5913 H   0  0  0  0  0  0  0  0  0  0  0  0
   -5.7196    2.2610   -8.0224 H   0  0  0  0  0  0  0  0  0  0  0  0
   -6.2768    2.3309   -3.9241 H   0  0  0  0  0  0  0  0  0  0  0  0
   -2.0513    5.4100    4.9547 H   0  0  0  0  0  0  0  0  0  0  0  0
   -3.2366    4.3723    4.1716 H   0  0  0  0  0  0  0  0  0  0  0  0
   -1.8874    2.9726    5.6317 H   0  0  0  0  0  0  0  0  0  0  0  0
   -1.2987    2.6050    4.0045 H   0  0  0  0  0  0  0  0  0  0  0  0
   -0.3838    3.6773    5.0496 H   0  0  0  0  0  0  0  0  0  0  0  0
   -3.3708    2.5919    3.3524 H   0  0  0  0  0  0  0  0  0  0  0  0
   -4.3694    1.5010    2.4003 H   0  0  0  0  0  0  0  0  0  0  0  0
   -1.9646    0.8697    2.2256 H   0  0  0  0  0  0  0  0  0  0  0  0
   -1.5879    2.4678    1.5589 H   0  0  0  0  0  0  0  0  0  0  0  0
   -2.6145    1.3506    0.6580 H   0  0  0  0  0  0  0  0  0  0  0  0
   -9.1942   -7.4132   -0.0843 H   0  0  0  0  0  0  0  0  0  0  0  0
  -10.5666   -7.6121    1.0347 H   0  0  0  0  0  0  0  0  0  0  0  0
   -8.6169   -8.9192    1.8060 H   0  0  0  0  0  0  0  0  0  0  0  0
   -8.9339   -7.6112    2.9537 H   0  0  0  0  0  0  0  0  0  0  0  0
   -7.6081   -7.4716    1.7866 H   0  0  0  0  0  0  0  0  0  0  0  0
  -10.7648   -1.3850    1.9035 H   0  0  0  0  0  0  0  0  0  0  0  0
  -11.8807   -2.4752    2.7653 H   0  0  0  0  0  0  0  0  0  0  0  0
   -9.0685   -1.6691    3.6510 H   0  0  0  0  0  0  0  0  0  0  0  0
  -10.5825   -1.1168    4.3708 H   0  0  0  0  0  0  0  0  0  0  0  0
  -10.1036   -2.8123    4.5226 H   0  0  0  0  0  0  0  0  0  0  0  0
   -6.1643   -5.8955   -2.2725 H   0  0  0  0  0  0  0  0  0  0  0  0
   -0.8664   -3.1646   -4.1030 H   0  0  0  0  0  0  0  0  0  0  0  0
   -1.6433   -8.1709   -4.2116 H   0  0  0  0  0  0  0  0  0  0  0  0
    1.4206   -7.4035   -5.5567 H   0  0  0  0  0  0  0  0  0  0  0  0
    2.2592   -8.4169   -3.4442 H   0  0  0  0  0  0  0  0  0  0  0  0
    0.8783   -7.3513   -1.4971 H   0  0  0  0  0  0  0  0  0  0  0  0
    1.3273   -4.7341   -1.4928 H   0  0  0  0  0  0  0  0  0  0  0  0
    2.9803   -4.1839   -3.4486 H   0  0  0  0  0  0  0  0  0  0  0  0
    4.0130   -6.5397   -2.8045 H   0  0  0  0  0  0  0  0  0  0  0  0
    3.7760   -6.4968   -4.5692 H   0  0  0  0  0  0  0  0  0  0  0  0
    1.8341   -4.8565   -5.5507 H   0  0  0  0  0  0  0  0  0  0  0  0
  1  2  2  0  0  0  0
  2  3  1  0  0  0  0
  3  4  2  0  0  0  0
  3  5  1  0  0  0  0
  5  6  2  0  0  0  0
  6  7  1  0  0  0  0
  7  8  2  0  0  0  0
  8  9  1  0  0  0  0
  9 10  2  0  0  0  0
 10 11  1  0  0  0  0
 11 12  2  0  0  0  0
 12 13  1  0  0  0  0
 13 14  3  0  0  0  0
 12 15  1  0  0  0  0
 15 16  3  0  0  0  0
  8 17  1  0  0  0  0
 17 18  1  0  0  0  0
 18 19  1  0  0  0  0
 19 20  2  0  0  0  0
 20 21  1  0  0  0  0
 21 22  1  0  0  0  0
 21 23  1  0  0  0  0
  1 24  1  0  0  0  0
 24 25  2  0  0  0  0
 25 26  1  0  0  0  0
 26 27  1  0  0  0  0
 27 28  2  0  0  0  0
 27 29  1  0  0  0  0
 29 30  1  0  0  0  0
 26 31  2  0  0  0  0
 31 32  1  0  0  0  0
 32 33  1  0  0  0  0
 32 34  1  0  0  0  0
 34 35  2  0  0  0  0
 31 36  1  0  0  0  0
 36 37  2  0  0  0  0
 37 38  1  0  0  0  0
 38 39  2  0  0  0  0
 39 40  1  0  0  0  0
 40 41  2  0  0  0  0
 41 42  1  0  0  0  0
 42 43  1  0  0  0  0
 43 44  1  0  0  0  0
 42 45  2  0  0  0  0
 37 46  1  0  0  0  0
 46 47  1  0  0  0  0
 47 48  1  0  0  0  0
 48 49  1  0  0  0  0
 49 50  1  0  0  0  0
 50 51  1  0  0  0  0
 51 52  2  0  0  0  0
 52 53  1  0  0  0  0
 53 54  1  0  0  0  0
 51 55  1  0  0  0  0
 55 56  1  0  0  0  0
 56 57  1  0  0  0  0
 57 58  1  0  0  0  0
 58 59  1  0  0  0  0
 59 60  1  0  0  0  0
 60 61  2  0  0  0  0
 61 62  1  0  0  0  0
 62 63  2  0  0  0  0
 63 64  1  0  0  0  0
 64 65  1  0  0  0  0
 65 66  1  0  0  0  0
 64 67  2  0  0  0  0
 59 68  2  0  0  0  0
 68 69  1  0  0  0  0
 69 70  1  0  0  0  0
 70 71  1  0  0  0  0
 71 72  1  0  0  0  0
 72 73  1  0  0  0  0
 73 74  1  0  0  0  0
 74 75  1  0  0  0  0
 75 76  1  0  0  0  0
 76 77  1  0  0  0  0
 77 78  1  0  0  0  0
 75 79  1  0  0  0  0
 79 80  1  0  0  0  0
 72 81  1  0  0  0  0
 81 82  1  0  0  0  0
 68 83  1  0  0  0  0
 83 84  1  0  0  0  0
 84 85  1  0  0  0  0
 85 86  2  0  0  0  0
 86 87  1  0  0  0  0
 87 88  2  0  0  0  0
 87 89  1  0  0  0  0
 89 90  2  0  0  0  0
 90 91  1  0  0  0  0
 91 92  1  0  0  0  0
 90 93  1  0  0  0  0
 93 94  1  0  0  0  0
 94 95  1  0  0  0  0
 95 96  1  0  0  0  0
 94 97  2  0  0  0  0
 97 98  1  0  0  0  0
 98 99  2  0  0  0  0
 98100  1  0  0  0  0
 85101  1  0  0  0  0
101102  2  0  0  0  0
102103  1  0  0  0  0
103104  2  0  0  0  0
103105  1  0  0  0  0
105106  2  0  0  0  0
106107  1  0  0  0  0
107108  2  0  0  0  0
108109  1  0  0  0  0
109110  2  0  0  0  0
110111  1  0  0  0  0
111112  2  0  0  0  0
112113  1  0  0  0  0
113114  3  0  0  0  0
112115  1  0  0  0  0
115116  3  0  0  0  0
108117  1  0  0  0  0
117118  1  0  0  0  0
118119  1  0  0  0  0
119120  2  0  0  0  0
120121  1  0  0  0  0
121122  1  0  0  0  0
121123  1  0  0  0  0
 11  2  1  0  0  0  0
 23 17  1  0  0  0  0
 29 24  1  0  0  0  0
 78 36  1  0  0  0  0
100 83  2  0  0  0  0
111102  1  0  0  0  0
123117  1  0  0  0  0
 10  5  1  0  0  0  0
 22 18  1  0  0  0  0
 34 25  1  0  0  0  0
 45 38  1  0  0  0  0
 77 46  2  0  0  0  0
100 86  1  0  0  0  0
110105  1  0  0  0  0
122118  1  0  0  0  0
 23  7  1  0  0  0  0
 76 48  2  0  0  0  0
 97 89  1  0  0  0  0
123107  1  0  0  0  0
 74 49  2  0  0  0  0
 54 50  2  0  0  0  0
 73 55  2  0  0  0  0
 71 56  2  0  0  0  0
 70 58  2  0  0  0  0
 67 60  1  0  0  0  0
  1124  1  0  0  0  0
  6125  1  0  0  0  0
  9126  1  0  0  0  0
 17127  1  0  0  0  0
 18128  1  0  0  0  0
 19129  1  0  0  0  0
 20130  1  0  0  0  0
 21131  1  0  0  0  0
 22132  1  0  0  0  0
 22133  1  0  0  0  0
 23134  1  0  0  0  0
 30135  1  0  0  0  0
 30136  1  0  0  0  0
 30137  1  0  0  0  0
 33138  1  0  0  0  0
 33139  1  0  0  0  0
 33140  1  0  0  0  0
 39141  1  0  0  0  0
 40142  1  0  0  0  0
 41143  1  0  0  0  0
 43144  1  0  0  0  0
 43145  1  0  0  0  0
 44146  1  0  0  0  0
 44147  1  0  0  0  0
 44148  1  0  0  0  0
 45149  1  0  0  0  0
 61150  1  0  0  0  0
 62151  1  0  0  0  0
 63152  1  0  0  0  0
 65153  1  0  0  0  0
 65154  1  0  0  0  0
 66155  1  0  0  0  0
 66156  1  0  0  0  0
 66157  1  0  0  0  0
 67158  1  0  0  0  0
 79159  1  0  0  0  0
 79160  1  0  0  0  0
 80161  1  0  0  0  0
 80162  1  0  0  0  0
 80163  1  0  0  0  0
 81164  1  0  0  0  0
 81165  1  0  0  0  0
 82166  1  0  0  0  0
 82167  1  0  0  0  0
 82168  1  0  0  0  0
 91169  1  0  0  0  0
 91170  1  0  0  0  0
 92171  1  0  0  0  0
 92172  1  0  0  0  0
 92173  1  0  0  0  0
 95174  1  0  0  0  0
 95175  1  0  0  0  0
 96176  1  0  0  0  0
 96177  1  0  0  0  0
 96178  1  0  0  0  0
101179  1  0  0  0  0
106180  1  0  0  0  0
109181  1  0  0  0  0
117182  1  0  0  0  0
118183  1  0  0  0  0
119184  1  0  0  0  0
120185  1  0  0  0  0
121186  1  0  0  0  0
122187  1  0  0  0  0
122188  1  0  0  0  0
123189  1  0  0  0  0
M  END
