236

C          7.37040        7.13190        7.44000
C          7.50260        6.58220        8.67160
C          8.59920        6.99170        9.59250
O          9.59070        7.62100        9.30310
C          8.18230        6.51090       10.92430
C          8.82450        6.73660       12.14000
C          8.19670        6.16610       13.22100
C          7.01060        5.42660       13.10900
C          6.36890        5.18790       11.91750
C          6.99500        5.75530       10.80480
C          6.64890        5.65870        9.39220
C          5.86840        4.68810        8.81950
C          5.87070        4.42290        7.43480
N          5.91420        4.12600        6.32580
C          5.06550        3.78250        9.54020
N          4.37000        3.03790       10.06940
C          6.93900        5.16580       14.59210
C          5.93710        6.00280       15.42540
C          5.74590        7.30420       14.68660
C          6.86990        7.99990       14.79410
C          7.84210        7.18130       15.60710
C          6.86710        6.46790       16.55740
C          8.26200        5.98540       14.71710
C          6.20420        7.11370        6.62040
C          6.15880        7.03140        5.25760
C          4.84740        6.93340        4.73710
C          4.46150        6.71250        3.40360
C          5.45570        6.37060        2.37960
C          5.48860        7.00220        1.14260
C          6.43740        6.62310        0.20680
C          7.34080        5.61920        0.49020
C          7.30220        4.97230        1.72540
S          8.49120        3.69790        1.99620
C          8.07070        3.03970        3.65410
C          9.00250        1.88720        3.97650
C          6.36030        5.35080        2.66750
C          3.10250        6.71170        3.14460
C          2.11860        6.89570        4.14980
C          2.50490        7.05880        5.49010
C          1.51160        7.18390        6.56790
C          1.51680        6.29210        7.63560
C          0.57490        6.41380        8.64190
C         -0.34960        7.43990        8.61200
C         -0.34390        8.34740        7.55770
S         -1.54500        9.64840        7.59770
C         -0.67580       11.04480        6.80340
C          0.56630       11.45310        7.56990
C          0.56730        8.20360        6.52420
C          3.86350        7.05610        5.74950
S          4.59320        7.18570        7.32690
C          0.80520        6.74430        3.64430
C          0.76760        6.43970        2.31390
S          2.36890        6.36440        1.60250
C         -0.37130        6.08690        1.52990
C         -1.70160        6.38470        1.75440
C         -2.18960        7.34700        2.74520
C         -1.66880        8.63730        2.78880
C         -2.16810        9.54720        3.70030
C         -3.16650        9.17670        4.58500
C         -3.69000        7.89050        4.55950
C         -4.73180        7.46330        5.55130
C         -4.06740        6.85170        6.78650
C         -3.20230        6.98760        3.62600
C         -2.53770        5.67020        0.87320
S         -4.27430        5.58430        0.69140
C         -4.06370        4.40730       -0.56340
C         -4.83760        3.52420       -1.33670
C         -6.21820        3.22240       -1.32730
C         -6.68480        2.05330       -2.02500
N         -7.98040        1.84650       -1.85100
S         -8.56740        3.02180       -0.90470
N         -7.18870        3.83770       -0.67080
C         -5.77160        1.30460       -2.80000
C         -5.90420        0.12780       -3.56210
S         -7.08020       -1.09880       -3.90230
C         -5.87710       -1.97090       -4.82410
C         -5.88620       -3.21850       -5.48110
C         -7.08890       -4.03200       -5.66690
C         -7.94830       -4.28630       -4.60330
C         -9.11340       -4.99810       -4.81900
C         -9.44060       -5.43900       -6.08890
C         -8.59810       -5.18460       -7.16420
C         -8.94420       -5.65710       -8.54730
C         -8.22000       -6.96190       -8.88040
C         -7.41960       -4.49140       -6.93840
C         -4.64060       -3.51350       -6.00350
S         -3.47370       -2.22380       -5.75540
C         -4.64920       -1.30980       -4.88340
C         -4.66670       -0.11070       -4.16380
N         -3.77110        0.86960       -3.81680
C         -4.42090        1.72080       -2.93800
C         -3.92430        2.75030       -2.10350
N         -2.63680        3.13520       -1.78390
C         -2.72350        4.12940       -0.84670
C         -1.84990        4.85060       -0.02380
S         -0.14230        4.96100        0.20420
C         -1.38270        2.44690       -1.99590
C         -0.41920        3.25530       -2.86400
C         -2.69090        1.20440       -4.72100
C         -3.21350        1.50500       -6.12580
C         -4.16680       -4.76170       -6.50750
C         -4.61810       -6.00840       -6.17880
C         -3.81950       -7.05570       -6.69720
C         -3.93130       -8.43250       -6.43680
C         -5.01210       -8.97140       -5.59880
C         -4.71270       -9.80420       -4.52150
C         -5.73020      -10.30970       -3.73670
C         -7.05300      -10.00420       -4.00570
C         -7.35750       -9.16740       -5.07100
S         -9.00590       -8.72590       -5.52380
C         -9.98090       -9.09570       -4.01640
C        -11.34970       -8.45370       -4.13690
C         -6.33670       -8.65360       -5.86290
C         -2.94620       -9.24890       -6.97090
C         -1.87040       -8.75030       -7.75360
C         -1.74590       -7.36850       -7.99620
C         -0.59100       -6.82610       -8.72550
C         -0.77020       -5.98750       -9.82010
C          0.33170       -5.50660      -10.50650
C          1.60930       -5.82950      -10.09400
C          1.79500       -6.64400       -8.97990
S          3.46510       -6.98340       -8.50350
C          3.34850       -7.30160       -6.70410
C          3.29840       -8.77990       -6.36520
C          0.69650       -7.15450       -8.30860
C         -2.73070       -6.55980       -7.46390
S         -2.74220       -4.81600       -7.52780
C         -1.00960       -9.77110       -8.19970
C         -1.35680      -11.02290       -7.75730
S         -2.84520      -10.97780       -6.80550
C         -0.75060      -12.28890       -7.93170
C          0.50480      -12.61720       -8.35830
C          1.65540      -11.71460       -8.60460
O          1.65690      -10.49880       -8.63840
C          2.83240      -12.58720       -8.73990
C          2.44280      -13.92040       -8.62810
C          3.39990      -14.94360       -8.66930
C          4.71950      -14.60600       -8.82170
C          5.14280      -13.26570       -8.95720
C          6.50200      -12.93100       -9.12350
C          6.88750      -11.62540       -9.25950
C          5.93270      -10.59620       -9.24590
C          4.60480      -10.88110       -9.08470
C          4.17900      -12.21590       -8.92610
C          0.99380      -13.98280       -8.47170
C          0.23890      -15.12490       -8.50690
C          0.76750      -16.42680       -8.63870
N          1.12240      -17.51420       -8.73810
C         -1.17140      -15.18140       -8.46360
N         -2.31080      -15.32480       -8.45810
H          8.22580        7.68090        7.05930
H          9.73760        7.30920       12.18640
H          5.45590        4.62050       11.83840
H          6.95590        4.12000       14.89220
H          5.03130        5.47260       15.70680
H          4.86100        7.55270       14.13040
H          7.11150        8.94590       14.34590
H          8.67050        7.72400       16.05460
H          7.32210        5.64710       17.11000
H          6.37830        7.15140       17.24990
H          9.14390        5.47370       15.09740
H          7.04370        6.99490        4.64740
H          4.79130        7.79640        0.92330
H          6.47170        7.11710       -0.75270
H          8.08100        5.31990       -0.23580
H          8.18370        3.84480        4.38020
H          7.03380        2.70590        3.62900
H          8.76040        1.48680        4.95860
H          8.89870        1.09450        3.23900
H         10.03760        2.22130        3.97940
H          6.28850        4.85550        3.62220
H          2.24130        5.49180        7.66200
H          0.57030        5.71010        9.46050
H         -1.07700        7.55340        9.40090
H         -1.41680       11.84400        6.80130
H         -0.45120       10.77230        5.77320
H          0.30910       11.71680        8.59330
H          1.28990       10.64000        7.59480
H          1.02920       12.31500        7.09290
H          0.56840        8.88150        5.68410
H         -0.07520        6.80020        4.25820
H         -0.89020        8.92270        2.09630
H         -1.78310       10.55720        3.71310
H         -3.54570        9.89060        5.30090
H         -5.32910        8.32440        5.85560
H         -5.39600        6.72690        5.09440
H         -3.46320        5.99110        6.50710
H         -3.42070        7.58250        7.26670
H         -4.82020        6.53020        7.50220
H         -3.60590        5.98590        3.58820
H         -7.69800       -3.93220       -3.61460
H         -9.77620       -5.19650       -3.98910
H        -10.36000       -5.98020       -6.25500
H        -10.02100       -5.81740       -8.62130
H         -8.66100       -4.89320       -9.27540
H         -7.14170       -6.82150       -8.83050
H         -8.47750       -7.29300       -9.88380
H         -8.50590       -7.73900       -8.17500
H         -6.75750       -4.27550       -7.76540
H         -1.58350        1.46410       -2.42170
H         -0.91760        2.29530       -1.01480
H          0.47160        2.66750       -3.06580
H         -0.87160        3.54300       -3.81040
H         -0.12110        4.16290       -2.34660
H         -2.18560        2.08950       -4.34900
H         -1.98810        0.36550       -4.75990
H         -3.67160        0.62630       -6.57060
H         -3.95240        2.30300       -6.08890
H         -2.38880        1.82020       -6.75920
H         -5.46200       -6.16890       -5.53330
H         -3.68470      -10.03810       -4.29130
H         -5.49570      -10.95590       -2.90380
H         -7.82980      -10.42700       -3.38930
H         -9.43030       -8.68910       -3.16800
H        -10.06950      -10.17860       -3.92400
H        -11.87520       -8.83900       -5.00770
H        -11.93920       -8.67170       -3.24860
H        -11.25580       -7.37550       -4.23860
H         -6.58760       -8.01880       -6.69800
H         -1.76830       -5.73680      -10.14600
H          0.19230       -4.86900      -11.36670
H          2.47280       -5.45160      -10.61940
H          2.47250       -6.76500       -6.34240
H          4.24220       -6.83950       -6.28330
H          2.50650       -9.28100       -6.91710
H          4.24130       -9.25820       -6.62110
H          3.12050       -8.90950       -5.29870
H          0.81800       -7.80110       -7.45440
H         -0.16750       -9.58700       -8.83830
H         -1.38540      -13.11100       -7.62110
H          3.11230      -15.97700       -8.57000
H          5.47000      -15.38310       -8.84210
H          7.23320      -13.72630       -9.14380
H          7.93150      -11.37830       -9.38480
H          6.25220       -9.57180       -9.36620
H          3.86830      -10.09420       -9.08330
