202

C          5.94730       -6.78570        6.98600
C          5.84110       -7.91560        7.74530
C          5.20310       -9.18010        7.34140
O          4.80150       -9.48870        6.23570
C          5.14950      -10.01740        8.55080
C          4.56500      -11.27680        8.67010
C          4.63970      -11.80880        9.93460
C          5.25570      -11.13980       11.00130
C          5.84480       -9.90250       10.89450
C          5.77650       -9.33950        9.61580
C          6.26990       -8.05410        9.12630
C          7.02810       -7.16820        9.84670
C          7.55390       -5.95070        9.36520
N          8.03420       -4.95270        9.05930
C          7.42340       -7.36070       11.18740
N          7.78000       -7.44730       12.27540
C          4.94630      -12.24590       11.97880
C          3.77150      -11.99770       12.94880
C          3.40090      -13.38210       13.42960
C          2.81960      -14.01760       12.42020
C          2.78700      -13.07310       11.24030
C          2.61360      -11.73820       11.97630
C          4.26120      -12.99260       10.78950
C          5.49940       -6.51350        5.67620
C          5.63500       -5.25630        5.11680
C          5.09330       -5.13770        3.82810
C          5.04850       -3.98880        3.00830
C          5.70290       -2.73710        3.40900
C          7.03850       -2.73850        3.80980
C          7.65170       -1.55420        4.17000
C          6.95790       -0.35700        4.13560
C          5.63370       -0.34550        3.71960
S          4.63490        1.11320        3.64860
C          5.84190        2.47020        3.44560
C          6.59120        2.37500        2.13080
C          5.01010       -1.53500        3.36370
C          4.36540       -4.11500        1.81530
C          3.78970       -5.33790        1.37650
C          3.88240       -6.49290        2.16830
C          3.35120       -7.77580        1.68290
C          3.75180       -8.26280        0.44250
C          3.25600       -9.46910       -0.01840
C          2.35280      -10.18620        0.73940
C          1.94040       -9.70080        1.97880
S          0.72370      -10.67120        2.81490
C          0.69820      -10.05570        4.53320
C          1.93020      -10.47070        5.31170
C          2.44680       -8.50090        2.45190
C          4.50650       -6.35950        3.39880
S          4.68840       -7.62190        4.58550
C          3.11540       -5.19640        0.14200
C          3.17640       -3.93290       -0.37380
S          4.10020       -2.84500        0.64690
C          2.51190       -3.43240       -1.53100
C          1.94420       -4.14840       -2.56880
C          2.12770       -5.58590       -2.79460
C          3.40940       -6.11740       -2.91040
C          3.57350       -7.46900       -3.14130
C          2.46930       -8.29870       -3.23770
C          1.18510       -7.78520       -3.11890
C         -0.01220       -8.68960       -3.14570
C         -0.43250       -9.04320       -1.71710
C          1.02530       -6.42200       -2.91290
C          1.19570       -3.31010       -3.41650
S          0.22450       -3.62430       -4.83540
C         -0.17300       -1.93930       -4.90490
C         -0.95080       -1.05600       -5.67090
C         -1.70330       -1.26540       -6.84670
C         -2.37040       -0.14920       -7.45170
N         -3.00350       -0.48080       -8.56600
S         -2.78200       -2.06310       -8.82930
N         -1.87010       -2.38640       -7.53090
C         -2.33320        1.10250       -6.79970
C         -3.01080        2.30060       -7.07330
S         -4.11270        2.95390       -8.23880
C         -4.18870        4.43130       -7.30500
C         -4.94090        5.61220       -7.45160
C         -5.95980        5.78330       -8.48530
C         -5.69140        5.43270       -9.80540
C         -6.67430        5.57060      -10.76620
C         -7.92720        6.04750      -10.42230
C         -8.21670        6.39040       -9.10760
C         -9.58500        6.87030       -8.71680
C        -10.44550        5.70170       -8.23300
C         -7.22770        6.24780       -8.14710
C         -4.67410        6.50610       -6.42360
S         -3.52890        5.86180       -5.25300
C         -3.38710        4.40060       -6.16040
C         -2.71370        3.18060       -6.03010
N         -1.85910        2.58750       -5.14120
C         -1.60850        1.30070       -5.58890
C         -0.82820        0.23130       -5.07410
N          0.04250        0.12940       -3.99890
C          0.42790       -1.18010       -3.89910
C          1.21580       -1.96330       -3.04680
S          2.17050       -1.71320       -1.62950
C          0.82520        1.14720       -3.33260
C          1.63080        1.97610       -4.32970
C         -1.67500        3.17900       -3.83530
C         -2.42440        2.40110       -2.75640
C         -5.14590        7.82180       -6.18850
S         -5.10670        8.44170       -4.55420
C         -5.74930        9.99800       -5.04570
C         -5.96290       10.00330       -6.43790
C         -6.41580       10.97960       -7.35800
C         -6.39710       10.53590       -8.64140
C         -6.79560       11.24970       -9.88670
C         -7.26320       12.67940       -9.64310
S         -5.82380        8.88360       -8.78500
C         -5.62110        8.78670       -7.06320
C         -6.02140       11.09690       -4.24120
C         -5.84870       11.26810       -2.88300
C         -5.30750       10.26210       -1.97540
O         -4.93630        9.13120       -2.25770
C         -5.29420       10.87710       -0.63820
C         -4.87620       10.34860        0.54730
C         -4.96260       11.13450        1.71960
C         -4.54790       10.64470        2.97280
C         -4.64440       11.42230        4.09530
C         -5.15960       12.72360        4.01190
C         -5.56980       13.22970        2.80800
C         -5.48440       12.45630        1.63340
C         -5.90750       12.97710        0.38690
C         -5.81360       12.20030       -0.73540
C         -6.16090       12.45970       -2.13180
C         -6.68490       13.63750       -2.61180
C         -7.01750       13.89960       -3.95450
N         -7.30940       14.18940       -5.02890
C         -6.96420       14.76140       -1.80990
N         -7.21470       15.71290       -1.21660
H          6.41530       -5.92600        7.45110
H          4.10370      -11.75480        7.82000
H          6.31530       -9.40410       11.72520
H          5.80530      -12.70860       12.46050
H          3.96250      -11.24880       13.71250
H          3.64180      -13.76280       14.40470
H          2.47800      -15.03530       12.38350
H          2.08010      -13.30450       10.44790
H          2.75120      -10.86190       11.34540
H          1.65450      -11.67160       12.48720
H          4.66410      -13.95390       10.47640
H          6.09490       -4.43990        5.64610
H          7.59530       -3.66340        3.81630
H          8.68450       -1.55860        4.48570
H          7.45520        0.55040        4.43940
H          5.22670        3.36920        3.48140
H          6.51180        2.47510        4.30470
H          7.27310        3.21730        2.03070
H          7.16680        1.45290        2.07830
H          5.89170        2.38970        1.29820
H          3.97180       -1.51250        3.07010
H          4.46310       -7.70500       -0.14780
H          3.57820       -9.85130       -0.97480
H          1.95670      -11.12710        0.38830
H          0.56090       -8.97530        4.51320
H         -0.20050      -10.51090        4.95160
H          2.83330      -10.03440        4.89230
H          2.03280      -11.55350        5.29840
H          1.84200      -10.14110        6.34570
H          2.13490       -8.09760        3.40200
H          2.56410       -5.99490       -0.31860
H          4.26650       -5.46530       -2.82670
H          4.56770       -7.87900       -3.24460
H          2.60380       -9.35630       -3.41350
H         -0.84120       -8.19400       -3.65480
H          0.22590       -9.60550       -3.68950
H          0.38720       -9.52320       -1.18660
H         -1.28440       -9.71870       -1.72640
H         -0.70850       -8.14500       -1.16920
H          0.03200       -6.00530       -2.82630
H         -4.71050        5.07290      -10.07560
H         -6.46150        5.30600      -11.79130
H         -8.68930        6.15480      -11.18080
H        -10.06880        7.34400       -9.57330
H         -9.50160        7.61120       -7.91840
H         -9.98620        5.22540       -7.36970
H        -11.43660        6.04990       -7.95160
H        -10.54830        4.95720       -9.01930
H         -7.44360        6.49660       -7.11730
H          0.19250        1.77500       -2.70470
H          1.51240        0.62080       -2.66550
H          2.32580        1.33600       -4.86840
H          2.19900        2.73880       -3.80380
H          0.98240        2.45820       -5.05760
H         -0.61450        3.27290       -3.60270
H         -2.08060        4.19200       -3.89330
H         -2.10450        1.36220       -2.72490
H         -3.49220        2.42110       -2.96080
H         -2.25040        2.85440       -1.78430
H         -6.73490       11.96480       -7.07220
H         -7.59270       10.67800      -10.37340
H         -5.94500       11.25160      -10.57560
H         -8.13070       12.69510       -8.98860
H         -7.53710       13.14250      -10.58760
H         -6.47320       13.27040       -9.18710
H         -6.42910       11.93640       -4.78820
H         -4.48470        9.34310        0.59300
H         -4.15180        9.64110        3.03090
H         -4.32460       11.03820        5.05260
H         -5.23020       13.32450        4.90640
H         -5.96690       14.23190        2.73870
H         -6.29640       13.98240        0.35680
