213

C          1.07940      -11.96330       -0.87880
C          1.64000      -12.25460        0.32410
C          1.49850      -13.62990        0.88680
O          1.20170      -14.63070        0.27670
C          1.72900      -13.48050        2.33590
C          1.55890      -14.44790        3.32410
C          1.80880      -13.99700        4.59830
C          2.18190      -12.67450        4.87900
C          2.35840      -11.70960        3.91700
C          2.12950      -12.15520        2.61300
C          2.25830      -11.43510        1.35160
C          3.03460      -10.32140        1.16430
C          3.35320       -9.78260       -0.10050
N          3.68590       -9.32030       -1.09690
C          3.65640       -9.59000        2.19430
N          4.17210       -8.91390        2.96680
C          2.24340      -12.92290        6.36450
C          3.64180      -13.07720        7.01130
C          4.56110      -13.58000        5.92560
C          4.22090      -14.83330        5.65590
C          3.06600      -15.20090        6.55450
C          3.42070      -14.37640        7.80230
C          1.84000      -14.39840        6.05140
C          0.78110      -10.67040       -1.38310
C          0.67610       -9.51400       -0.65940
C          0.44400       -8.36530       -1.43840
C          0.46290       -7.03080       -0.99260
C          0.77280       -6.77840        0.42160
C          1.91910       -6.07040        0.77020
C          2.35580       -6.01260        2.07830
C          1.65510       -6.66950        3.08990
O          2.01620       -6.73430        4.37830
C          3.28730       -6.23730        4.77640
C          3.47020       -6.59920        6.24060
C          0.46290       -7.33020        2.74380
C         -0.29090       -8.04250        3.82690
F         -0.66200       -7.24320        4.83720
F          0.42900       -9.04150        4.37830
F         -1.41940       -8.62170        3.37830
C          0.03130       -7.38310        1.43110
C          0.33150       -6.05840       -1.96220
C          0.18970       -6.35820       -3.34430
C          0.18190       -7.69210       -3.78680
C          0.02910       -8.04000       -5.20620
C         -0.95660       -8.94150       -5.59670
C         -1.11770       -9.30650       -6.91760
C         -0.27670       -8.79040       -7.90140
O         -0.33290       -9.07070       -9.21740
C         -1.21400      -10.06930       -9.70210
C         -0.70850      -11.47810       -9.41330
C          0.71730       -7.87840       -7.50570
C          0.86390       -7.50590       -6.18170
C          1.66890       -7.36960       -8.54950
F          2.45890       -6.38400       -8.09420
F          1.05930       -6.87940       -9.63970
F          2.49660       -8.33570       -8.99140
C          0.31740       -8.67260       -2.81560
S          0.47950      -10.38780       -3.09030
C          0.05050       -5.18840       -4.12720
C          0.06430       -4.03070       -3.40090
S          0.28300       -4.34180       -1.68260
C         -0.04590       -2.67780       -3.83560
C         -0.00820       -2.13860       -5.11020
C          0.04360       -2.85190       -6.39180
C          1.06670       -2.56310       -7.28880
C          1.09230       -3.17860       -8.52590
C          0.10710       -4.08430       -8.87450
C         -0.91530       -4.39400       -7.98610
C         -1.99070       -5.37100       -8.36850
C         -3.16820       -4.64660       -9.02280
C         -0.94970       -3.75580       -6.75480
C         -0.02310       -0.73050       -5.06660
S          0.03490        0.47940       -6.32630
C         -0.06940        1.70730       -5.11100
C         -0.13290        3.10700       -5.01540
C         -0.18160        4.09810       -6.01890
C         -0.35030        5.46850       -5.63200
N         -0.42850        6.28290       -6.67310
S         -0.29530        5.40020       -8.02390
N         -0.13490        3.94540       -7.33340
C         -0.36330        5.79060       -4.25810
C         -0.39280        7.03230       -3.60580
S         -0.47640        8.71630       -3.99600
C         -0.34670        9.08920       -2.29280
C         -0.31200       10.30740       -1.59190
C         -0.28530       11.60100       -2.27980
C         -1.24710       11.90420       -3.23720
C         -1.18820       13.10980       -3.91210
C         -0.16860       14.00690       -3.65110
C          0.81220       13.71150       -2.71060
C          1.95420       14.65810       -2.47650
C          3.06040       14.42340       -3.50700
C          0.74380       12.50540       -2.03170
C         -0.23490       10.09630       -0.22170
S         -0.14130        8.38710        0.18590
C         -0.24640        7.95400       -1.48190
C         -0.26750        6.77650       -2.23770
N         -0.16290        5.42830       -2.02160
C         -0.24190        4.79280       -3.24740
C         -0.22910        3.42580       -3.63140
N         -0.24430        2.23910       -2.90810
C         -0.15010        1.20870       -3.80990
C         -0.11730       -0.19080       -3.78250
S         -0.14640       -1.43730       -2.58960
C         -0.86120        1.94980       -1.63070
C         -2.38100        2.07560       -1.71940
C          0.30830        4.95280       -0.74090
C         -0.81270        4.87500        0.29460
C         -0.31970       11.02020        0.85140
C         -0.61360       12.37570        0.80760
C         -0.65540       12.95180        2.06620
S         -1.00100       14.67200        2.30470
C          0.69000       15.28130        2.67010
C          1.60020       15.15140        1.46690
C         -0.44190       12.05200        3.12170
S         -0.13640       10.45660        2.48520
C         -0.50640       12.41990        4.47050
C         -0.45510       11.64180        5.59770
C         -0.44600       10.17500        5.63420
O         -0.25350        9.40880        4.70590
C         -0.74280        9.80010        7.02850
C         -0.92950        8.51520        7.53170
C         -1.22480        8.47810        8.87350
C         -1.33180        9.63410        9.65780
C         -1.14630       10.90810        9.17470
C         -0.83920       10.96740        7.81330
C         -0.57250       12.12190        6.95850
C         -0.36900       13.40820        7.38830
C          0.05190       14.46890        6.56020
N          0.44330       15.36130        5.95160
C         -0.47370       13.82540        8.73070
N         -0.54730       14.23070        9.80260
C         -1.65290        8.85330       10.90730
C         -0.52460        8.66980       11.95200
C          0.77750        8.75080       11.19430
C          0.88290        7.65640       10.45260
C         -0.34620        6.81560       10.69500
C         -0.61720        7.15110       12.17030
C         -1.53000        7.56470       10.03430
H          0.77750      -12.81370       -1.48020
H          1.25550      -15.45180        3.07170
H          2.62090      -10.68950        4.14270
H          1.56600      -12.32630        6.97170
H          3.98260      -12.20580        7.56370
H          5.30260      -12.97270        5.44030
H          4.62200      -15.48300        4.90020
H          2.88400      -16.26360        6.69150
H          4.32540      -14.72800        8.29590
H          2.60840      -14.31150        8.52490
H          0.90430      -14.77120        6.46330
H          0.74910       -9.48800        0.41150
H          2.49890       -5.59030       -0.00340
H          3.26290       -5.47860        2.30730
H          4.06790       -6.70540        4.16590
H          3.31850       -5.14800        4.64180
H          3.45900       -7.67940        6.35480
H          2.66100       -6.17870        6.83160
H          4.41850       -6.21110        6.60040
H         -0.88500       -7.90180        1.19130
H         -1.61830       -9.35810       -4.85210
H         -1.90040      -10.00170       -7.17320
H         -1.23960       -9.89530      -10.78070
H         -2.22390       -9.91860       -9.30260
H         -0.64620      -11.66140       -8.34330
H         -1.38150      -12.20560       -9.85820
H          0.28280      -11.60520       -9.84060
H          1.65150       -6.82180       -5.90600
H         -0.05990       -5.21310       -5.19390
H          1.84090       -1.86440       -7.00990
H          1.88620       -2.95220       -9.22110
H          0.13120       -4.56060       -9.84250
H         -2.33950       -5.90370       -7.47970
H         -1.58350       -6.10330       -9.06830
H         -3.94530       -5.35480       -9.30100
H         -3.59230       -3.91610       -8.33720
H         -2.83770       -4.12390       -9.91720
H         -1.76690       -3.94920       -6.07290
H         -2.04340       11.20370       -3.43730
H         -1.94180       13.34860       -4.64770
H         -0.12850       14.94650       -4.18290
H          1.60150       15.68850       -2.55640
H          2.36050       14.51130       -1.47420
H          3.43650       13.40560       -3.43220
H          2.67880       14.57290       -4.51440
H          3.88540       15.11230       -3.34170
H          1.50280       12.25390       -1.30380
H         -0.59090        0.92090       -1.37900
H         -0.47650        2.59510       -0.84820
H         -2.66420        3.08590       -2.00830
H         -2.77330        1.38490       -2.46230
H         -2.83020        1.84250       -0.75780
H          0.81200        3.99590       -0.88350
H          1.05960        5.66580       -0.38310
H         -1.65250        4.28940       -0.06870
H         -1.17120        5.87430        0.52620
H         -0.43760        4.42780        1.21100
H         -0.79900       12.92770       -0.09460
H          1.07220       14.73790        3.53270
H          0.53940       16.32270        2.94880
H          2.57570       15.57560        1.69650
H          1.73070       14.10450        1.19660
H          1.17890       15.67940        0.61410
H         -0.68640       13.48000        4.61460
H         -0.84450        7.65100        6.89150
H         -1.23930       11.78900        9.78780
H         -2.61510        9.06650       11.36870
H         -0.61130        9.30850       12.82670
H          1.43920        9.59630       11.23060
H          1.65070        7.40460        9.74460
H         -0.27030        5.76510       10.42630
H          0.15650        6.77350       12.83710
H         -1.59550        6.82160       12.51760
H         -2.41150        6.93520        9.92770
