236

C         -2.72940        1.35200        6.53800
C         -2.96410        0.02900        6.76030
C         -2.63570       -1.09530        5.85770
O         -2.36400       -1.04810        4.67420
C         -2.68690       -2.30800        6.69070
C         -2.34870       -3.60390        6.30620
C         -2.49470       -4.54180        7.29980
C         -2.91770       -4.20950        8.59550
C         -3.24970       -2.93530        8.99060
C         -3.13390       -1.97100        7.98490
C         -3.40960       -0.53950        8.02360
C         -4.04350        0.12650        9.03740
C         -4.37550        1.49850        9.02300
N         -4.69070        2.60120        9.08090
C         -4.49990       -0.48240       10.22580
N         -4.89390       -0.91080       11.21510
C         -2.81420       -5.63220        9.08050
C         -1.58120       -6.02410        9.93180
C         -0.46450       -5.09310        9.53000
C         -0.08590       -5.41950        8.30140
C         -0.94170       -6.57670        7.84830
C         -1.15170       -7.29950        9.18850
C         -2.36320       -6.00620        7.63410
C         -2.20840        2.00190        5.39380
C         -1.78000        3.31430        5.42000
C         -1.22400        3.75860        4.20550
C         -0.61880        4.99940        3.90840
C         -0.49440        6.06050        4.91330
C         -0.91820        7.35490        4.63130
C         -0.79100        8.36920        5.56010
C         -0.22990        8.12410        6.80820
S          0.02270        9.31880        8.07580
C         -0.94340       10.76840        7.52890
C         -2.43890       10.54440        7.65010
C          0.20070        6.82170        7.07320
F          0.76620        6.55060        8.26640
C          0.07450        5.80110        6.15890
C         -0.09880        5.14480        2.63370
C         -0.17060        4.12410        1.65170
C         -0.82900        2.91960        1.92310
C         -1.02790        1.88100        0.90290
C         -2.32120        1.44850        0.62550
C         -2.56950        0.51210       -0.35800
C         -1.52550       -0.03770       -1.09300
S         -1.68920       -1.23450       -2.37810
C         -3.49090       -1.40790       -2.61880
C         -4.08020       -0.25940       -3.41460
C         -0.23050        0.37830       -0.77850
C          0.02970        1.32200        0.19050
F          0.80960       -0.15770       -1.45520
C         -1.32410        2.75370        3.20780
S         -2.00260        1.27340        3.81610
C          0.53680        4.47830        0.47840
C          1.14690        5.69370        0.53340
S          0.81580        6.51870        2.04320
C          2.08520        6.08420       -0.49650
C          2.05550        7.02630       -1.50060
C          1.16920        8.18980       -1.51090
C          0.50890        8.57100       -2.67610
C         -0.31100        9.68260       -2.66900
C         -0.47510       10.42440       -1.51170
C          0.18480       10.06510       -0.34380
C         -0.00380       10.84690        0.92470
C         -1.01010       10.14640        1.83810
C          1.00100        8.94400       -0.35440
C          2.95810        6.68670       -2.54350
S          3.19160        7.26860       -4.18460
C          4.18470        5.88280       -4.53510
C          4.63040        5.13160       -5.64420
C          4.34150        5.21900       -7.02890
C          4.37080        4.01490       -7.83030
N          3.92340        4.22030       -9.05650
S          3.51930        5.78180       -9.20990
N          3.88250        6.25730       -7.70450
C          4.83450        2.80710       -7.25580
C          4.74170        1.44050       -7.60700
S          3.79800        0.43040       -8.66350
C          4.08710       -0.93680       -7.60070
C          3.39590       -2.14940       -7.39010
C          2.31040       -2.65960       -8.22890
C          2.30550       -3.99360       -8.63220
C          1.26590       -4.47300       -9.40430
C          0.22450       -3.63660       -9.76940
C          0.21110       -2.30590       -9.37240
C         -0.89870       -1.38110       -9.78160
C         -0.43880       -0.44760      -10.90240
C          1.26520       -1.82570       -8.60910
C          3.77840       -2.75260       -6.20300
S          5.11680       -1.90490       -5.42380
C          5.00260       -0.63830       -6.59230
C          5.35750        0.71280       -6.58400
N          5.84720        1.56010       -5.62100
C          5.43730        2.83510       -5.97300
C          5.17640        3.93070       -5.11860
N          5.06260        3.94250       -3.74600
C          4.42220        5.09890       -3.40350
C          3.70380        5.54050       -2.28680
S          3.30430        4.84400       -0.76460
C          5.18200        2.86680       -2.79030
C          6.35210        3.08650       -1.83460
C          7.02040        1.21400       -4.84710
C          8.19200        0.86060       -5.76210
C          2.98190       -3.57810       -5.35270
C          3.28130       -3.94850       -4.07130
C          2.14270       -4.24400       -3.27920
C          2.08070       -4.49020       -1.89860
C          3.28820       -4.59870       -1.06960
C          4.26040       -3.60010       -1.06800
C          5.39200       -3.72720       -0.29150
C          5.59590       -4.84160        0.52070
S          7.07390       -4.87010        1.49320
C          7.60380       -6.62240        1.45810
C          7.81260       -7.12620        0.04430
C          4.59500       -5.80710        0.54360
F          4.69570       -6.89480        1.34050
C          3.46520       -5.70200       -0.24240
C          0.81530       -4.54920       -1.33190
C         -0.37810       -4.39360       -2.07390
C         -0.31900       -4.22020       -3.46500
C         -1.52090       -4.03730       -4.28730
C         -2.58780       -4.93210       -4.23240
C         -3.68320       -4.77080       -5.05580
C         -3.76500       -3.70560       -5.95090
S         -5.20060       -3.57730       -6.97170
C         -4.50590       -2.95060       -8.55550
C         -5.36550       -3.43820       -9.70430
C         -2.71710       -2.78970       -5.95490
C         -1.60650       -2.95230       -5.15550
F         -2.76720       -1.68670       -6.73670
C          0.94450       -4.13510       -4.02660
S          1.26960       -3.77200       -5.70280
C         -1.51210       -4.27190       -1.22270
C         -1.21820       -4.34330        0.09860
S          0.48930       -4.62330        0.38270
C         -2.14450       -4.08130        1.19800
C         -2.73400       -2.83330        1.25910
C         -3.65770       -2.51300        2.25070
C         -4.02860       -3.45780        3.18530
C         -5.06870       -3.13820        4.17330
O         -5.60870       -2.05330        4.24330
N         -5.45590       -4.17000        5.01850
C         -6.60500       -3.91560        5.88240
C         -6.22790       -3.16840        7.15290
C         -4.83730       -5.40110        5.12300
O         -5.16750       -6.19650        5.98220
C         -3.79720       -5.70250        4.12490
C         -3.20430       -6.94800        4.11250
C         -2.24440       -7.26320        3.14880
C         -1.88680       -6.34360        2.19670
C         -2.46400       -5.05790        2.17910
C         -3.43300       -4.73570        3.16450
H         -2.89420        2.02850        7.36920
H         -1.99700       -3.81010        5.30720
H         -3.57190       -2.69500        9.99010
H         -3.73520       -6.07390        9.45450
H         -1.77650       -6.10690       10.99760
H         -0.11390       -4.28060       10.13950
H          0.64400       -4.93460        7.67950
H         -0.55750       -7.16180        7.01670
H         -1.92900       -8.06130        9.15210
H         -0.23240       -7.72840        9.58480
H         -3.01300       -6.67110        7.07130
H         -1.85580        3.92540        6.30200
H         -1.37550        7.56820        3.67730
H         -1.13000        9.35710        5.29600
H         -0.61540       11.55990        8.20270
H         -0.63850       11.02890        6.51620
H         -2.97350       11.44320        7.34850
H         -2.76490        9.71830        7.02180
H         -2.70020       10.31360        8.68000
H          0.44440        4.81940        6.40990
H         -3.15050        1.86890        1.17300
H         -3.58910        0.21920       -0.54750
H         -3.96260       -1.52990       -1.64430
H         -3.58800       -2.34350       -3.17000
H         -3.60170       -0.19530       -4.38880
H         -3.93950        0.68920       -2.90100
H         -5.14580       -0.42310       -3.56250
H          1.05200        1.59760        0.39820
H          0.60190        3.83880       -0.38340
H          0.62990        7.99130       -3.57810
H         -0.82420        9.97440       -3.57330
H         -1.11490       11.29530       -1.51730
H          0.95070       10.93520        1.44790
H         -0.36110       11.85160        0.69120
H         -1.96980       10.04260        1.33610
H         -0.64600        9.15560        2.09830
H         -1.15620       10.71750        2.75210
H          1.53540        8.66540        0.54290
H          3.11970       -4.64230       -8.34270
H          1.26440       -5.50560       -9.72150
H         -0.58780       -4.02310      -10.36870
H         -1.75730       -1.96180      -10.12520
H         -1.21430       -0.78610       -8.92230
H         -0.13760       -1.02430      -11.77430
H          0.41070        0.14840      -10.57770
H         -1.24420        0.22370      -11.19120
H          1.26000       -0.79680       -8.28110
H          4.25530        2.83800       -2.20660
H          5.26450        1.92010       -3.31900
H          6.19180        3.99100       -1.25340
H          7.29170        3.19030       -2.37260
H          6.43090        2.24650       -1.15070
H          6.78620        0.35600       -4.20740
H          7.29530        2.06860       -4.23090
H          8.41960        1.69320       -6.42450
H          7.95500       -0.01090       -6.36720
H          9.07100        0.63890       -5.16320
H          4.28470       -3.92970       -3.68440
H          4.11470       -2.71380       -1.66590
H          6.14760       -2.95690       -0.29590
H          8.54210       -6.60830        2.01290
H          6.87930       -7.22340        2.00300
H          8.20270       -8.14170        0.07160
H          8.52060       -6.49300       -0.48650
H          6.87450       -7.13400       -0.50780
H          2.72950       -6.49040       -0.20120
H         -2.54130       -5.77740       -3.56260
H         -4.49790       -5.47760       -5.02740
H         -3.49020       -3.33740       -8.62920
H         -4.48400       -1.86250       -8.51380
H         -6.38590       -3.07710       -9.59810
H         -5.38600       -4.52540       -9.73300
H         -4.96280       -3.06990      -10.64570
H         -0.83250       -2.20320       -5.18890
H         -2.51060       -4.11420       -1.58880
H         -2.45480       -2.08680        0.53150
H         -4.09630       -1.52860        2.30050
H         -7.03690       -4.88680        6.13060
H         -7.31720       -3.32420        5.30240
H         -5.79400       -2.20360        6.90200
H         -7.11660       -3.00460        7.75600
H         -5.51190       -3.74540        7.73240
H         -3.50780       -7.67840        4.84730
H         -1.79180       -8.24320        3.15140
H         -1.15390       -6.59790        1.44630
