169

C         -9.33720        1.78350       -1.74480
C        -10.30080        2.38130       -2.50710
C        -10.23330        3.76760       -3.01680
O         -9.43120        4.63090       -2.72010
C        -11.27080        3.85730       -4.06270
C        -11.54610        4.95660       -4.87220
C        -12.54490        4.73980       -5.79090
C        -13.22240        3.51790       -5.89970
C        -12.96310        2.42580       -5.10650
C        -11.94840        2.62560       -4.16630
C        -11.39410        1.70700       -3.17790
C        -11.87630        0.46190       -2.86890
C        -12.95850       -0.16120       -3.52310
N        -13.82740       -0.72600       -4.01730
C        -11.38030       -0.34640       -1.82410
N        -11.04760       -1.04360       -0.97440
C        -14.07350        4.00040       -7.04720
C        -13.69560        3.52440       -8.47190
C        -12.21620        3.23020       -8.44780
C        -11.57500        4.38670       -8.34440
C        -12.60960        5.48390       -8.29700
C        -13.69080        4.87560       -9.20440
C        -13.31950        5.36210       -6.92560
C         -8.36270        2.43570       -0.96070
C         -8.43980        3.58000       -0.16160
C         -9.65630        4.40180        0.07510
C         -9.70180        4.93470        1.50310
N         -7.32740        3.86140        0.51810
C         -6.36310        3.01130        0.32480
S         -6.79840        1.68670       -0.74620
C         -5.09050        3.08370        0.93690
C         -4.61920        4.07000        1.79240
C         -5.30570        5.32950        2.08370
C         -5.53710        5.71270        3.40040
C         -6.16680        6.91490        3.66230
C         -6.54340        7.74710        2.62260
C         -6.29190        7.39120        1.30310
C         -6.68950        8.28910        0.16630
C         -7.96880        7.78950       -0.50590
C         -5.68090        6.17370        1.04550
C         -3.36410        3.72120        2.31570
S         -2.29160        4.52500        3.43680
C         -1.16620        3.22320        3.25220
C          0.06930        2.80510        3.77110
C          0.86760        3.32110        4.81570
C          2.01280        2.57110        5.24880
N          2.62570        3.13390        6.27810
S          1.83510        4.49220        6.66620
N          0.67830        4.41500        5.53630
C          2.38730        1.41680        4.52600
C          3.52180        0.59370        4.61640
S          4.92780        0.39900        5.60770
C          5.47360       -0.86950        4.53620
C          6.61720       -1.68650        4.54160
C          7.62590       -1.62330        5.60640
C          8.29860       -0.43360        5.85950
C          9.25330       -0.38440        6.85930
C          9.53280       -1.50950        7.61380
C          8.85120       -2.70070        7.38970
C          9.11270       -3.90750        8.24430
C          8.22370       -3.87880        9.48900
C          7.89470       -2.74410        6.38650
C          6.63170       -2.53750        3.44680
S          5.20220       -2.35620        2.43930
C          4.59690       -1.11590        3.47560
C          3.47050       -0.28780        3.53330
N          2.32810       -0.08120        2.80490
C          1.63840        0.96200        3.40510
C          0.39420        1.58120        3.12020
N         -0.64880        1.24110        2.28060
C         -1.58920        2.23350        2.35810
C         -2.85750        2.50730        1.83510
S         -3.96500        1.75260        0.74630
C         -0.99340       -0.03850        1.70340
C         -0.93580       -0.02000        0.17670
C          2.30640       -0.50820        1.42190
C          2.78760        0.60930        0.49890
C          7.64280       -3.43560        3.01150
C          8.87970       -3.68070        3.56780
C          9.64230       -4.60230        2.84530
S         11.23310       -5.17440        3.27070
C         11.67310       -4.16620        4.73230
C         12.04010       -2.73830        4.37610
C          8.98820       -5.10320        1.71640
S          7.41110       -4.36570        1.56280
C          9.53830       -5.96290        0.75170
C          8.91090       -6.61140       -0.27250
C          9.67040       -7.01150       -1.48250
O         10.87410       -7.07500       -1.60200
C          8.64490       -7.24570       -2.52170
C          8.85690       -7.50950       -3.87260
C          7.70190       -7.64420       -4.60570
C          6.42510       -7.52790       -4.04050
C          6.19940       -7.27930       -2.70740
C          7.36130       -7.13750       -1.94650
C          7.51790       -6.90120       -0.51330
C          6.57980       -7.18110        0.44890
C          6.88990       -7.24610        1.82280
N          7.11830       -7.36190        2.94250
C          5.24230       -7.52270        0.17710
N          4.13470       -7.77940        0.01270
C          5.73220       -7.75740       -5.36040
C          5.14400       -6.52570       -6.09210
C          5.95480       -5.33440       -5.64620
C          7.16370       -5.44450       -6.18060
C          7.19200       -6.71200       -6.99790
C          5.73710       -6.74770       -7.49260
C          7.15470       -7.88800       -5.99030
H         -9.26570        0.70210       -1.76380
H        -10.99880        5.87930       -4.75800
H        -13.48570        1.48890       -5.20550
H        -15.14860        3.99540       -6.87980
H        -14.33430        2.74050       -8.86990
H        -11.80260        2.23870       -8.45020
H        -10.51870        4.55420       -8.24250
H        -12.25930        6.48450       -8.53690
H        -13.37080        4.79090      -10.24190
H        -14.64430        5.39960       -9.15500
H        -13.90250        6.24750       -6.67960
H         -9.64090        5.23900       -0.63000
H        -10.54500        3.80640       -0.15060
H        -10.57060        5.57490        1.63420
H         -9.76510        4.11340        2.21310
H         -8.80110        5.50260        1.71810
H         -5.23860        5.06320        4.20960
H         -6.35970        7.20760        4.68390
H         -7.02860        8.68850        2.83760
H         -5.88580        8.31680       -0.57310
H         -6.84610        9.30450        0.53610
H         -8.24560        8.44540       -1.32820
H         -7.82410        6.78610       -0.89760
H         -8.78690        7.76690        0.21040
H         -5.47510        5.88350        0.02590
H          8.08320        0.44040        5.26370
H          9.78330        0.53720        7.04840
H         10.28450       -1.46550        8.38880
H          8.90570       -4.81780        7.67750
H         10.16100       -3.92400        8.55140
H          7.17440       -3.88100        9.20320
H          8.41740       -2.98150       10.07240
H          8.41610       -4.74830       10.11260
H          7.35250       -3.66050        6.19890
H         -2.01940       -0.27350        2.00890
H         -0.34330       -0.80180        2.13270
H         -1.09620       -1.02290       -0.20910
H         -1.71700        0.62480       -0.21630
H          0.02040        0.34980       -0.18250
H          1.31630       -0.84240        1.12680
H          2.98180       -1.36410        1.34770
H          2.78350        0.26680       -0.53230
H          3.80090        0.90440        0.76190
H          2.14330        1.48190        0.58590
H          9.20540       -3.19310        4.46430
H         10.84810       -4.21870        5.44130
H         12.53080       -4.69040        5.15390
H         12.29800       -2.19120        5.28080
H         12.89430       -2.72510        3.70350
H         11.21290       -2.22610        3.89020
H         10.62220       -6.04060        0.76760
H          9.85580       -7.59420       -4.27120
H          5.21440       -7.18590       -2.27960
H          5.07270       -8.62170       -5.40770
H          4.06430       -6.42800       -6.01510
H          5.59630       -4.58810       -4.96140
H          8.01650       -4.80830       -6.03150
H          7.97700       -6.78290       -7.74630
H          5.45350       -7.70040       -7.93770
H          5.50620       -5.93650       -8.18170
H          7.42240       -8.83690       -6.45090
