
  xtb     02242216293D
 energy: -476.247571021403 gnorm: 0.000568271424 xtb: 6.4.1 (unknown)
300333  0     0  0            999 V2000
   16.7501   -5.3204   -3.8913 C   0  0  0  0  0  0  0  0  0  0  0  0
   17.4169   -5.7207   -2.7770 C   0  0  0  0  0  0  0  0  0  0  0  0
   18.8340   -6.1687   -2.8662 C   0  0  0  0  0  0  0  0  0  0  0  0
   19.6041   -5.9652   -3.7768 O   0  0  0  0  0  0  0  0  0  0  0  0
   19.0644   -6.9630   -1.6425 C   0  0  0  0  0  0  0  0  0  0  0  0
   20.2035   -7.6947   -1.3132 C   0  0  0  0  0  0  0  0  0  0  0  0
   20.1205   -8.3511   -0.1086 C   0  0  0  0  0  0  0  0  0  0  0  0
   18.9872   -8.2901    0.7144 C   0  0  0  0  0  0  0  0  0  0  0  0
   17.8599   -7.5661    0.4091 C   0  0  0  0  0  0  0  0  0  0  0  0
   17.9256   -6.8896   -0.8113 C   0  0  0  0  0  0  0  0  0  0  0  0
   16.9630   -5.9834   -1.4259 C   0  0  0  0  0  0  0  0  0  0  0  0
   15.9719   -5.3049   -0.7652 C   0  0  0  0  0  0  0  0  0  0  0  0
   15.3251   -4.1732   -1.3082 C   0  0  0  0  0  0  0  0  0  0  0  0
   14.8263   -3.2074   -1.6780 N   0  0  0  0  0  0  0  0  0  0  0  0
   15.5109   -5.6184    0.5263 C   0  0  0  0  0  0  0  0  0  0  0  0
   15.0454   -5.8630    1.5479 N   0  0  0  0  0  0  0  0  0  0  0  0
   19.5954   -9.1950    1.7556 C   0  0  0  0  0  0  0  0  0  0  0  0
   19.1232  -10.6694    1.7966 C   0  0  0  0  0  0  0  0  0  0  0  0
   18.6649  -11.0125    0.4009 C   0  0  0  0  0  0  0  0  0  0  0  0
   19.7390  -11.0697   -0.3752 C   0  0  0  0  0  0  0  0  0  0  0  0
   20.9430  -10.7656    0.4815 C   0  0  0  0  0  0  0  0  0  0  0  0
   20.4872  -11.3775    1.8159 C   0  0  0  0  0  0  0  0  0  0  0  0
   20.8591   -9.2613    0.8411 C   0  0  0  0  0  0  0  0  0  0  0  0
   15.3454   -5.2444   -4.0866 C   0  0  0  0  0  0  0  0  0  0  0  0
   14.6861   -4.5167   -5.0448 C   0  0  0  0  0  0  0  0  0  0  0  0
   13.2777   -4.5915   -4.9519 C   0  0  0  0  0  0  0  0  0  0  0  0
   12.3038   -3.9196   -5.7177 C   0  0  0  0  0  0  0  0  0  0  0  0
   12.6805   -3.0934   -6.8694 C   0  0  0  0  0  0  0  0  0  0  0  0
   13.5333   -3.5908   -7.8547 C   0  0  0  0  0  0  0  0  0  0  0  0
   13.8560   -2.8264   -8.9546 C   0  0  0  0  0  0  0  0  0  0  0  0
   13.3598   -1.5330   -9.1118 C   0  0  0  0  0  0  0  0  0  0  0  0
   13.8810   -0.6400  -10.5456 S   0  0  0  0  0  0  0  0  0  0  0  0
   12.3998    0.3099  -11.0519 C   0  0  0  0  0  0  0  0  0  0  0  0
   11.2092   -0.5903  -11.3138 C   0  0  0  0  0  0  0  0  0  0  0  0
   12.5385   -1.0378   -8.1033 C   0  0  0  0  0  0  0  0  0  0  0  0
   12.0559    0.2233   -8.1580 F   0  0  0  0  0  0  0  0  0  0  0  0
   12.1855   -1.8013   -7.0095 C   0  0  0  0  0  0  0  0  0  0  0  0
   10.9846   -4.0861   -5.3296 C   0  0  0  0  0  0  0  0  0  0  0  0
   10.5852   -4.8884   -4.2274 C   0  0  0  0  0  0  0  0  0  0  0  0
   11.5543   -5.5644   -3.4701 C   0  0  0  0  0  0  0  0  0  0  0  0
   11.2451   -6.3297   -2.2549 C   0  0  0  0  0  0  0  0  0  0  0  0
   11.8916   -5.9914   -1.0681 C   0  0  0  0  0  0  0  0  0  0  0  0
   11.6946   -6.7178    0.0877 C   0  0  0  0  0  0  0  0  0  0  0  0
   10.8456   -7.8194    0.0943 C   0  0  0  0  0  0  0  0  0  0  0  0
   10.5437   -8.8464    1.4918 S   0  0  0  0  0  0  0  0  0  0  0  0
   11.9261   -8.4613    2.6226 C   0  0  0  0  0  0  0  0  0  0  0  0
   13.2626   -8.9390    2.0894 C   0  0  0  0  0  0  0  0  0  0  0  0
   10.1711   -8.1199   -1.0908 C   0  0  0  0  0  0  0  0  0  0  0  0
   10.3544   -7.3984   -2.2507 C   0  0  0  0  0  0  0  0  0  0  0  0
    9.3190   -9.1653   -1.1133 F   0  0  0  0  0  0  0  0  0  0  0  0
   12.8684   -5.4093   -3.8696 C   0  0  0  0  0  0  0  0  0  0  0  0
   14.2274   -6.1614   -3.0887 S   0  0  0  0  0  0  0  0  0  0  0  0
    9.1908   -4.8442   -4.0098 C   0  0  0  0  0  0  0  0  0  0  0  0
    8.5187   -4.0582   -4.9041 C   0  0  0  0  0  0  0  0  0  0  0  0
    9.5976   -3.3421   -6.0882 S   0  0  0  0  0  0  0  0  0  0  0  0
    7.1354   -3.7442   -4.9078 C   0  0  0  0  0  0  0  0  0  0  0  0
    6.0771   -4.5116   -3.7263 S   0  0  0  0  0  0  0  0  0  0  0  0
    4.7575   -3.5574   -4.2864 C   0  0  0  0  0  0  0  0  0  0  0  0
    3.4212   -3.2821   -4.0115 C   0  0  0  0  0  0  0  0  0  0  0  0
    2.1856   -3.7581   -2.8958 S   0  0  0  0  0  0  0  0  0  0  0  0
    1.1434   -2.5749   -3.6138 C   0  0  0  0  0  0  0  0  0  0  0  0
   -0.1574   -2.0882   -3.2810 C   0  0  0  0  0  0  0  0  0  0  0  0
   -1.0147   -2.4374   -2.2417 C   0  0  0  0  0  0  0  0  0  0  0  0
   -2.1392   -1.6671   -2.0669 C   0  0  0  0  0  0  0  0  0  0  0  0
   -3.1938   -1.7600   -0.9663 C   0  0  0  0  0  0  0  0  0  0  0  0
   -4.0973   -2.9521   -1.2380 C   0  0  0  0  0  0  0  0  0  0  0  0
   -3.5660   -4.2376   -1.2693 C   0  0  0  0  0  0  0  0  0  0  0  0
   -4.3704   -5.3320   -1.5196 C   0  0  0  0  0  0  0  0  0  0  0  0
   -5.7326   -5.1818   -1.7460 C   0  0  0  0  0  0  0  0  0  0  0  0
   -6.5968   -6.3681   -2.0617 C   0  0  0  0  0  0  0  0  0  0  0  0
   -6.6219   -6.6230   -3.5702 C   0  0  0  0  0  0  0  0  0  0  0  0
   -6.2610   -3.8999   -1.7188 C   0  0  0  0  0  0  0  0  0  0  0  0
   -5.4579   -2.8008   -1.4696 C   0  0  0  0  0  0  0  0  0  0  0  0
   -2.5272   -1.8034    0.3962 C   0  0  0  0  0  0  0  0  0  0  0  0
   -2.8164   -2.7607    1.3577 C   0  0  0  0  0  0  0  0  0  0  0  0
   -2.1760   -2.7390    2.5845 C   0  0  0  0  0  0  0  0  0  0  0  0
   -1.2359   -1.7644    2.8860 C   0  0  0  0  0  0  0  0  0  0  0  0
   -0.5819   -1.7167    4.2364 C   0  0  0  0  0  0  0  0  0  0  0  0
   -1.4201   -0.8812    5.2062 C   0  0  0  0  0  0  0  0  0  0  0  0
   -0.9550   -0.8017    1.9237 C   0  0  0  0  0  0  0  0  0  0  0  0
   -1.5898   -0.8204    0.6976 C   0  0  0  0  0  0  0  0  0  0  0  0
   -3.9192   -0.4491   -1.1681 C   0  0  0  0  0  0  0  0  0  0  0  0
   -3.4695    0.1730   -2.3191 C   0  0  0  0  0  0  0  0  0  0  0  0
   -2.3775   -0.5473   -2.8953 C   0  0  0  0  0  0  0  0  0  0  0  0
   -1.5452   -0.2284   -3.9650 C   0  0  0  0  0  0  0  0  0  0  0  0
   -0.4346   -1.0164   -4.1550 C   0  0  0  0  0  0  0  0  0  0  0  0
    0.6862   -0.8536   -5.1804 C   0  0  0  0  0  0  0  0  0  0  0  0
    0.1175   -1.2394   -6.5335 C   0  0  0  0  0  0  0  0  0  0  0  0
   -0.7683   -0.3888   -7.1868 C   0  0  0  0  0  0  0  0  0  0  0  0
   -1.3160   -0.7390   -8.4055 C   0  0  0  0  0  0  0  0  0  0  0  0
   -1.0082   -1.9534   -9.0056 C   0  0  0  0  0  0  0  0  0  0  0  0
   -1.5613   -2.3086  -10.3553 C   0  0  0  0  0  0  0  0  0  0  0  0
   -0.6240   -1.8198  -11.4617 C   0  0  0  0  0  0  0  0  0  0  0  0
   -0.1419   -2.8102   -8.3425 C   0  0  0  0  0  0  0  0  0  0  0  0
    0.4098   -2.4626   -7.1218 C   0  0  0  0  0  0  0  0  0  0  0  0
    1.2713    0.5446   -5.1253 C   0  0  0  0  0  0  0  0  0  0  0  0
    1.5917    1.2773   -6.2610 C   0  0  0  0  0  0  0  0  0  0  0  0
    2.1532    2.5377   -6.1490 C   0  0  0  0  0  0  0  0  0  0  0  0
    2.4154    3.0978   -4.9071 C   0  0  0  0  0  0  0  0  0  0  0  0
    3.0670    4.4454   -4.7929 C   0  0  0  0  0  0  0  0  0  0  0  0
    4.5903    4.3020   -4.7849 C   0  0  0  0  0  0  0  0  0  0  0  0
    2.1066    2.3563   -3.7734 C   0  0  0  0  0  0  0  0  0  0  0  0
    1.5446    1.0993   -3.8796 C   0  0  0  0  0  0  0  0  0  0  0  0
    1.6927   -1.8612   -4.6647 C   0  0  0  0  0  0  0  0  0  0  0  0
    3.0153   -2.2595   -4.9077 C   0  0  0  0  0  0  0  0  0  0  0  0
    4.0729   -1.9217   -5.7132 N   0  0  0  0  0  0  0  0  0  0  0  0
    5.1355   -2.7055   -5.3461 C   0  0  0  0  0  0  0  0  0  0  0  0
    6.4821   -2.8234   -5.6988 C   0  0  0  0  0  0  0  0  0  0  0  0
    4.1053   -0.9450   -6.7711 C   0  0  0  0  0  0  0  0  0  0  0  0
    3.7350   -1.5513   -8.1231 C   0  0  0  0  0  0  0  0  0  0  0  0
   -4.2109    1.7062   -2.6576 S   0  0  0  0  0  0  0  0  0  0  0  0
   -5.1402    1.5382   -1.2043 C   0  0  0  0  0  0  0  0  0  0  0  0
   -6.0608    2.2511   -0.4378 C   0  0  0  0  0  0  0  0  0  0  0  0
   -6.8974    3.7563   -0.3855 S   0  0  0  0  0  0  0  0  0  0  0  0
   -7.5569    3.3468    1.1950 C   0  0  0  0  0  0  0  0  0  0  0  0
   -7.1838    2.0836    1.6142 C   0  0  0  0  0  0  0  0  0  0  0  0
   -6.3321    1.4635    0.7011 C   0  0  0  0  0  0  0  0  0  0  0  0
   -5.6332    0.2867    0.6321 N   0  0  0  0  0  0  0  0  0  0  0  0
   -5.6087   -0.7175    1.6636 C   0  0  0  0  0  0  0  0  0  0  0  0
   -4.7447   -0.2867    2.8464 C   0  0  0  0  0  0  0  0  0  0  0  0
   -4.8790    0.3291   -0.5117 C   0  0  0  0  0  0  0  0  0  0  0  0
   -8.3955    4.2258    1.9280 C   0  0  0  0  0  0  0  0  0  0  0  0
   -8.6397    5.5885    1.7926 C   0  0  0  0  0  0  0  0  0  0  0  0
   -8.0421    6.4489    0.8819 N   0  0  0  0  0  0  0  0  0  0  0  0
   -6.6521    6.4663    0.7210 C   0  0  0  0  0  0  0  0  0  0  0  0
   -6.0935    6.8531   -0.4973 C   0  0  0  0  0  0  0  0  0  0  0  0
   -4.7267    6.8230   -0.6747 C   0  0  0  0  0  0  0  0  0  0  0  0
   -3.8771    6.4025    0.3433 C   0  0  0  0  0  0  0  0  0  0  0  0
   -2.3976    6.3341    0.1166 C   0  0  0  0  0  0  0  0  0  0  0  0
   -4.4396    6.0337    1.5575 C   0  0  0  0  0  0  0  0  0  0  0  0
   -5.8064    6.0699    1.7536 C   0  0  0  0  0  0  0  0  0  0  0  0
   -8.8483    7.4481    0.3165 C   0  0  0  0  0  0  0  0  0  0  0  0
  -10.1403    7.1352   -0.1002 C   0  0  0  0  0  0  0  0  0  0  0  0
  -10.9546    8.1122   -0.6366 C   0  0  0  0  0  0  0  0  0  0  0  0
  -10.5060    9.4188   -0.7815 C   0  0  0  0  0  0  0  0  0  0  0  0
  -11.4008   10.4814   -1.3422 C   0  0  0  0  0  0  0  0  0  0  0  0
   -9.2136    9.7213   -0.3683 C   0  0  0  0  0  0  0  0  0  0  0  0
   -8.3924    8.7564    0.1785 C   0  0  0  0  0  0  0  0  0  0  0  0
   -9.5645    6.0355    2.7646 C   0  0  0  0  0  0  0  0  0  0  0  0
  -10.2820    7.5634    3.0952 S   0  0  0  0  0  0  0  0  0  0  0  0
  -11.0744    6.9120    4.5359 C   0  0  0  0  0  0  0  0  0  0  0  0
  -10.8532    5.5266    4.6724 C   0  0  0  0  0  0  0  0  0  0  0  0
  -11.4488    4.6964    5.5930 N   0  0  0  0  0  0  0  0  0  0  0  0
  -10.8422    3.4529    5.8929 C   0  0  0  0  0  0  0  0  0  0  0  0
   -9.4973    3.3838    6.2432 C   0  0  0  0  0  0  0  0  0  0  0  0
   -8.9233    2.1651    6.5463 C   0  0  0  0  0  0  0  0  0  0  0  0
   -9.6654    0.9913    6.5080 C   0  0  0  0  0  0  0  0  0  0  0  0
   -9.0369   -0.3215    6.8599 C   0  0  0  0  0  0  0  0  0  0  0  0
  -11.0074    1.0707    6.1562 C   0  0  0  0  0  0  0  0  0  0  0  0
  -11.5935    2.2825    5.8498 C   0  0  0  0  0  0  0  0  0  0  0  0
  -12.7567    4.9083    6.0577 C   0  0  0  0  0  0  0  0  0  0  0  0
  -13.1125    4.4701    7.3329 C   0  0  0  0  0  0  0  0  0  0  0  0
  -14.3912    4.6771    7.8101 C   0  0  0  0  0  0  0  0  0  0  0  0
  -15.3449    5.3389    7.0462 C   0  0  0  0  0  0  0  0  0  0  0  0
  -16.7108    5.6223    7.5880 C   0  0  0  0  0  0  0  0  0  0  0  0
  -14.9904    5.7485    5.7658 C   0  0  0  0  0  0  0  0  0  0  0  0
  -13.7221    5.5286    5.2690 C   0  0  0  0  0  0  0  0  0  0  0  0
   -9.9829    5.0640    3.6638 C   0  0  0  0  0  0  0  0  0  0  0  0
   -9.2735    3.5303    3.2896 S   0  0  0  0  0  0  0  0  0  0  0  0
  -11.8002    7.8331    5.3028 C   0  0  0  0  0  0  0  0  0  0  0  0
  -12.2076    7.7779    6.6135 C   0  0  0  0  0  0  0  0  0  0  0  0
  -13.3660    8.5820    7.0603 C   0  0  0  0  0  0  0  0  0  0  0  0
  -13.9655    9.4214    6.4219 O   0  0  0  0  0  0  0  0  0  0  0  0
  -13.6717    8.1084    8.4275 C   0  0  0  0  0  0  0  0  0  0  0  0
  -14.7095    8.5301    9.2552 C   0  0  0  0  0  0  0  0  0  0  0  0
  -14.7160    7.9366   10.4953 C   0  0  0  0  0  0  0  0  0  0  0  0
  -13.7551    6.9977   10.8900 C   0  0  0  0  0  0  0  0  0  0  0  0
  -12.7260    6.5722   10.0840 C   0  0  0  0  0  0  0  0  0  0  0  0
  -12.7107    7.1549    8.8150 C   0  0  0  0  0  0  0  0  0  0  0  0
  -11.7509    6.9947    7.7230 C   0  0  0  0  0  0  0  0  0  0  0  0
  -10.5099    6.4018    7.8276 C   0  0  0  0  0  0  0  0  0  0  0  0
  -10.1129    5.5612    8.8802 C   0  0  0  0  0  0  0  0  0  0  0  0
   -9.7525    4.8159    9.6782 N   0  0  0  0  0  0  0  0  0  0  0  0
   -9.4729    6.6425    6.9125 C   0  0  0  0  0  0  0  0  0  0  0  0
   -8.5773    6.8528    6.2226 N   0  0  0  0  0  0  0  0  0  0  0  0
  -14.3511    6.8463   12.2687 C   0  0  0  0  0  0  0  0  0  0  0  0
  -15.1889    5.5781   12.5327 C   0  0  0  0  0  0  0  0  0  0  0  0
  -16.0148    5.9342   13.7474 C   0  0  0  0  0  0  0  0  0  0  0  0
  -16.9295    6.8177   13.3685 C   0  0  0  0  0  0  0  0  0  0  0  0
  -16.7364    7.0743   11.8913 C   0  0  0  0  0  0  0  0  0  0  0  0
  -16.2608    5.6874   11.4414 C   0  0  0  0  0  0  0  0  0  0  0  0
  -15.4273    7.8893   11.8265 C   0  0  0  0  0  0  0  0  0  0  0  0
   17.3658   -5.0931   -4.7558 H   0  0  0  0  0  0  0  0  0  0  0  0
   21.0586   -7.7150   -1.9705 H   0  0  0  0  0  0  0  0  0  0  0  0
   16.9902   -7.5254    1.0446 H   0  0  0  0  0  0  0  0  0  0  0  0
   19.7075   -8.7677    2.7501 H   0  0  0  0  0  0  0  0  0  0  0  0
   18.4282  -10.8984    2.6002 H   0  0  0  0  0  0  0  0  0  0  0  0
   17.6340  -11.1184    0.1178 H   0  0  0  0  0  0  0  0  0  0  0  0
   19.7843  -11.2331   -1.4360 H   0  0  0  0  0  0  0  0  0  0  0  0
   21.9050  -11.0829    0.0881 H   0  0  0  0  0  0  0  0  0  0  0  0
   20.3993  -12.4621    1.7736 H   0  0  0  0  0  0  0  0  0  0  0  0
   21.1125  -11.0917    2.6606 H   0  0  0  0  0  0  0  0  0  0  0  0
   21.7961   -8.8767    1.2390 H   0  0  0  0  0  0  0  0  0  0  0  0
   15.2022   -3.8889   -5.7495 H   0  0  0  0  0  0  0  0  0  0  0  0
   13.9146   -4.5972   -7.7714 H   0  0  0  0  0  0  0  0  0  0  0  0
   14.5022   -3.2207   -9.7235 H   0  0  0  0  0  0  0  0  0  0  0  0
   12.7258    0.8064  -11.9659 H   0  0  0  0  0  0  0  0  0  0  0  0
   12.1847    1.0628  -10.2971 H   0  0  0  0  0  0  0  0  0  0  0  0
   10.3806    0.0018  -11.6972 H   0  0  0  0  0  0  0  0  0  0  0  0
   11.4620   -1.3543  -12.0461 H   0  0  0  0  0  0  0  0  0  0  0  0
   10.8847   -1.0826  -10.3988 H   0  0  0  0  0  0  0  0  0  0  0  0
   11.5523   -1.3614   -6.2553 H   0  0  0  0  0  0  0  0  0  0  0  0
   12.5450   -5.1320   -1.0431 H   0  0  0  0  0  0  0  0  0  0  0  0
   12.2139   -6.4153    0.9821 H   0  0  0  0  0  0  0  0  0  0  0  0
   11.9236   -7.3925    2.8299 H   0  0  0  0  0  0  0  0  0  0  0  0
   11.6587   -8.9932    3.5359 H   0  0  0  0  0  0  0  0  0  0  0  0
   13.5076   -8.4454    1.1514 H   0  0  0  0  0  0  0  0  0  0  0  0
   14.0453   -8.7102    2.8095 H   0  0  0  0  0  0  0  0  0  0  0  0
   13.2403  -10.0134    1.9208 H   0  0  0  0  0  0  0  0  0  0  0  0
    9.8285   -7.6929   -3.1456 H   0  0  0  0  0  0  0  0  0  0  0  0
    8.6988   -5.3552   -3.2018 H   0  0  0  0  0  0  0  0  0  0  0  0
   -0.7506   -3.2438   -1.5753 H   0  0  0  0  0  0  0  0  0  0  0  0
   -2.5144   -4.3900   -1.0866 H   0  0  0  0  0  0  0  0  0  0  0  0
   -3.9329   -6.3202   -1.5358 H   0  0  0  0  0  0  0  0  0  0  0  0
   -6.2099   -7.2540   -1.5539 H   0  0  0  0  0  0  0  0  0  0  0  0
   -7.6150   -6.1892   -1.7102 H   0  0  0  0  0  0  0  0  0  0  0  0
   -7.0159   -5.7547   -4.0937 H   0  0  0  0  0  0  0  0  0  0  0  0
   -7.2473   -7.4822   -3.8010 H   0  0  0  0  0  0  0  0  0  0  0  0
   -5.6164   -6.8152   -3.9377 H   0  0  0  0  0  0  0  0  0  0  0  0
   -7.3177   -3.7537   -1.8930 H   0  0  0  0  0  0  0  0  0  0  0  0
   -5.9076   -1.8194   -1.4609 H   0  0  0  0  0  0  0  0  0  0  0  0
   -3.5420   -3.5353    1.1560 H   0  0  0  0  0  0  0  0  0  0  0  0
   -2.4116   -3.4972    3.3180 H   0  0  0  0  0  0  0  0  0  0  0  0
   -0.4755   -2.7285    4.6326 H   0  0  0  0  0  0  0  0  0  0  0  0
    0.4136   -1.2770    4.1502 H   0  0  0  0  0  0  0  0  0  0  0  0
   -1.5360    0.1331    4.8305 H   0  0  0  0  0  0  0  0  0  0  0  0
   -0.9423   -0.8378    6.1819 H   0  0  0  0  0  0  0  0  0  0  0  0
   -2.4101   -1.3163    5.3234 H   0  0  0  0  0  0  0  0  0  0  0  0
   -0.2279   -0.0310    2.1368 H   0  0  0  0  0  0  0  0  0  0  0  0
   -1.3572   -0.0659   -0.0407 H   0  0  0  0  0  0  0  0  0  0  0  0
   -1.7502    0.6407   -4.5702 H   0  0  0  0  0  0  0  0  0  0  0  0
   -1.0278    0.5605   -6.7435 H   0  0  0  0  0  0  0  0  0  0  0  0
   -1.9980   -0.0595   -8.8966 H   0  0  0  0  0  0  0  0  0  0  0  0
   -1.6775   -3.3913  -10.4346 H   0  0  0  0  0  0  0  0  0  0  0  0
   -2.5428   -1.8487  -10.4858 H   0  0  0  0  0  0  0  0  0  0  0  0
   -0.5062   -0.7397  -11.4079 H   0  0  0  0  0  0  0  0  0  0  0  0
   -1.0229   -2.0772  -12.4400 H   0  0  0  0  0  0  0  0  0  0  0  0
    0.3577   -2.2767  -11.3556 H   0  0  0  0  0  0  0  0  0  0  0  0
    0.1046   -3.7663   -8.7826 H   0  0  0  0  0  0  0  0  0  0  0  0
    1.0677   -3.1598   -6.6238 H   0  0  0  0  0  0  0  0  0  0  0  0
    1.3971    0.8718   -7.2437 H   0  0  0  0  0  0  0  0  0  0  0  0
    2.3893    3.0932   -7.0458 H   0  0  0  0  0  0  0  0  0  0  0  0
    2.7467    4.9344   -3.8709 H   0  0  0  0  0  0  0  0  0  0  0  0
    2.7692    5.0737   -5.6348 H   0  0  0  0  0  0  0  0  0  0  0  0
    5.0640    5.2768   -4.6967 H   0  0  0  0  0  0  0  0  0  0  0  0
    4.9077    3.6842   -3.9477 H   0  0  0  0  0  0  0  0  0  0  0  0
    4.9315    3.8321   -5.7048 H   0  0  0  0  0  0  0  0  0  0  0  0
    2.3057    2.7701   -2.7952 H   0  0  0  0  0  0  0  0  0  0  0  0
    1.3105    0.5384   -2.9860 H   0  0  0  0  0  0  0  0  0  0  0  0
    6.9837   -2.2665   -6.4699 H   0  0  0  0  0  0  0  0  0  0  0  0
    3.4145   -0.1386   -6.5171 H   0  0  0  0  0  0  0  0  0  0  0  0
    5.1183   -0.5344   -6.8122 H   0  0  0  0  0  0  0  0  0  0  0  0
    3.8235   -0.7974   -8.9006 H   0  0  0  0  0  0  0  0  0  0  0  0
    4.3991   -2.3791   -8.3618 H   0  0  0  0  0  0  0  0  0  0  0  0
    2.7105   -1.9160   -8.1076 H   0  0  0  0  0  0  0  0  0  0  0  0
   -7.5044    1.6699    2.5534 H   0  0  0  0  0  0  0  0  0  0  0  0
   -6.6375   -0.8902    1.9967 H   0  0  0  0  0  0  0  0  0  0  0  0
   -5.2204   -1.6409    1.2304 H   0  0  0  0  0  0  0  0  0  0  0  0
   -4.7371   -1.0674    3.6015 H   0  0  0  0  0  0  0  0  0  0  0  0
   -3.7229   -0.1100    2.5208 H   0  0  0  0  0  0  0  0  0  0  0  0
   -5.1346    0.6275    3.2873 H   0  0  0  0  0  0  0  0  0  0  0  0
   -6.7418    7.1566   -1.3055 H   0  0  0  0  0  0  0  0  0  0  0  0
   -4.3096    7.1157   -1.6275 H   0  0  0  0  0  0  0  0  0  0  0  0
   -1.8660    6.1933    1.0545 H   0  0  0  0  0  0  0  0  0  0  0  0
   -2.0382    7.2456   -0.3578 H   0  0  0  0  0  0  0  0  0  0  0  0
   -2.1589    5.4990   -0.5427 H   0  0  0  0  0  0  0  0  0  0  0  0
   -3.8001    5.7158    2.3688 H   0  0  0  0  0  0  0  0  0  0  0  0
   -6.2215    5.7888    2.7102 H   0  0  0  0  0  0  0  0  0  0  0  0
  -10.4977    6.1198   -0.0046 H   0  0  0  0  0  0  0  0  0  0  0  0
  -11.9546    7.8534   -0.9542 H   0  0  0  0  0  0  0  0  0  0  0  0
  -10.8228   11.2394   -1.8659 H   0  0  0  0  0  0  0  0  0  0  0  0
  -12.1286   10.0545   -2.0285 H   0  0  0  0  0  0  0  0  0  0  0  0
  -11.9457   10.9721   -0.5349 H   0  0  0  0  0  0  0  0  0  0  0  0
   -8.8475   10.7332   -0.4657 H   0  0  0  0  0  0  0  0  0  0  0  0
   -7.3973    9.0121    0.5104 H   0  0  0  0  0  0  0  0  0  0  0  0
   -8.9014    4.2821    6.2785 H   0  0  0  0  0  0  0  0  0  0  0  0
   -7.8800    2.1295    6.8225 H   0  0  0  0  0  0  0  0  0  0  0  0
   -9.0484   -0.4595    7.9414 H   0  0  0  0  0  0  0  0  0  0  0  0
   -8.0008   -0.3549    6.5303 H   0  0  0  0  0  0  0  0  0  0  0  0
   -9.5806   -1.1475    6.4075 H   0  0  0  0  0  0  0  0  0  0  0  0
  -11.6033    0.1704    6.1146 H   0  0  0  0  0  0  0  0  0  0  0  0
  -12.6361    2.3276    5.5706 H   0  0  0  0  0  0  0  0  0  0  0  0
  -12.3800    3.9686    7.9487 H   0  0  0  0  0  0  0  0  0  0  0  0
  -14.6437    4.3282    8.8008 H   0  0  0  0  0  0  0  0  0  0  0  0
  -17.0272    4.8437    8.2785 H   0  0  0  0  0  0  0  0  0  0  0  0
  -16.7022    6.5714    8.1260 H   0  0  0  0  0  0  0  0  0  0  0  0
  -17.4381    5.7000    6.7836 H   0  0  0  0  0  0  0  0  0  0  0  0
  -15.7204    6.2450    5.1441 H   0  0  0  0  0  0  0  0  0  0  0  0
  -13.4800    5.8365    4.2632 H   0  0  0  0  0  0  0  0  0  0  0  0
  -12.1328    8.7173    4.7662 H   0  0  0  0  0  0  0  0  0  0  0  0
  -15.4156    9.2751    8.9221 H   0  0  0  0  0  0  0  0  0  0  0  0
  -11.9884    5.8520   10.3985 H   0  0  0  0  0  0  0  0  0  0  0  0
  -13.6920    7.1009   13.0967 H   0  0  0  0  0  0  0  0  0  0  0  0
  -14.6161    4.6559   12.5837 H   0  0  0  0  0  0  0  0  0  0  0  0
  -15.8188    5.5631   14.7363 H   0  0  0  0  0  0  0  0  0  0  0  0
  -17.6495    7.3319   13.9779 H   0  0  0  0  0  0  0  0  0  0  0  0
  -17.5755    7.5139   11.3582 H   0  0  0  0  0  0  0  0  0  0  0  0
  -17.0371    4.9305   11.5453 H   0  0  0  0  0  0  0  0  0  0  0  0
  -15.8593    5.6692   10.4310 H   0  0  0  0  0  0  0  0  0  0  0  0
  -15.4878    8.8333   12.3653 H   0  0  0  0  0  0  0  0  0  0  0  0
  1  2  2  0  0  0  0
  2  3  1  0  0  0  0
  3  4  2  0  0  0  0
  3  5  1  0  0  0  0
  5  6  2  0  0  0  0
  6  7  1  0  0  0  0
  7  8  2  0  0  0  0
  8  9  1  0  0  0  0
  9 10  2  0  0  0  0
 10 11  1  0  0  0  0
 11 12  2  0  0  0  0
 12 13  1  0  0  0  0
 13 14  3  0  0  0  0
 12 15  1  0  0  0  0
 15 16  3  0  0  0  0
  8 17  1  0  0  0  0
 17 18  1  0  0  0  0
 18 19  1  0  0  0  0
 19 20  2  0  0  0  0
 20 21  1  0  0  0  0
 21 22  1  0  0  0  0
 21 23  1  0  0  0  0
  1 24  1  0  0  0  0
 24 25  2  0  0  0  0
 25 26  1  0  0  0  0
 26 27  2  0  0  0  0
 27 28  1  0  0  0  0
 28 29  2  0  0  0  0
 29 30  1  0  0  0  0
 30 31  2  0  0  0  0
 31 32  1  0  0  0  0
 32 33  1  0  0  0  0
 33 34  1  0  0  0  0
 31 35  1  0  0  0  0
 35 36  1  0  0  0  0
 35 37  2  0  0  0  0
 27 38  1  0  0  0  0
 38 39  2  0  0  0  0
 39 40  1  0  0  0  0
 40 41  1  0  0  0  0
 41 42  2  0  0  0  0
 42 43  1  0  0  0  0
 43 44  2  0  0  0  0
 44 45  1  0  0  0  0
 45 46  1  0  0  0  0
 46 47  1  0  0  0  0
 44 48  1  0  0  0  0
 48 49  2  0  0  0  0
 48 50  1  0  0  0  0
 40 51  2  0  0  0  0
 51 52  1  0  0  0  0
 39 53  1  0  0  0  0
 53 54  2  0  0  0  0
 54 55  1  0  0  0  0
 54 56  1  0  0  0  0
 56 57  1  0  0  0  0
 57 58  1  0  0  0  0
 58 59  1  0  0  0  0
 59 60  1  0  0  0  0
 60 61  1  0  0  0  0
 61 62  1  0  0  0  0
 62 63  2  0  0  0  0
 63 64  1  0  0  0  0
 64 65  1  0  0  0  0
 65 66  1  0  0  0  0
 66 67  2  0  0  0  0
 67 68  1  0  0  0  0
 68 69  2  0  0  0  0
 69 70  1  0  0  0  0
 70 71  1  0  0  0  0
 69 72  1  0  0  0  0
 72 73  2  0  0  0  0
 65 74  1  0  0  0  0
 74 75  2  0  0  0  0
 75 76  1  0  0  0  0
 76 77  2  0  0  0  0
 77 78  1  0  0  0  0
 78 79  1  0  0  0  0
 77 80  1  0  0  0  0
 80 81  2  0  0  0  0
 65 82  1  0  0  0  0
 82 83  2  0  0  0  0
 83 84  1  0  0  0  0
 84 85  1  0  0  0  0
 85 86  2  0  0  0  0
 86 87  1  0  0  0  0
 87 88  1  0  0  0  0
 88 89  2  0  0  0  0
 89 90  1  0  0  0  0
 90 91  2  0  0  0  0
 91 92  1  0  0  0  0
 92 93  1  0  0  0  0
 91 94  1  0  0  0  0
 94 95  2  0  0  0  0
 87 96  1  0  0  0  0
 96 97  2  0  0  0  0
 97 98  1  0  0  0  0
 98 99  2  0  0  0  0
 99100  1  0  0  0  0
100101  1  0  0  0  0
 99102  1  0  0  0  0
102103  2  0  0  0  0
 87104  1  0  0  0  0
104105  1  0  0  0  0
105106  1  0  0  0  0
106107  1  0  0  0  0
107108  1  0  0  0  0
106109  1  0  0  0  0
109110  1  0  0  0  0
 83111  1  0  0  0  0
111112  1  0  0  0  0
112113  1  0  0  0  0
113114  1  0  0  0  0
114115  1  0  0  0  0
115116  2  0  0  0  0
116117  1  0  0  0  0
117118  1  0  0  0  0
118119  1  0  0  0  0
119120  1  0  0  0  0
118121  1  0  0  0  0
115122  1  0  0  0  0
122123  2  0  0  0  0
123124  1  0  0  0  0
124125  1  0  0  0  0
125126  2  0  0  0  0
126127  1  0  0  0  0
127128  2  0  0  0  0
128129  1  0  0  0  0
128130  1  0  0  0  0
130131  2  0  0  0  0
124132  1  0  0  0  0
132133  2  0  0  0  0
133134  1  0  0  0  0
134135  2  0  0  0  0
135136  1  0  0  0  0
135137  1  0  0  0  0
137138  2  0  0  0  0
123139  1  0  0  0  0
139140  1  0  0  0  0
140141  1  0  0  0  0
141142  2  0  0  0  0
142143  1  0  0  0  0
143144  1  0  0  0  0
144145  2  0  0  0  0
145146  1  0  0  0  0
146147  2  0  0  0  0
147148  1  0  0  0  0
147149  1  0  0  0  0
149150  2  0  0  0  0
143151  1  0  0  0  0
151152  2  0  0  0  0
152153  1  0  0  0  0
153154  2  0  0  0  0
154155  1  0  0  0  0
154156  1  0  0  0  0
156157  2  0  0  0  0
142158  1  0  0  0  0
158159  1  0  0  0  0
141160  1  0  0  0  0
160161  2  0  0  0  0
161162  1  0  0  0  0
162163  2  0  0  0  0
162164  1  0  0  0  0
164165  2  0  0  0  0
165166  1  0  0  0  0
166167  2  0  0  0  0
167168  1  0  0  0  0
168169  2  0  0  0  0
169170  1  0  0  0  0
170171  2  0  0  0  0
171172  1  0  0  0  0
172173  3  0  0  0  0
171174  1  0  0  0  0
174175  3  0  0  0  0
167176  1  0  0  0  0
176177  1  0  0  0  0
177178  1  0  0  0  0
178179  2  0  0  0  0
179180  1  0  0  0  0
180181  1  0  0  0  0
180182  1  0  0  0  0
 11  2  1  0  0  0  0
 23 17  1  0  0  0  0
 52 24  1  0  0  0  0
108 56  2  0  0  0  0
121112  2  0  0  0  0
159122  1  0  0  0  0
170161  1  0  0  0  0
182176  1  0  0  0  0
 10  5  1  0  0  0  0
 22 18  1  0  0  0  0
 51 26  1  0  0  0  0
107 58  2  0  0  0  0
117113  2  0  0  0  0
131125  1  0  0  0  0
138132  1  0  0  0  0
158139  2  0  0  0  0
169164  1  0  0  0  0
181177  1  0  0  0  0
 23  7  1  0  0  0  0
 37 28  1  0  0  0  0
 55 38  1  0  0  0  0
105 59  2  0  0  0  0
150144  1  0  0  0  0
157151  1  0  0  0  0
182166  1  0  0  0  0
 49 41  1  0  0  0  0
104 61  2  0  0  0  0
 86 62  1  0  0  0  0
 95 88  1  0  0  0  0
103 96  1  0  0  0  0
 84 64  2  0  0  0  0
 73 66  1  0  0  0  0
 81 74  1  0  0  0  0
121 82  1  0  0  0  0
  1183  1  0  0  0  0
  6184  1  0  0  0  0
  9185  1  0  0  0  0
 17186  1  0  0  0  0
 18187  1  0  0  0  0
 19188  1  0  0  0  0
 20189  1  0  0  0  0
 21190  1  0  0  0  0
 22191  1  0  0  0  0
 22192  1  0  0  0  0
 23193  1  0  0  0  0
 25194  1  0  0  0  0
 29195  1  0  0  0  0
 30196  1  0  0  0  0
 33197  1  0  0  0  0
 33198  1  0  0  0  0
 34199  1  0  0  0  0
 34200  1  0  0  0  0
 34201  1  0  0  0  0
 37202  1  0  0  0  0
 42203  1  0  0  0  0
 43204  1  0  0  0  0
 46205  1  0  0  0  0
 46206  1  0  0  0  0
 47207  1  0  0  0  0
 47208  1  0  0  0  0
 47209  1  0  0  0  0
 49210  1  0  0  0  0
 53211  1  0  0  0  0
 63212  1  0  0  0  0
 67213  1  0  0  0  0
 68214  1  0  0  0  0
 70215  1  0  0  0  0
 70216  1  0  0  0  0
 71217  1  0  0  0  0
 71218  1  0  0  0  0
 71219  1  0  0  0  0
 72220  1  0  0  0  0
 73221  1  0  0  0  0
 75222  1  0  0  0  0
 76223  1  0  0  0  0
 78224  1  0  0  0  0
 78225  1  0  0  0  0
 79226  1  0  0  0  0
 79227  1  0  0  0  0
 79228  1  0  0  0  0
 80229  1  0  0  0  0
 81230  1  0  0  0  0
 85231  1  0  0  0  0
 89232  1  0  0  0  0
 90233  1  0  0  0  0
 92234  1  0  0  0  0
 92235  1  0  0  0  0
 93236  1  0  0  0  0
 93237  1  0  0  0  0
 93238  1  0  0  0  0
 94239  1  0  0  0  0
 95240  1  0  0  0  0
 97241  1  0  0  0  0
 98242  1  0  0  0  0
100243  1  0  0  0  0
100244  1  0  0  0  0
101245  1  0  0  0  0
101246  1  0  0  0  0
101247  1  0  0  0  0
102248  1  0  0  0  0
103249  1  0  0  0  0
108250  1  0  0  0  0
109251  1  0  0  0  0
109252  1  0  0  0  0
110253  1  0  0  0  0
110254  1  0  0  0  0
110255  1  0  0  0  0
116256  1  0  0  0  0
119257  1  0  0  0  0
119258  1  0  0  0  0
120259  1  0  0  0  0
120260  1  0  0  0  0
120261  1  0  0  0  0
126262  1  0  0  0  0
127263  1  0  0  0  0
129264  1  0  0  0  0
129265  1  0  0  0  0
129266  1  0  0  0  0
130267  1  0  0  0  0
131268  1  0  0  0  0
133269  1  0  0  0  0
134270  1  0  0  0  0
136271  1  0  0  0  0
136272  1  0  0  0  0
136273  1  0  0  0  0
137274  1  0  0  0  0
138275  1  0  0  0  0
145276  1  0  0  0  0
146277  1  0  0  0  0
148278  1  0  0  0  0
148279  1  0  0  0  0
148280  1  0  0  0  0
149281  1  0  0  0  0
150282  1  0  0  0  0
152283  1  0  0  0  0
153284  1  0  0  0  0
155285  1  0  0  0  0
155286  1  0  0  0  0
155287  1  0  0  0  0
156288  1  0  0  0  0
157289  1  0  0  0  0
160290  1  0  0  0  0
165291  1  0  0  0  0
168292  1  0  0  0  0
176293  1  0  0  0  0
177294  1  0  0  0  0
178295  1  0  0  0  0
179296  1  0  0  0  0
180297  1  0  0  0  0
181298  1  0  0  0  0
181299  1  0  0  0  0
182300  1  0  0  0  0
M  END
