
  xtb     02272218493D
 energy: -402.809714317399 gnorm: 0.000458879226 xtb: 6.4.1 (unknown)
236263  0     0  0            999 V2000
   -2.7294    1.3520    6.5380 C   0  0  0  0  0  0  0  0  0  0  0  0
   -2.9641    0.0290    6.7603 C   0  0  0  0  0  0  0  0  0  0  0  0
   -2.6357   -1.0953    5.8577 C   0  0  0  0  0  0  0  0  0  0  0  0
   -2.3640   -1.0481    4.6742 O   0  0  0  0  0  0  0  0  0  0  0  0
   -2.6869   -2.3080    6.6907 C   0  0  0  0  0  0  0  0  0  0  0  0
   -2.3487   -3.6039    6.3062 C   0  0  0  0  0  0  0  0  0  0  0  0
   -2.4947   -4.5418    7.2998 C   0  0  0  0  0  0  0  0  0  0  0  0
   -2.9177   -4.2095    8.5955 C   0  0  0  0  0  0  0  0  0  0  0  0
   -3.2497   -2.9353    8.9906 C   0  0  0  0  0  0  0  0  0  0  0  0
   -3.1339   -1.9710    7.9849 C   0  0  0  0  0  0  0  0  0  0  0  0
   -3.4096   -0.5395    8.0236 C   0  0  0  0  0  0  0  0  0  0  0  0
   -4.0435    0.1265    9.0374 C   0  0  0  0  0  0  0  0  0  0  0  0
   -4.3755    1.4985    9.0230 C   0  0  0  0  0  0  0  0  0  0  0  0
   -4.6907    2.6012    9.0809 N   0  0  0  0  0  0  0  0  0  0  0  0
   -4.4999   -0.4824   10.2258 C   0  0  0  0  0  0  0  0  0  0  0  0
   -4.8939   -0.9108   11.2151 N   0  0  0  0  0  0  0  0  0  0  0  0
   -2.8142   -5.6322    9.0805 C   0  0  0  0  0  0  0  0  0  0  0  0
   -1.5812   -6.0241    9.9318 C   0  0  0  0  0  0  0  0  0  0  0  0
   -0.4645   -5.0931    9.5300 C   0  0  0  0  0  0  0  0  0  0  0  0
   -0.0859   -5.4195    8.3014 C   0  0  0  0  0  0  0  0  0  0  0  0
   -0.9417   -6.5767    7.8483 C   0  0  0  0  0  0  0  0  0  0  0  0
   -1.1517   -7.2995    9.1885 C   0  0  0  0  0  0  0  0  0  0  0  0
   -2.3632   -6.0062    7.6341 C   0  0  0  0  0  0  0  0  0  0  0  0
   -2.2084    2.0019    5.3938 C   0  0  0  0  0  0  0  0  0  0  0  0
   -1.7800    3.3143    5.4200 C   0  0  0  0  0  0  0  0  0  0  0  0
   -1.2240    3.7586    4.2055 C   0  0  0  0  0  0  0  0  0  0  0  0
   -0.6188    4.9994    3.9084 C   0  0  0  0  0  0  0  0  0  0  0  0
   -0.4944    6.0605    4.9133 C   0  0  0  0  0  0  0  0  0  0  0  0
   -0.9182    7.3549    4.6313 C   0  0  0  0  0  0  0  0  0  0  0  0
   -0.7910    8.3692    5.5601 C   0  0  0  0  0  0  0  0  0  0  0  0
   -0.2299    8.1241    6.8082 C   0  0  0  0  0  0  0  0  0  0  0  0
    0.0227    9.3188    8.0758 S   0  0  0  0  0  0  0  0  0  0  0  0
   -0.9434   10.7684    7.5289 C   0  0  0  0  0  0  0  0  0  0  0  0
   -2.4389   10.5444    7.6501 C   0  0  0  0  0  0  0  0  0  0  0  0
    0.2007    6.8217    7.0732 C   0  0  0  0  0  0  0  0  0  0  0  0
    0.7662    6.5506    8.2664 F   0  0  0  0  0  0  0  0  0  0  0  0
    0.0745    5.8011    6.1589 C   0  0  0  0  0  0  0  0  0  0  0  0
   -0.0988    5.1448    2.6337 C   0  0  0  0  0  0  0  0  0  0  0  0
   -0.1706    4.1241    1.6517 C   0  0  0  0  0  0  0  0  0  0  0  0
   -0.8290    2.9196    1.9231 C   0  0  0  0  0  0  0  0  0  0  0  0
   -1.0279    1.8810    0.9029 C   0  0  0  0  0  0  0  0  0  0  0  0
   -2.3212    1.4485    0.6255 C   0  0  0  0  0  0  0  0  0  0  0  0
   -2.5695    0.5121   -0.3580 C   0  0  0  0  0  0  0  0  0  0  0  0
   -1.5255   -0.0377   -1.0930 C   0  0  0  0  0  0  0  0  0  0  0  0
   -1.6892   -1.2345   -2.3781 S   0  0  0  0  0  0  0  0  0  0  0  0
   -3.4909   -1.4079   -2.6188 C   0  0  0  0  0  0  0  0  0  0  0  0
   -4.0802   -0.2594   -3.4146 C   0  0  0  0  0  0  0  0  0  0  0  0
   -0.2305    0.3783   -0.7785 C   0  0  0  0  0  0  0  0  0  0  0  0
    0.0297    1.3220    0.1905 C   0  0  0  0  0  0  0  0  0  0  0  0
    0.8096   -0.1577   -1.4552 F   0  0  0  0  0  0  0  0  0  0  0  0
   -1.3241    2.7537    3.2078 C   0  0  0  0  0  0  0  0  0  0  0  0
   -2.0026    1.2734    3.8161 S   0  0  0  0  0  0  0  0  0  0  0  0
    0.5368    4.4783    0.4784 C   0  0  0  0  0  0  0  0  0  0  0  0
    1.1469    5.6937    0.5334 C   0  0  0  0  0  0  0  0  0  0  0  0
    0.8158    6.5187    2.0432 S   0  0  0  0  0  0  0  0  0  0  0  0
    2.0852    6.0842   -0.4965 C   0  0  0  0  0  0  0  0  0  0  0  0
    2.0555    7.0263   -1.5006 C   0  0  0  0  0  0  0  0  0  0  0  0
    1.1692    8.1898   -1.5109 C   0  0  0  0  0  0  0  0  0  0  0  0
    0.5089    8.5710   -2.6761 C   0  0  0  0  0  0  0  0  0  0  0  0
   -0.3110    9.6826   -2.6690 C   0  0  0  0  0  0  0  0  0  0  0  0
   -0.4751   10.4244   -1.5117 C   0  0  0  0  0  0  0  0  0  0  0  0
    0.1848   10.0651   -0.3438 C   0  0  0  0  0  0  0  0  0  0  0  0
   -0.0038   10.8469    0.9247 C   0  0  0  0  0  0  0  0  0  0  0  0
   -1.0101   10.1464    1.8381 C   0  0  0  0  0  0  0  0  0  0  0  0
    1.0010    8.9440   -0.3544 C   0  0  0  0  0  0  0  0  0  0  0  0
    2.9581    6.6867   -2.5435 C   0  0  0  0  0  0  0  0  0  0  0  0
    3.1916    7.2686   -4.1846 S   0  0  0  0  0  0  0  0  0  0  0  0
    4.1847    5.8828   -4.5351 C   0  0  0  0  0  0  0  0  0  0  0  0
    4.6304    5.1316   -5.6442 C   0  0  0  0  0  0  0  0  0  0  0  0
    4.3415    5.2190   -7.0289 C   0  0  0  0  0  0  0  0  0  0  0  0
    4.3708    4.0149   -7.8303 C   0  0  0  0  0  0  0  0  0  0  0  0
    3.9234    4.2203   -9.0565 N   0  0  0  0  0  0  0  0  0  0  0  0
    3.5193    5.7818   -9.2099 S   0  0  0  0  0  0  0  0  0  0  0  0
    3.8825    6.2573   -7.7045 N   0  0  0  0  0  0  0  0  0  0  0  0
    4.8345    2.8071   -7.2558 C   0  0  0  0  0  0  0  0  0  0  0  0
    4.7417    1.4405   -7.6070 C   0  0  0  0  0  0  0  0  0  0  0  0
    3.7980    0.4304   -8.6635 S   0  0  0  0  0  0  0  0  0  0  0  0
    4.0871   -0.9368   -7.6007 C   0  0  0  0  0  0  0  0  0  0  0  0
    3.3959   -2.1494   -7.3901 C   0  0  0  0  0  0  0  0  0  0  0  0
    2.3104   -2.6596   -8.2289 C   0  0  0  0  0  0  0  0  0  0  0  0
    2.3055   -3.9936   -8.6322 C   0  0  0  0  0  0  0  0  0  0  0  0
    1.2659   -4.4730   -9.4043 C   0  0  0  0  0  0  0  0  0  0  0  0
    0.2245   -3.6366   -9.7694 C   0  0  0  0  0  0  0  0  0  0  0  0
    0.2111   -2.3059   -9.3724 C   0  0  0  0  0  0  0  0  0  0  0  0
   -0.8987   -1.3811   -9.7816 C   0  0  0  0  0  0  0  0  0  0  0  0
   -0.4388   -0.4476  -10.9024 C   0  0  0  0  0  0  0  0  0  0  0  0
    1.2652   -1.8257   -8.6091 C   0  0  0  0  0  0  0  0  0  0  0  0
    3.7784   -2.7526   -6.2030 C   0  0  0  0  0  0  0  0  0  0  0  0
    5.1168   -1.9049   -5.4238 S   0  0  0  0  0  0  0  0  0  0  0  0
    5.0026   -0.6383   -6.5923 C   0  0  0  0  0  0  0  0  0  0  0  0
    5.3575    0.7128   -6.5840 C   0  0  0  0  0  0  0  0  0  0  0  0
    5.8472    1.5601   -5.6210 N   0  0  0  0  0  0  0  0  0  0  0  0
    5.4373    2.8351   -5.9730 C   0  0  0  0  0  0  0  0  0  0  0  0
    5.1764    3.9307   -5.1186 C   0  0  0  0  0  0  0  0  0  0  0  0
    5.0626    3.9425   -3.7460 N   0  0  0  0  0  0  0  0  0  0  0  0
    4.4222    5.0989   -3.4035 C   0  0  0  0  0  0  0  0  0  0  0  0
    3.7038    5.5405   -2.2868 C   0  0  0  0  0  0  0  0  0  0  0  0
    3.3043    4.8440   -0.7646 S   0  0  0  0  0  0  0  0  0  0  0  0
    5.1820    2.8668   -2.7903 C   0  0  0  0  0  0  0  0  0  0  0  0
    6.3521    3.0865   -1.8346 C   0  0  0  0  0  0  0  0  0  0  0  0
    7.0204    1.2140   -4.8471 C   0  0  0  0  0  0  0  0  0  0  0  0
    8.1920    0.8606   -5.7621 C   0  0  0  0  0  0  0  0  0  0  0  0
    2.9819   -3.5781   -5.3527 C   0  0  0  0  0  0  0  0  0  0  0  0
    3.2813   -3.9485   -4.0713 C   0  0  0  0  0  0  0  0  0  0  0  0
    2.1427   -4.2440   -3.2792 C   0  0  0  0  0  0  0  0  0  0  0  0
    2.0807   -4.4902   -1.8986 C   0  0  0  0  0  0  0  0  0  0  0  0
    3.2882   -4.5987   -1.0696 C   0  0  0  0  0  0  0  0  0  0  0  0
    4.2604   -3.6001   -1.0680 C   0  0  0  0  0  0  0  0  0  0  0  0
    5.3920   -3.7272   -0.2915 C   0  0  0  0  0  0  0  0  0  0  0  0
    5.5959   -4.8416    0.5207 C   0  0  0  0  0  0  0  0  0  0  0  0
    7.0739   -4.8701    1.4932 S   0  0  0  0  0  0  0  0  0  0  0  0
    7.6038   -6.6224    1.4581 C   0  0  0  0  0  0  0  0  0  0  0  0
    7.8126   -7.1262    0.0443 C   0  0  0  0  0  0  0  0  0  0  0  0
    4.5950   -5.8071    0.5436 C   0  0  0  0  0  0  0  0  0  0  0  0
    4.6957   -6.8948    1.3405 F   0  0  0  0  0  0  0  0  0  0  0  0
    3.4652   -5.7020   -0.2424 C   0  0  0  0  0  0  0  0  0  0  0  0
    0.8153   -4.5492   -1.3319 C   0  0  0  0  0  0  0  0  0  0  0  0
   -0.3781   -4.3936   -2.0739 C   0  0  0  0  0  0  0  0  0  0  0  0
   -0.3190   -4.2202   -3.4650 C   0  0  0  0  0  0  0  0  0  0  0  0
   -1.5209   -4.0373   -4.2873 C   0  0  0  0  0  0  0  0  0  0  0  0
   -2.5878   -4.9321   -4.2324 C   0  0  0  0  0  0  0  0  0  0  0  0
   -3.6832   -4.7708   -5.0558 C   0  0  0  0  0  0  0  0  0  0  0  0
   -3.7650   -3.7056   -5.9509 C   0  0  0  0  0  0  0  0  0  0  0  0
   -5.2006   -3.5773   -6.9717 S   0  0  0  0  0  0  0  0  0  0  0  0
   -4.5059   -2.9506   -8.5555 C   0  0  0  0  0  0  0  0  0  0  0  0
   -5.3655   -3.4382   -9.7043 C   0  0  0  0  0  0  0  0  0  0  0  0
   -2.7171   -2.7897   -5.9549 C   0  0  0  0  0  0  0  0  0  0  0  0
   -1.6065   -2.9523   -5.1555 C   0  0  0  0  0  0  0  0  0  0  0  0
   -2.7672   -1.6867   -6.7367 F   0  0  0  0  0  0  0  0  0  0  0  0
    0.9445   -4.1351   -4.0266 C   0  0  0  0  0  0  0  0  0  0  0  0
    1.2696   -3.7720   -5.7028 S   0  0  0  0  0  0  0  0  0  0  0  0
   -1.5121   -4.2719   -1.2227 C   0  0  0  0  0  0  0  0  0  0  0  0
   -1.2182   -4.3433    0.0986 C   0  0  0  0  0  0  0  0  0  0  0  0
    0.4893   -4.6233    0.3827 S   0  0  0  0  0  0  0  0  0  0  0  0
   -2.1445   -4.0813    1.1980 C   0  0  0  0  0  0  0  0  0  0  0  0
   -2.7340   -2.8333    1.2591 C   0  0  0  0  0  0  0  0  0  0  0  0
   -3.6577   -2.5130    2.2507 C   0  0  0  0  0  0  0  0  0  0  0  0
   -4.0286   -3.4578    3.1853 C   0  0  0  0  0  0  0  0  0  0  0  0
   -5.0687   -3.1382    4.1733 C   0  0  0  0  0  0  0  0  0  0  0  0
   -5.6087   -2.0533    4.2433 O   0  0  0  0  0  0  0  0  0  0  0  0
   -5.4559   -4.1700    5.0185 N   0  0  0  0  0  0  0  0  0  0  0  0
   -6.6050   -3.9156    5.8824 C   0  0  0  0  0  0  0  0  0  0  0  0
   -6.2279   -3.1684    7.1529 C   0  0  0  0  0  0  0  0  0  0  0  0
   -4.8373   -5.4011    5.1230 C   0  0  0  0  0  0  0  0  0  0  0  0
   -5.1675   -6.1965    5.9822 O   0  0  0  0  0  0  0  0  0  0  0  0
   -3.7972   -5.7025    4.1249 C   0  0  0  0  0  0  0  0  0  0  0  0
   -3.2043   -6.9480    4.1125 C   0  0  0  0  0  0  0  0  0  0  0  0
   -2.2444   -7.2632    3.1488 C   0  0  0  0  0  0  0  0  0  0  0  0
   -1.8868   -6.3436    2.1967 C   0  0  0  0  0  0  0  0  0  0  0  0
   -2.4640   -5.0579    2.1791 C   0  0  0  0  0  0  0  0  0  0  0  0
   -3.4330   -4.7357    3.1645 C   0  0  0  0  0  0  0  0  0  0  0  0
   -2.8942    2.0285    7.3692 H   0  0  0  0  0  0  0  0  0  0  0  0
   -1.9970   -3.8101    5.3072 H   0  0  0  0  0  0  0  0  0  0  0  0
   -3.5719   -2.6950    9.9901 H   0  0  0  0  0  0  0  0  0  0  0  0
   -3.7352   -6.0739    9.4545 H   0  0  0  0  0  0  0  0  0  0  0  0
   -1.7765   -6.1069   10.9976 H   0  0  0  0  0  0  0  0  0  0  0  0
   -0.1139   -4.2806   10.1395 H   0  0  0  0  0  0  0  0  0  0  0  0
    0.6440   -4.9346    7.6795 H   0  0  0  0  0  0  0  0  0  0  0  0
   -0.5575   -7.1618    7.0167 H   0  0  0  0  0  0  0  0  0  0  0  0
   -1.9290   -8.0613    9.1521 H   0  0  0  0  0  0  0  0  0  0  0  0
   -0.2324   -7.7284    9.5848 H   0  0  0  0  0  0  0  0  0  0  0  0
   -3.0130   -6.6711    7.0713 H   0  0  0  0  0  0  0  0  0  0  0  0
   -1.8558    3.9254    6.3020 H   0  0  0  0  0  0  0  0  0  0  0  0
   -1.3755    7.5682    3.6773 H   0  0  0  0  0  0  0  0  0  0  0  0
   -1.1300    9.3571    5.2960 H   0  0  0  0  0  0  0  0  0  0  0  0
   -0.6154   11.5599    8.2027 H   0  0  0  0  0  0  0  0  0  0  0  0
   -0.6385   11.0289    6.5162 H   0  0  0  0  0  0  0  0  0  0  0  0
   -2.9735   11.4432    7.3485 H   0  0  0  0  0  0  0  0  0  0  0  0
   -2.7649    9.7183    7.0218 H   0  0  0  0  0  0  0  0  0  0  0  0
   -2.7002   10.3136    8.6800 H   0  0  0  0  0  0  0  0  0  0  0  0
    0.4444    4.8194    6.4099 H   0  0  0  0  0  0  0  0  0  0  0  0
   -3.1505    1.8689    1.1730 H   0  0  0  0  0  0  0  0  0  0  0  0
   -3.5891    0.2192   -0.5475 H   0  0  0  0  0  0  0  0  0  0  0  0
   -3.9626   -1.5299   -1.6443 H   0  0  0  0  0  0  0  0  0  0  0  0
   -3.5880   -2.3435   -3.1700 H   0  0  0  0  0  0  0  0  0  0  0  0
   -3.6017   -0.1953   -4.3888 H   0  0  0  0  0  0  0  0  0  0  0  0
   -3.9395    0.6892   -2.9010 H   0  0  0  0  0  0  0  0  0  0  0  0
   -5.1458   -0.4231   -3.5625 H   0  0  0  0  0  0  0  0  0  0  0  0
    1.0520    1.5976    0.3982 H   0  0  0  0  0  0  0  0  0  0  0  0
    0.6019    3.8388   -0.3834 H   0  0  0  0  0  0  0  0  0  0  0  0
    0.6299    7.9913   -3.5781 H   0  0  0  0  0  0  0  0  0  0  0  0
   -0.8242    9.9744   -3.5733 H   0  0  0  0  0  0  0  0  0  0  0  0
   -1.1149   11.2953   -1.5173 H   0  0  0  0  0  0  0  0  0  0  0  0
    0.9507   10.9352    1.4479 H   0  0  0  0  0  0  0  0  0  0  0  0
   -0.3611   11.8516    0.6912 H   0  0  0  0  0  0  0  0  0  0  0  0
   -1.9698   10.0426    1.3361 H   0  0  0  0  0  0  0  0  0  0  0  0
   -0.6460    9.1556    2.0983 H   0  0  0  0  0  0  0  0  0  0  0  0
   -1.1562   10.7175    2.7521 H   0  0  0  0  0  0  0  0  0  0  0  0
    1.5354    8.6654    0.5429 H   0  0  0  0  0  0  0  0  0  0  0  0
    3.1197   -4.6423   -8.3427 H   0  0  0  0  0  0  0  0  0  0  0  0
    1.2644   -5.5056   -9.7215 H   0  0  0  0  0  0  0  0  0  0  0  0
   -0.5878   -4.0231  -10.3687 H   0  0  0  0  0  0  0  0  0  0  0  0
   -1.7573   -1.9618  -10.1252 H   0  0  0  0  0  0  0  0  0  0  0  0
   -1.2143   -0.7861   -8.9223 H   0  0  0  0  0  0  0  0  0  0  0  0
   -0.1376   -1.0243  -11.7743 H   0  0  0  0  0  0  0  0  0  0  0  0
    0.4107    0.1484  -10.5777 H   0  0  0  0  0  0  0  0  0  0  0  0
   -1.2442    0.2237  -11.1912 H   0  0  0  0  0  0  0  0  0  0  0  0
    1.2600   -0.7968   -8.2811 H   0  0  0  0  0  0  0  0  0  0  0  0
    4.2553    2.8380   -2.2066 H   0  0  0  0  0  0  0  0  0  0  0  0
    5.2645    1.9201   -3.3190 H   0  0  0  0  0  0  0  0  0  0  0  0
    6.1918    3.9910   -1.2534 H   0  0  0  0  0  0  0  0  0  0  0  0
    7.2917    3.1903   -2.3726 H   0  0  0  0  0  0  0  0  0  0  0  0
    6.4309    2.2465   -1.1507 H   0  0  0  0  0  0  0  0  0  0  0  0
    6.7862    0.3560   -4.2074 H   0  0  0  0  0  0  0  0  0  0  0  0
    7.2953    2.0686   -4.2309 H   0  0  0  0  0  0  0  0  0  0  0  0
    8.4196    1.6932   -6.4245 H   0  0  0  0  0  0  0  0  0  0  0  0
    7.9550   -0.0109   -6.3672 H   0  0  0  0  0  0  0  0  0  0  0  0
    9.0710    0.6389   -5.1632 H   0  0  0  0  0  0  0  0  0  0  0  0
    4.2847   -3.9297   -3.6844 H   0  0  0  0  0  0  0  0  0  0  0  0
    4.1147   -2.7138   -1.6659 H   0  0  0  0  0  0  0  0  0  0  0  0
    6.1476   -2.9569   -0.2959 H   0  0  0  0  0  0  0  0  0  0  0  0
    8.5421   -6.6083    2.0129 H   0  0  0  0  0  0  0  0  0  0  0  0
    6.8793   -7.2234    2.0030 H   0  0  0  0  0  0  0  0  0  0  0  0
    8.2027   -8.1417    0.0716 H   0  0  0  0  0  0  0  0  0  0  0  0
    8.5206   -6.4930   -0.4865 H   0  0  0  0  0  0  0  0  0  0  0  0
    6.8745   -7.1340   -0.5078 H   0  0  0  0  0  0  0  0  0  0  0  0
    2.7295   -6.4904   -0.2012 H   0  0  0  0  0  0  0  0  0  0  0  0
   -2.5413   -5.7774   -3.5626 H   0  0  0  0  0  0  0  0  0  0  0  0
   -4.4979   -5.4776   -5.0274 H   0  0  0  0  0  0  0  0  0  0  0  0
   -3.4902   -3.3374   -8.6292 H   0  0  0  0  0  0  0  0  0  0  0  0
   -4.4840   -1.8625   -8.5138 H   0  0  0  0  0  0  0  0  0  0  0  0
   -6.3859   -3.0771   -9.5981 H   0  0  0  0  0  0  0  0  0  0  0  0
   -5.3860   -4.5254   -9.7330 H   0  0  0  0  0  0  0  0  0  0  0  0
   -4.9628   -3.0699  -10.6457 H   0  0  0  0  0  0  0  0  0  0  0  0
   -0.8325   -2.2032   -5.1889 H   0  0  0  0  0  0  0  0  0  0  0  0
   -2.5106   -4.1142   -1.5888 H   0  0  0  0  0  0  0  0  0  0  0  0
   -2.4548   -2.0868    0.5315 H   0  0  0  0  0  0  0  0  0  0  0  0
   -4.0963   -1.5286    2.3005 H   0  0  0  0  0  0  0  0  0  0  0  0
   -7.0369   -4.8868    6.1306 H   0  0  0  0  0  0  0  0  0  0  0  0
   -7.3172   -3.3242    5.3024 H   0  0  0  0  0  0  0  0  0  0  0  0
   -5.7940   -2.2036    6.9020 H   0  0  0  0  0  0  0  0  0  0  0  0
   -7.1166   -3.0046    7.7560 H   0  0  0  0  0  0  0  0  0  0  0  0
   -5.5119   -3.7454    7.7324 H   0  0  0  0  0  0  0  0  0  0  0  0
   -3.5078   -7.6784    4.8473 H   0  0  0  0  0  0  0  0  0  0  0  0
   -1.7918   -8.2432    3.1514 H   0  0  0  0  0  0  0  0  0  0  0  0
   -1.1539   -6.5979    1.4463 H   0  0  0  0  0  0  0  0  0  0  0  0
  1  2  2  0  0  0  0
  2  3  1  0  0  0  0
  3  4  2  0  0  0  0
  3  5  1  0  0  0  0
  5  6  2  0  0  0  0
  6  7  1  0  0  0  0
  7  8  2  0  0  0  0
  8  9  1  0  0  0  0
  9 10  2  0  0  0  0
 10 11  1  0  0  0  0
 11 12  2  0  0  0  0
 12 13  1  0  0  0  0
 13 14  3  0  0  0  0
 12 15  1  0  0  0  0
 15 16  3  0  0  0  0
  8 17  1  0  0  0  0
 17 18  1  0  0  0  0
 18 19  1  0  0  0  0
 19 20  2  0  0  0  0
 20 21  1  0  0  0  0
 21 22  1  0  0  0  0
 21 23  1  0  0  0  0
  1 24  1  0  0  0  0
 24 25  2  0  0  0  0
 25 26  1  0  0  0  0
 26 27  2  0  0  0  0
 27 28  1  0  0  0  0
 28 29  2  0  0  0  0
 29 30  1  0  0  0  0
 30 31  2  0  0  0  0
 31 32  1  0  0  0  0
 32 33  1  0  0  0  0
 33 34  1  0  0  0  0
 31 35  1  0  0  0  0
 35 36  1  0  0  0  0
 35 37  2  0  0  0  0
 27 38  1  0  0  0  0
 38 39  2  0  0  0  0
 39 40  1  0  0  0  0
 40 41  1  0  0  0  0
 41 42  2  0  0  0  0
 42 43  1  0  0  0  0
 43 44  2  0  0  0  0
 44 45  1  0  0  0  0
 45 46  1  0  0  0  0
 46 47  1  0  0  0  0
 44 48  1  0  0  0  0
 48 49  2  0  0  0  0
 48 50  1  0  0  0  0
 40 51  2  0  0  0  0
 51 52  1  0  0  0  0
 39 53  1  0  0  0  0
 53 54  2  0  0  0  0
 54 55  1  0  0  0  0
 54 56  1  0  0  0  0
 56 57  2  0  0  0  0
 57 58  1  0  0  0  0
 58 59  2  0  0  0  0
 59 60  1  0  0  0  0
 60 61  2  0  0  0  0
 61 62  1  0  0  0  0
 62 63  1  0  0  0  0
 63 64  1  0  0  0  0
 62 65  2  0  0  0  0
 57 66  1  0  0  0  0
 66 67  1  0  0  0  0
 67 68  1  0  0  0  0
 68 69  1  0  0  0  0
 69 70  1  0  0  0  0
 70 71  1  0  0  0  0
 71 72  2  0  0  0  0
 72 73  1  0  0  0  0
 73 74  1  0  0  0  0
 71 75  1  0  0  0  0
 75 76  1  0  0  0  0
 76 77  1  0  0  0  0
 77 78  1  0  0  0  0
 78 79  1  0  0  0  0
 79 80  1  0  0  0  0
 80 81  2  0  0  0  0
 81 82  1  0  0  0  0
 82 83  2  0  0  0  0
 83 84  1  0  0  0  0
 84 85  1  0  0  0  0
 85 86  1  0  0  0  0
 84 87  2  0  0  0  0
 79 88  2  0  0  0  0
 88 89  1  0  0  0  0
 89 90  1  0  0  0  0
 90 91  1  0  0  0  0
 91 92  1  0  0  0  0
 92 93  1  0  0  0  0
 93 94  1  0  0  0  0
 94 95  1  0  0  0  0
 95 96  1  0  0  0  0
 96 97  1  0  0  0  0
 97 98  1  0  0  0  0
 95 99  1  0  0  0  0
 99100  1  0  0  0  0
 92101  1  0  0  0  0
101102  1  0  0  0  0
 88103  1  0  0  0  0
103104  2  0  0  0  0
104105  1  0  0  0  0
105106  2  0  0  0  0
106107  1  0  0  0  0
107108  2  0  0  0  0
108109  1  0  0  0  0
109110  2  0  0  0  0
110111  1  0  0  0  0
111112  1  0  0  0  0
112113  1  0  0  0  0
110114  1  0  0  0  0
114115  1  0  0  0  0
114116  2  0  0  0  0
106117  1  0  0  0  0
117118  2  0  0  0  0
118119  1  0  0  0  0
119120  1  0  0  0  0
120121  2  0  0  0  0
121122  1  0  0  0  0
122123  2  0  0  0  0
123124  1  0  0  0  0
124125  1  0  0  0  0
125126  1  0  0  0  0
123127  1  0  0  0  0
127128  2  0  0  0  0
127129  1  0  0  0  0
119130  2  0  0  0  0
130131  1  0  0  0  0
118132  1  0  0  0  0
132133  2  0  0  0  0
133134  1  0  0  0  0
133135  1  0  0  0  0
135136  2  0  0  0  0
136137  1  0  0  0  0
137138  2  0  0  0  0
138139  1  0  0  0  0
139140  2  0  0  0  0
139141  1  0  0  0  0
141142  1  0  0  0  0
142143  1  0  0  0  0
141144  1  0  0  0  0
144145  2  0  0  0  0
144146  1  0  0  0  0
146147  1  0  0  0  0
147148  2  0  0  0  0
148149  1  0  0  0  0
149150  2  0  0  0  0
150151  1  0  0  0  0
 11  2  1  0  0  0  0
 23 17  1  0  0  0  0
 52 24  1  0  0  0  0
 98 56  1  0  0  0  0
131103  1  0  0  0  0
150135  1  0  0  0  0
 10  5  1  0  0  0  0
 22 18  1  0  0  0  0
 51 26  1  0  0  0  0
 65 58  1  0  0  0  0
 97 66  2  0  0  0  0
130105  1  0  0  0  0
151138  1  0  0  0  0
 23  7  1  0  0  0  0
 37 28  1  0  0  0  0
 55 38  1  0  0  0  0
 96 68  2  0  0  0  0
116107  1  0  0  0  0
134117  1  0  0  0  0
151146  2  0  0  0  0
 49 41  1  0  0  0  0
 94 69  2  0  0  0  0
128120  1  0  0  0  0
 74 70  2  0  0  0  0
 93 75  2  0  0  0  0
 91 76  2  0  0  0  0
 90 78  2  0  0  0  0
 87 80  1  0  0  0  0
  1152  1  0  0  0  0
  6153  1  0  0  0  0
  9154  1  0  0  0  0
 17155  1  0  0  0  0
 18156  1  0  0  0  0
 19157  1  0  0  0  0
 20158  1  0  0  0  0
 21159  1  0  0  0  0
 22160  1  0  0  0  0
 22161  1  0  0  0  0
 23162  1  0  0  0  0
 25163  1  0  0  0  0
 29164  1  0  0  0  0
 30165  1  0  0  0  0
 33166  1  0  0  0  0
 33167  1  0  0  0  0
 34168  1  0  0  0  0
 34169  1  0  0  0  0
 34170  1  0  0  0  0
 37171  1  0  0  0  0
 42172  1  0  0  0  0
 43173  1  0  0  0  0
 46174  1  0  0  0  0
 46175  1  0  0  0  0
 47176  1  0  0  0  0
 47177  1  0  0  0  0
 47178  1  0  0  0  0
 49179  1  0  0  0  0
 53180  1  0  0  0  0
 59181  1  0  0  0  0
 60182  1  0  0  0  0
 61183  1  0  0  0  0
 63184  1  0  0  0  0
 63185  1  0  0  0  0
 64186  1  0  0  0  0
 64187  1  0  0  0  0
 64188  1  0  0  0  0
 65189  1  0  0  0  0
 81190  1  0  0  0  0
 82191  1  0  0  0  0
 83192  1  0  0  0  0
 85193  1  0  0  0  0
 85194  1  0  0  0  0
 86195  1  0  0  0  0
 86196  1  0  0  0  0
 86197  1  0  0  0  0
 87198  1  0  0  0  0
 99199  1  0  0  0  0
 99200  1  0  0  0  0
100201  1  0  0  0  0
100202  1  0  0  0  0
100203  1  0  0  0  0
101204  1  0  0  0  0
101205  1  0  0  0  0
102206  1  0  0  0  0
102207  1  0  0  0  0
102208  1  0  0  0  0
104209  1  0  0  0  0
108210  1  0  0  0  0
109211  1  0  0  0  0
112212  1  0  0  0  0
112213  1  0  0  0  0
113214  1  0  0  0  0
113215  1  0  0  0  0
113216  1  0  0  0  0
116217  1  0  0  0  0
121218  1  0  0  0  0
122219  1  0  0  0  0
125220  1  0  0  0  0
125221  1  0  0  0  0
126222  1  0  0  0  0
126223  1  0  0  0  0
126224  1  0  0  0  0
128225  1  0  0  0  0
132226  1  0  0  0  0
136227  1  0  0  0  0
137228  1  0  0  0  0
142229  1  0  0  0  0
142230  1  0  0  0  0
143231  1  0  0  0  0
143232  1  0  0  0  0
143233  1  0  0  0  0
147234  1  0  0  0  0
148235  1  0  0  0  0
149236  1  0  0  0  0
M  END
