
  xtb     02122221563D
 energy: -414.852469465991 gnorm: 0.000425165587 xtb: 6.4.1 (unknown)
243272  0     0  0            999 V2000
    6.8026  -12.1769    2.8049 C   0  0  0  0  0  0  0  0  0  0  0  0
    6.4474  -13.4167    3.2472 C   0  0  0  0  0  0  0  0  0  0  0  0
    5.2448  -14.2148    2.8987 C   0  0  0  0  0  0  0  0  0  0  0  0
    4.4735  -14.0620    1.9746 O   0  0  0  0  0  0  0  0  0  0  0  0
    5.1447  -15.2566    3.9372 C   0  0  0  0  0  0  0  0  0  0  0  0
    4.1124  -16.1800    4.0890 C   0  0  0  0  0  0  0  0  0  0  0  0
    4.2665  -17.0188    5.1659 C   0  0  0  0  0  0  0  0  0  0  0  0
    5.3642  -16.9417    6.0348 C   0  0  0  0  0  0  0  0  0  0  0  0
    6.3908  -16.0393    5.8940 C   0  0  0  0  0  0  0  0  0  0  0  0
    6.2574  -15.1815    4.7979 C   0  0  0  0  0  0  0  0  0  0  0  0
    7.1279  -14.1072    4.3345 C   0  0  0  0  0  0  0  0  0  0  0  0
    8.3891  -13.8493    4.8017 C   0  0  0  0  0  0  0  0  0  0  0  0
    9.2695  -12.8672    4.2977 C   0  0  0  0  0  0  0  0  0  0  0  0
   10.0567  -12.1098    3.9431 N   0  0  0  0  0  0  0  0  0  0  0  0
    9.0152  -14.5709    5.8404 C   0  0  0  0  0  0  0  0  0  0  0  0
    9.5852  -15.1115    6.6776 N   0  0  0  0  0  0  0  0  0  0  0  0
    4.8656  -18.0764    6.8936 C   0  0  0  0  0  0  0  0  0  0  0  0
    5.5426  -19.4588    6.7245 C   0  0  0  0  0  0  0  0  0  0  0  0
    6.0807  -19.5020    5.3157 C   0  0  0  0  0  0  0  0  0  0  0  0
    5.0461  -19.5777    4.4893 C   0  0  0  0  0  0  0  0  0  0  0  0
    3.7894  -19.5875    5.3244 C   0  0  0  0  0  0  0  0  0  0  0  0
    4.2944  -20.3414    6.5650 C   0  0  0  0  0  0  0  0  0  0  0  0
    3.6460  -18.1660    5.9227 C   0  0  0  0  0  0  0  0  0  0  0  0
    6.2298  -11.3499    1.8092 C   0  0  0  0  0  0  0  0  0  0  0  0
    5.3269  -11.5924    0.8055 C   0  0  0  0  0  0  0  0  0  0  0  0
    4.9982  -10.4482    0.0499 C   0  0  0  0  0  0  0  0  0  0  0  0
    4.0941  -10.3645   -1.0277 C   0  0  0  0  0  0  0  0  0  0  0  0
    3.4596  -11.5471   -1.6161 C   0  0  0  0  0  0  0  0  0  0  0  0
    2.0912  -11.5710   -1.8716 C   0  0  0  0  0  0  0  0  0  0  0  0
    1.5029  -12.6412   -2.5144 C   0  0  0  0  0  0  0  0  0  0  0  0
    2.2660  -13.7221   -2.9405 C   0  0  0  0  0  0  0  0  0  0  0  0
    1.6393  -15.1172   -3.8128 S   0  0  0  0  0  0  0  0  0  0  0  0
    0.0621  -14.5165   -4.5126 C   0  0  0  0  0  0  0  0  0  0  0  0
    0.2639  -13.4319   -5.5540 C   0  0  0  0  0  0  0  0  0  0  0  0
    3.6297  -13.7046   -2.6408 C   0  0  0  0  0  0  0  0  0  0  0  0
    4.3965  -14.7449   -3.0211 F   0  0  0  0  0  0  0  0  0  0  0  0
    4.2275  -12.6484   -1.9914 C   0  0  0  0  0  0  0  0  0  0  0  0
    3.8491   -9.0987   -1.5308 C   0  0  0  0  0  0  0  0  0  0  0  0
    4.5048   -7.9323   -1.0605 C   0  0  0  0  0  0  0  0  0  0  0  0
    5.4621   -8.0228   -0.0349 C   0  0  0  0  0  0  0  0  0  0  0  0
    6.2177   -6.8460    0.4083 C   0  0  0  0  0  0  0  0  0  0  0  0
    6.3567   -6.5382    1.7586 C   0  0  0  0  0  0  0  0  0  0  0  0
    7.0874   -5.4411    2.1702 C   0  0  0  0  0  0  0  0  0  0  0  0
    7.7157   -4.6141    1.2460 C   0  0  0  0  0  0  0  0  0  0  0  0
    8.6638   -3.1839    1.6466 S   0  0  0  0  0  0  0  0  0  0  0  0
    9.1749   -3.4731    3.3761 C   0  0  0  0  0  0  0  0  0  0  0  0
   10.1190   -4.6526    3.5059 C   0  0  0  0  0  0  0  0  0  0  0  0
    7.5559   -4.9252   -0.1053 C   0  0  0  0  0  0  0  0  0  0  0  0
    6.8283   -6.0137   -0.5292 C   0  0  0  0  0  0  0  0  0  0  0  0
    8.1371   -4.1393   -1.0341 F   0  0  0  0  0  0  0  0  0  0  0  0
    5.6620   -9.2803    0.5159 C   0  0  0  0  0  0  0  0  0  0  0  0
    6.7430   -9.6606    1.8222 S   0  0  0  0  0  0  0  0  0  0  0  0
    4.0374   -6.7700   -1.7175 C   0  0  0  0  0  0  0  0  0  0  0  0
    3.0999   -7.0175   -2.6807 C   0  0  0  0  0  0  0  0  0  0  0  0
    2.7428   -8.7269   -2.8309 S   0  0  0  0  0  0  0  0  0  0  0  0
    2.3634   -6.0383   -3.4078 C   0  0  0  0  0  0  0  0  0  0  0  0
    1.5397   -6.1834   -4.5087 C   0  0  0  0  0  0  0  0  0  0  0  0
    1.4010   -7.4097   -5.2974 C   0  0  0  0  0  0  0  0  0  0  0  0
    2.5245   -8.0784   -5.7771 C   0  0  0  0  0  0  0  0  0  0  0  0
    2.3719   -9.2330   -6.5197 C   0  0  0  0  0  0  0  0  0  0  0  0
    1.1073   -9.7236   -6.7954 C   0  0  0  0  0  0  0  0  0  0  0  0
   -0.0237   -9.0587   -6.3398 C   0  0  0  0  0  0  0  0  0  0  0  0
   -1.4001   -9.5444   -6.6915 C   0  0  0  0  0  0  0  0  0  0  0  0
   -1.9217   -8.8045   -7.9249 C   0  0  0  0  0  0  0  0  0  0  0  0
    0.1352   -7.8998   -5.5947 C   0  0  0  0  0  0  0  0  0  0  0  0
    0.8516   -4.9862   -4.7926 C   0  0  0  0  0  0  0  0  0  0  0  0
   -0.3236   -4.5416   -6.0090 S   0  0  0  0  0  0  0  0  0  0  0  0
   -0.4217   -2.9558   -5.3147 C   0  0  0  0  0  0  0  0  0  0  0  0
   -1.1213   -1.7443   -5.4904 C   0  0  0  0  0  0  0  0  0  0  0  0
   -1.9850   -1.2395   -6.4906 C   0  0  0  0  0  0  0  0  0  0  0  0
   -2.4269    0.1337   -6.4204 C   0  0  0  0  0  0  0  0  0  0  0  0
   -3.1617    0.4770   -7.4657 N   0  0  0  0  0  0  0  0  0  0  0  0
   -3.2995   -0.8029   -8.4468 S   0  0  0  0  0  0  0  0  0  0  0  0
   -2.4233   -1.8512   -7.5788 N   0  0  0  0  0  0  0  0  0  0  0  0
   -2.1253    0.9032   -5.2721 C   0  0  0  0  0  0  0  0  0  0  0  0
   -2.5405    2.1663   -4.8027 C   0  0  0  0  0  0  0  0  0  0  0  0
   -3.4430    3.5484   -5.3341 S   0  0  0  0  0  0  0  0  0  0  0  0
   -3.1990    4.2935   -3.7699 C   0  0  0  0  0  0  0  0  0  0  0  0
   -3.6275    5.5132   -3.2051 C   0  0  0  0  0  0  0  0  0  0  0  0
   -4.4629    6.4773   -3.9248 C   0  0  0  0  0  0  0  0  0  0  0  0
   -5.6123    7.0066   -3.3429 C   0  0  0  0  0  0  0  0  0  0  0  0
   -6.3995    7.8894   -4.0559 C   0  0  0  0  0  0  0  0  0  0  0  0
   -6.0560    8.2456   -5.3492 C   0  0  0  0  0  0  0  0  0  0  0  0
   -4.9162    7.7238   -5.9461 C   0  0  0  0  0  0  0  0  0  0  0  0
   -4.5672    8.0541   -7.3680 C   0  0  0  0  0  0  0  0  0  0  0  0
   -5.1333    6.9886   -8.3089 C   0  0  0  0  0  0  0  0  0  0  0  0
   -4.1294    6.8373   -5.2252 C   0  0  0  0  0  0  0  0  0  0  0  0
   -3.1975    5.6308   -1.8954 C   0  0  0  0  0  0  0  0  0  0  0  0
   -2.2798    4.2358   -1.3520 S   0  0  0  0  0  0  0  0  0  0  0  0
   -2.4623    3.4926   -2.8965 C   0  0  0  0  0  0  0  0  0  0  0  0
   -2.0734    2.2883   -3.4900 C   0  0  0  0  0  0  0  0  0  0  0  0
   -1.3526    1.1775   -3.1327 N   0  0  0  0  0  0  0  0  0  0  0  0
   -1.3547    0.3347   -4.2273 C   0  0  0  0  0  0  0  0  0  0  0  0
   -0.7132   -0.9038   -4.4250 C   0  0  0  0  0  0  0  0  0  0  0  0
    0.2589   -1.5346   -3.6733 N   0  0  0  0  0  0  0  0  0  0  0  0
    0.4220   -2.7860   -4.2115 C   0  0  0  0  0  0  0  0  0  0  0  0
    1.1574   -3.9388   -3.9228 C   0  0  0  0  0  0  0  0  0  0  0  0
    2.3198   -4.4106   -2.7390 S   0  0  0  0  0  0  0  0  0  0  0  0
    1.3424   -0.8843   -2.9633 C   0  0  0  0  0  0  0  0  0  0  0  0
    2.6103   -0.8335   -3.8152 C   0  0  0  0  0  0  0  0  0  0  0  0
   -1.2630    0.7799   -1.7422 C   0  0  0  0  0  0  0  0  0  0  0  0
   -2.6501    0.5506   -1.1426 C   0  0  0  0  0  0  0  0  0  0  0  0
   -3.3238    6.7260   -0.9902 C   0  0  0  0  0  0  0  0  0  0  0  0
   -3.5265    8.0470   -1.2656 C   0  0  0  0  0  0  0  0  0  0  0  0
   -3.5360    8.8728   -0.1155 C   0  0  0  0  0  0  0  0  0  0  0  0
   -3.6856   10.2673   -0.0560 C   0  0  0  0  0  0  0  0  0  0  0  0
   -3.8416   11.0590   -1.2831 C   0  0  0  0  0  0  0  0  0  0  0  0
   -2.9406   10.9270   -2.3386 C   0  0  0  0  0  0  0  0  0  0  0  0
   -3.1119   11.6454   -3.5021 C   0  0  0  0  0  0  0  0  0  0  0  0
   -4.1803   12.5254   -3.6586 C   0  0  0  0  0  0  0  0  0  0  0  0
   -4.2763   13.4223   -5.1815 S   0  0  0  0  0  0  0  0  0  0  0  0
   -6.0595   13.3870   -5.5956 C   0  0  0  0  0  0  0  0  0  0  0  0
   -6.5701   11.9681   -5.7449 C   0  0  0  0  0  0  0  0  0  0  0  0
   -5.0500   12.6754   -2.5829 C   0  0  0  0  0  0  0  0  0  0  0  0
   -6.0892   13.5349   -2.6499 F   0  0  0  0  0  0  0  0  0  0  0  0
   -4.8981   11.9526   -1.4169 C   0  0  0  0  0  0  0  0  0  0  0  0
   -3.6703   10.8511    1.2037 C   0  0  0  0  0  0  0  0  0  0  0  0
   -3.4954   10.0941    2.3940 C   0  0  0  0  0  0  0  0  0  0  0  0
   -3.3300    8.6940    2.3365 C   0  0  0  0  0  0  0  0  0  0  0  0
   -3.1027    7.8884    3.5408 C   0  0  0  0  0  0  0  0  0  0  0  0
   -2.1093    8.2266    4.4594 C   0  0  0  0  0  0  0  0  0  0  0  0
   -1.8724    7.4322    5.5597 C   0  0  0  0  0  0  0  0  0  0  0  0
   -2.6226    6.2817    5.8033 C   0  0  0  0  0  0  0  0  0  0  0  0
   -2.2383    5.3735    7.2687 S   0  0  0  0  0  0  0  0  0  0  0  0
   -2.5018    3.6198    6.8125 C   0  0  0  0  0  0  0  0  0  0  0  0
   -1.6545    3.2045    5.6266 C   0  0  0  0  0  0  0  0  0  0  0  0
   -3.6350    5.9783    4.8978 C   0  0  0  0  0  0  0  0  0  0  0  0
   -3.8638    6.7483    3.7760 C   0  0  0  0  0  0  0  0  0  0  0  0
   -4.4418    4.9106    5.0873 F   0  0  0  0  0  0  0  0  0  0  0  0
   -3.3652    8.1232    1.0791 C   0  0  0  0  0  0  0  0  0  0  0  0
   -3.1476    6.4280    0.7307 S   0  0  0  0  0  0  0  0  0  0  0  0
   -3.5275   10.9159    3.5314 C   0  0  0  0  0  0  0  0  0  0  0  0
   -3.6650   12.2620    3.2511 C   0  0  0  0  0  0  0  0  0  0  0  0
   -3.7930   12.5586    1.5283 S   0  0  0  0  0  0  0  0  0  0  0  0
   -3.6903   13.2252    4.2844 C   0  0  0  0  0  0  0  0  0  0  0  0
   -3.7307   14.5872    4.2292 C   0  0  0  0  0  0  0  0  0  0  0  0
   -3.7213   15.4108    3.0051 C   0  0  0  0  0  0  0  0  0  0  0  0
   -3.7784   15.0250    1.8538 O   0  0  0  0  0  0  0  0  0  0  0  0
   -3.6211   16.8090    3.4535 C   0  0  0  0  0  0  0  0  0  0  0  0
   -3.5283   17.9407    2.6464 C   0  0  0  0  0  0  0  0  0  0  0  0
   -3.4240   19.1188    3.3456 C   0  0  0  0  0  0  0  0  0  0  0  0
   -3.4212   19.1688    4.7466 C   0  0  0  0  0  0  0  0  0  0  0  0
   -3.5185   18.0612    5.5541 C   0  0  0  0  0  0  0  0  0  0  0  0
   -3.6173   16.8496    4.8631 C   0  0  0  0  0  0  0  0  0  0  0  0
   -3.7168   15.4847    5.3728 C   0  0  0  0  0  0  0  0  0  0  0  0
   -3.8014   15.1364    6.6956 C   0  0  0  0  0  0  0  0  0  0  0  0
   -3.9219   13.8243    7.2009 C   0  0  0  0  0  0  0  0  0  0  0  0
   -4.0222   12.7954    7.7023 N   0  0  0  0  0  0  0  0  0  0  0  0
   -3.7953   16.0547    7.7673 C   0  0  0  0  0  0  0  0  0  0  0  0
   -3.7939   16.7347    8.6924 N   0  0  0  0  0  0  0  0  0  0  0  0
   -3.2706   20.6688    4.7726 C   0  0  0  0  0  0  0  0  0  0  0  0
   -1.8698   21.2445    5.0972 C   0  0  0  0  0  0  0  0  0  0  0  0
   -0.8681   20.1978    4.6766 C   0  0  0  0  0  0  0  0  0  0  0  0
   -0.8665   20.1484    3.3512 C   0  0  0  0  0  0  0  0  0  0  0  0
   -1.8667   21.1616    2.8514 C   0  0  0  0  0  0  0  0  0  0  0  0
   -1.7233   22.2411    3.9362 C   0  0  0  0  0  0  0  0  0  0  0  0
   -3.2698   20.6129    3.2122 C   0  0  0  0  0  0  0  0  0  0  0  0
    7.6225  -11.6975    3.3281 H   0  0  0  0  0  0  0  0  0  0  0  0
    3.2816  -16.1989    3.4011 H   0  0  0  0  0  0  0  0  0  0  0  0
    7.2239  -15.9872    6.5749 H   0  0  0  0  0  0  0  0  0  0  0  0
    4.6704  -17.8339    7.9363 H   0  0  0  0  0  0  0  0  0  0  0  0
    6.2426  -19.7178    7.5141 H   0  0  0  0  0  0  0  0  0  0  0  0
    7.1232  -19.4174    5.0707 H   0  0  0  0  0  0  0  0  0  0  0  0
    5.0510  -19.5685    3.4151 H   0  0  0  0  0  0  0  0  0  0  0  0
    2.8933  -19.9650    4.8391 H   0  0  0  0  0  0  0  0  0  0  0  0
    3.6131  -20.2871    7.4132 H   0  0  0  0  0  0  0  0  0  0  0  0
    4.5384  -21.3816    6.3551 H   0  0  0  0  0  0  0  0  0  0  0  0
    2.6536  -17.9865    6.3320 H   0  0  0  0  0  0  0  0  0  0  0  0
    4.8921  -12.5593    0.6350 H   0  0  0  0  0  0  0  0  0  0  0  0
    1.4711  -10.7506   -1.5452 H   0  0  0  0  0  0  0  0  0  0  0  0
    0.4382  -12.6260   -2.6808 H   0  0  0  0  0  0  0  0  0  0  0  0
   -0.5852  -14.1944   -3.6978 H   0  0  0  0  0  0  0  0  0  0  0  0
   -0.3687  -15.4108   -4.9630 H   0  0  0  0  0  0  0  0  0  0  0  0
    0.7272  -12.5480   -5.1195 H   0  0  0  0  0  0  0  0  0  0  0  0
    0.9024  -13.7970   -6.3550 H   0  0  0  0  0  0  0  0  0  0  0  0
   -0.6981  -13.1471   -5.9765 H   0  0  0  0  0  0  0  0  0  0  0  0
    5.2919  -12.6723   -1.8182 H   0  0  0  0  0  0  0  0  0  0  0  0
    5.8681   -7.1507    2.5003 H   0  0  0  0  0  0  0  0  0  0  0  0
    7.1574   -5.2289    3.2247 H   0  0  0  0  0  0  0  0  0  0  0  0
    9.6733   -2.5431    3.6497 H   0  0  0  0  0  0  0  0  0  0  0  0
    8.2840   -3.5824    3.9935 H   0  0  0  0  0  0  0  0  0  0  0  0
   10.4360   -4.7600    4.5413 H   0  0  0  0  0  0  0  0  0  0  0  0
   10.9995   -4.4983    2.8867 H   0  0  0  0  0  0  0  0  0  0  0  0
    9.6369   -5.5767    3.1932 H   0  0  0  0  0  0  0  0  0  0  0  0
    6.7676   -6.2254   -1.5852 H   0  0  0  0  0  0  0  0  0  0  0  0
    4.3641   -5.7754   -1.4701 H   0  0  0  0  0  0  0  0  0  0  0  0
    3.5097   -7.6843   -5.5753 H   0  0  0  0  0  0  0  0  0  0  0  0
    3.2439   -9.7526   -6.8885 H   0  0  0  0  0  0  0  0  0  0  0  0
    0.9966  -10.6286   -7.3753 H   0  0  0  0  0  0  0  0  0  0  0  0
   -2.0796   -9.3711   -5.8544 H   0  0  0  0  0  0  0  0  0  0  0  0
   -1.3743  -10.6164   -6.8970 H   0  0  0  0  0  0  0  0  0  0  0  0
   -2.9205   -9.1494   -8.1820 H   0  0  0  0  0  0  0  0  0  0  0  0
   -1.9602   -7.7342   -7.7360 H   0  0  0  0  0  0  0  0  0  0  0  0
   -1.2646   -8.9776   -8.7741 H   0  0  0  0  0  0  0  0  0  0  0  0
   -0.7359   -7.3768   -5.2268 H   0  0  0  0  0  0  0  0  0  0  0  0
   -5.8881    6.7151   -2.3406 H   0  0  0  0  0  0  0  0  0  0  0  0
   -7.2918    8.2970   -3.6036 H   0  0  0  0  0  0  0  0  0  0  0  0
   -6.6832    8.9293   -5.9022 H   0  0  0  0  0  0  0  0  0  0  0  0
   -4.9779    9.0294   -7.6363 H   0  0  0  0  0  0  0  0  0  0  0  0
   -3.4823    8.0959   -7.4834 H   0  0  0  0  0  0  0  0  0  0  0  0
   -4.8783    7.2178   -9.3407 H   0  0  0  0  0  0  0  0  0  0  0  0
   -4.7295    6.0103   -8.0584 H   0  0  0  0  0  0  0  0  0  0  0  0
   -6.2165    6.9437   -8.2199 H   0  0  0  0  0  0  0  0  0  0  0  0
   -3.2375    6.4276   -5.6769 H   0  0  0  0  0  0  0  0  0  0  0  0
    1.5397   -1.4367   -2.0387 H   0  0  0  0  0  0  0  0  0  0  0  0
    1.0468    0.1363   -2.7252 H   0  0  0  0  0  0  0  0  0  0  0  0
    2.4134   -0.3137   -4.7504 H   0  0  0  0  0  0  0  0  0  0  0  0
    3.3890   -0.3015   -3.2760 H   0  0  0  0  0  0  0  0  0  0  0  0
    2.9696   -1.8335   -4.0402 H   0  0  0  0  0  0  0  0  0  0  0  0
   -0.6988   -0.1474   -1.6686 H   0  0  0  0  0  0  0  0  0  0  0  0
   -0.7445    1.5694   -1.1889 H   0  0  0  0  0  0  0  0  0  0  0  0
   -2.5506    0.2167   -0.1136 H   0  0  0  0  0  0  0  0  0  0  0  0
   -3.1818   -0.2111   -1.7090 H   0  0  0  0  0  0  0  0  0  0  0  0
   -3.2360    1.4653   -1.1525 H   0  0  0  0  0  0  0  0  0  0  0  0
   -3.6563    8.4216   -2.2638 H   0  0  0  0  0  0  0  0  0  0  0  0
   -2.0926   10.2668   -2.2377 H   0  0  0  0  0  0  0  0  0  0  0  0
   -2.4153   11.5378   -4.3191 H   0  0  0  0  0  0  0  0  0  0  0  0
   -6.6115   13.9436   -4.8421 H   0  0  0  0  0  0  0  0  0  0  0  0
   -6.1091   13.9253   -6.5420 H   0  0  0  0  0  0  0  0  0  0  0  0
   -5.9830   11.4327   -6.4884 H   0  0  0  0  0  0  0  0  0  0  0  0
   -6.5025   11.4308   -4.8003 H   0  0  0  0  0  0  0  0  0  0  0  0
   -7.6114   11.9830   -6.0615 H   0  0  0  0  0  0  0  0  0  0  0  0
   -5.6128   12.0954   -0.6219 H   0  0  0  0  0  0  0  0  0  0  0  0
   -1.4953    9.0969    4.2854 H   0  0  0  0  0  0  0  0  0  0  0  0
   -1.0908    7.6869    6.2584 H   0  0  0  0  0  0  0  0  0  0  0  0
   -3.5619    3.4527    6.6360 H   0  0  0  0  0  0  0  0  0  0  0  0
   -2.2038    3.0847    7.7143 H   0  0  0  0  0  0  0  0  0  0  0  0
   -1.9520    3.7409    4.7276 H   0  0  0  0  0  0  0  0  0  0  0  0
   -0.6030    3.4080    5.8186 H   0  0  0  0  0  0  0  0  0  0  0  0
   -1.7779    2.1386    5.4457 H   0  0  0  0  0  0  0  0  0  0  0  0
   -4.6647    6.4648    3.1110 H   0  0  0  0  0  0  0  0  0  0  0  0
   -3.4595   10.5430    4.5384 H   0  0  0  0  0  0  0  0  0  0  0  0
   -3.6441   12.7755    5.2691 H   0  0  0  0  0  0  0  0  0  0  0  0
   -3.5368   17.8554    1.5710 H   0  0  0  0  0  0  0  0  0  0  0  0
   -3.5124   18.1192    6.6294 H   0  0  0  0  0  0  0  0  0  0  0  0
   -4.0701   21.2199    5.2633 H   0  0  0  0  0  0  0  0  0  0  0  0
   -1.7642   21.6317    6.1070 H   0  0  0  0  0  0  0  0  0  0  0  0
   -0.3224   19.5803    5.3658 H   0  0  0  0  0  0  0  0  0  0  0  0
   -0.3196   19.4808    2.7114 H   0  0  0  0  0  0  0  0  0  0  0  0
   -1.7568   21.4740    1.8163 H   0  0  0  0  0  0  0  0  0  0  0  0
   -2.5108   22.9929    3.9076 H   0  0  0  0  0  0  0  0  0  0  0  0
   -0.7493   22.7276    3.9197 H   0  0  0  0  0  0  0  0  0  0  0  0
   -4.0666   21.1310    2.6823 H   0  0  0  0  0  0  0  0  0  0  0  0
  1  2  2  0  0  0  0
  2  3  1  0  0  0  0
  3  4  2  0  0  0  0
  3  5  1  0  0  0  0
  5  6  2  0  0  0  0
  6  7  1  0  0  0  0
  7  8  2  0  0  0  0
  8  9  1  0  0  0  0
  9 10  2  0  0  0  0
 10 11  1  0  0  0  0
 11 12  2  0  0  0  0
 12 13  1  0  0  0  0
 13 14  3  0  0  0  0
 12 15  1  0  0  0  0
 15 16  3  0  0  0  0
  8 17  1  0  0  0  0
 17 18  1  0  0  0  0
 18 19  1  0  0  0  0
 19 20  2  0  0  0  0
 20 21  1  0  0  0  0
 21 22  1  0  0  0  0
 21 23  1  0  0  0  0
  1 24  1  0  0  0  0
 24 25  2  0  0  0  0
 25 26  1  0  0  0  0
 26 27  2  0  0  0  0
 27 28  1  0  0  0  0
 28 29  2  0  0  0  0
 29 30  1  0  0  0  0
 30 31  2  0  0  0  0
 31 32  1  0  0  0  0
 32 33  1  0  0  0  0
 33 34  1  0  0  0  0
 31 35  1  0  0  0  0
 35 36  1  0  0  0  0
 35 37  2  0  0  0  0
 27 38  1  0  0  0  0
 38 39  2  0  0  0  0
 39 40  1  0  0  0  0
 40 41  1  0  0  0  0
 41 42  2  0  0  0  0
 42 43  1  0  0  0  0
 43 44  2  0  0  0  0
 44 45  1  0  0  0  0
 45 46  1  0  0  0  0
 46 47  1  0  0  0  0
 44 48  1  0  0  0  0
 48 49  2  0  0  0  0
 48 50  1  0  0  0  0
 40 51  2  0  0  0  0
 51 52  1  0  0  0  0
 39 53  1  0  0  0  0
 53 54  2  0  0  0  0
 54 55  1  0  0  0  0
 54 56  1  0  0  0  0
 56 57  2  0  0  0  0
 57 58  1  0  0  0  0
 58 59  2  0  0  0  0
 59 60  1  0  0  0  0
 60 61  2  0  0  0  0
 61 62  1  0  0  0  0
 62 63  1  0  0  0  0
 63 64  1  0  0  0  0
 62 65  2  0  0  0  0
 57 66  1  0  0  0  0
 66 67  1  0  0  0  0
 67 68  1  0  0  0  0
 68 69  1  0  0  0  0
 69 70  1  0  0  0  0
 70 71  1  0  0  0  0
 71 72  2  0  0  0  0
 72 73  1  0  0  0  0
 73 74  1  0  0  0  0
 71 75  1  0  0  0  0
 75 76  1  0  0  0  0
 76 77  1  0  0  0  0
 77 78  1  0  0  0  0
 78 79  1  0  0  0  0
 79 80  1  0  0  0  0
 80 81  2  0  0  0  0
 81 82  1  0  0  0  0
 82 83  2  0  0  0  0
 83 84  1  0  0  0  0
 84 85  1  0  0  0  0
 85 86  1  0  0  0  0
 84 87  2  0  0  0  0
 79 88  2  0  0  0  0
 88 89  1  0  0  0  0
 89 90  1  0  0  0  0
 90 91  1  0  0  0  0
 91 92  1  0  0  0  0
 92 93  1  0  0  0  0
 93 94  1  0  0  0  0
 94 95  1  0  0  0  0
 95 96  1  0  0  0  0
 96 97  1  0  0  0  0
 97 98  1  0  0  0  0
 95 99  1  0  0  0  0
 99100  1  0  0  0  0
 92101  1  0  0  0  0
101102  1  0  0  0  0
 88103  1  0  0  0  0
103104  2  0  0  0  0
104105  1  0  0  0  0
105106  2  0  0  0  0
106107  1  0  0  0  0
107108  2  0  0  0  0
108109  1  0  0  0  0
109110  2  0  0  0  0
110111  1  0  0  0  0
111112  1  0  0  0  0
112113  1  0  0  0  0
110114  1  0  0  0  0
114115  1  0  0  0  0
114116  2  0  0  0  0
106117  1  0  0  0  0
117118  2  0  0  0  0
118119  1  0  0  0  0
119120  1  0  0  0  0
120121  2  0  0  0  0
121122  1  0  0  0  0
122123  2  0  0  0  0
123124  1  0  0  0  0
124125  1  0  0  0  0
125126  1  0  0  0  0
123127  1  0  0  0  0
127128  2  0  0  0  0
127129  1  0  0  0  0
119130  2  0  0  0  0
130131  1  0  0  0  0
118132  1  0  0  0  0
132133  2  0  0  0  0
133134  1  0  0  0  0
133135  1  0  0  0  0
135136  2  0  0  0  0
136137  1  0  0  0  0
137138  2  0  0  0  0
137139  1  0  0  0  0
139140  2  0  0  0  0
140141  1  0  0  0  0
141142  2  0  0  0  0
142143  1  0  0  0  0
143144  2  0  0  0  0
144145  1  0  0  0  0
145146  2  0  0  0  0
146147  1  0  0  0  0
147148  3  0  0  0  0
146149  1  0  0  0  0
149150  3  0  0  0  0
142151  1  0  0  0  0
151152  1  0  0  0  0
152153  1  0  0  0  0
153154  2  0  0  0  0
154155  1  0  0  0  0
155156  1  0  0  0  0
155157  1  0  0  0  0
 11  2  1  0  0  0  0
 23 17  1  0  0  0  0
 52 24  1  0  0  0  0
 98 56  1  0  0  0  0
131103  1  0  0  0  0
145136  1  0  0  0  0
157151  1  0  0  0  0
 10  5  1  0  0  0  0
 22 18  1  0  0  0  0
 51 26  1  0  0  0  0
 65 58  1  0  0  0  0
 97 66  2  0  0  0  0
130105  1  0  0  0  0
144139  1  0  0  0  0
156152  1  0  0  0  0
 23  7  1  0  0  0  0
 37 28  1  0  0  0  0
 55 38  1  0  0  0  0
 96 68  2  0  0  0  0
116107  1  0  0  0  0
134117  1  0  0  0  0
157141  1  0  0  0  0
 49 41  1  0  0  0  0
 94 69  2  0  0  0  0
128120  1  0  0  0  0
 74 70  2  0  0  0  0
 93 75  2  0  0  0  0
 91 76  2  0  0  0  0
 90 78  2  0  0  0  0
 87 80  1  0  0  0  0
  1158  1  0  0  0  0
  6159  1  0  0  0  0
  9160  1  0  0  0  0
 17161  1  0  0  0  0
 18162  1  0  0  0  0
 19163  1  0  0  0  0
 20164  1  0  0  0  0
 21165  1  0  0  0  0
 22166  1  0  0  0  0
 22167  1  0  0  0  0
 23168  1  0  0  0  0
 25169  1  0  0  0  0
 29170  1  0  0  0  0
 30171  1  0  0  0  0
 33172  1  0  0  0  0
 33173  1  0  0  0  0
 34174  1  0  0  0  0
 34175  1  0  0  0  0
 34176  1  0  0  0  0
 37177  1  0  0  0  0
 42178  1  0  0  0  0
 43179  1  0  0  0  0
 46180  1  0  0  0  0
 46181  1  0  0  0  0
 47182  1  0  0  0  0
 47183  1  0  0  0  0
 47184  1  0  0  0  0
 49185  1  0  0  0  0
 53186  1  0  0  0  0
 59187  1  0  0  0  0
 60188  1  0  0  0  0
 61189  1  0  0  0  0
 63190  1  0  0  0  0
 63191  1  0  0  0  0
 64192  1  0  0  0  0
 64193  1  0  0  0  0
 64194  1  0  0  0  0
 65195  1  0  0  0  0
 81196  1  0  0  0  0
 82197  1  0  0  0  0
 83198  1  0  0  0  0
 85199  1  0  0  0  0
 85200  1  0  0  0  0
 86201  1  0  0  0  0
 86202  1  0  0  0  0
 86203  1  0  0  0  0
 87204  1  0  0  0  0
 99205  1  0  0  0  0
 99206  1  0  0  0  0
100207  1  0  0  0  0
100208  1  0  0  0  0
100209  1  0  0  0  0
101210  1  0  0  0  0
101211  1  0  0  0  0
102212  1  0  0  0  0
102213  1  0  0  0  0
102214  1  0  0  0  0
104215  1  0  0  0  0
108216  1  0  0  0  0
109217  1  0  0  0  0
112218  1  0  0  0  0
112219  1  0  0  0  0
113220  1  0  0  0  0
113221  1  0  0  0  0
113222  1  0  0  0  0
116223  1  0  0  0  0
121224  1  0  0  0  0
122225  1  0  0  0  0
125226  1  0  0  0  0
125227  1  0  0  0  0
126228  1  0  0  0  0
126229  1  0  0  0  0
126230  1  0  0  0  0
128231  1  0  0  0  0
132232  1  0  0  0  0
135233  1  0  0  0  0
140234  1  0  0  0  0
143235  1  0  0  0  0
151236  1  0  0  0  0
152237  1  0  0  0  0
153238  1  0  0  0  0
154239  1  0  0  0  0
155240  1  0  0  0  0
156241  1  0  0  0  0
156242  1  0  0  0  0
157243  1  0  0  0  0
M  END
