235

C          9.60500       -7.21300        5.28570
C         10.60850       -7.69000        4.50560
C         11.37690       -8.89560        4.92320
O         11.05190       -9.70920        5.75750
C         12.63350       -8.83820        4.15070
C         13.73180       -9.68840        4.26180
C         14.76660       -9.38270        3.41100
C         14.72560       -8.30010        2.52090
C         13.64970       -7.45450        2.39640
C         12.58040       -7.75830        3.24240
C         11.26070       -7.14520        3.33080
C         10.65680       -6.40720        2.34680
C          9.26440       -6.17420        2.30940
N          8.13160       -6.02630        2.19500
C         11.32500       -5.83880        1.24660
N         11.81820       -5.29260        0.36430
C         16.09990       -8.59400        1.97470
C         16.18790       -9.27490        0.58650
C         14.90720      -10.05270        0.40940
C         14.94050      -11.08220        1.24500
C         16.24400      -11.01910        2.00220
C         17.15670      -10.42070        0.91980
C         16.14210       -9.80500        2.95930
C          9.02220       -5.91730        5.27150
C          7.79590       -5.56880        5.77650
C          7.44690       -4.21680        5.55370
C          6.24110       -3.55810        5.86600
C          5.18660       -4.22550        6.63580
C          5.48570       -4.87800        7.82910
C          4.50010       -5.49210        8.57740
C          3.17480       -5.47800        8.15720
S          1.82180       -6.23500        8.99040
C          2.48590       -6.66870       10.63520
C          2.69800       -5.44880       11.51170
C          2.89150       -4.82840        6.95320
F          1.62000       -4.80900        6.50810
C          3.86240       -4.20830        6.20110
C          6.11280       -2.25440        5.41220
C          7.12560       -1.58050        4.68160
C          8.33350       -2.23020        4.38330
C          9.36650       -1.61950        3.53670
C          9.79550       -2.30180        2.40080
C         10.76950       -1.78040        1.57420
C         11.35780       -0.55420        1.86300
S         12.61160        0.22290        0.90340
C         13.15070       -1.07300       -0.26480
C         13.94310       -2.17560        0.41040
C         10.90210        0.12840        2.99300
C          9.92450       -0.37600        3.82170
F         11.44790        1.32590        3.29170
C          8.46230       -3.52670        4.84420
S          9.86140       -4.52960        4.59590
C          6.72790       -0.28630        4.28100
C          5.47440        0.05430        4.70140
S          4.71540       -1.22910        5.62180
C          4.77570        1.25970        4.39300
C          5.33070        2.48440        4.07020
C          6.75190        2.80930        4.21920
C          7.40410        2.56630        5.42520
C          8.74750        2.86330        5.55100
C          9.44960        3.39120        4.48090
C          8.81310        3.63890        3.27140
C          9.56710        4.23910        2.12150
C          9.50550        5.76620        2.18560
C          7.45920        3.35800        3.15630
C          4.34740        3.38170        3.61270
S          4.41820        5.02470        3.02170
C          2.71330        4.96690        2.71850
C          1.69880        5.76610        2.15920
C          1.66850        7.10530        1.70960
C          0.43540        7.64560        1.20040
N          0.54550        8.92040        0.86370
S          2.06370        9.40180        1.15500
N          2.64340        7.99990        1.72140
C         -0.67290        6.78510        1.02760
C         -1.87770        6.93570        0.31950
S         -2.72810        8.14500       -0.58520
C         -3.89400        6.93390       -1.06850
C         -4.99500        6.96790       -1.94790
C         -5.42170        8.17850       -2.65520
C         -5.63270        9.35440       -1.94170
C         -6.02790       10.50030       -2.60590
C         -6.20020       10.48720       -3.97880
C         -5.97160        9.32770       -4.70950
C         -6.09070        9.32500       -6.20630
C         -4.73070        9.60280       -6.84930
C         -5.58080        8.17940       -4.03680
C         -5.57320        5.71620       -2.05580
S         -4.76370        4.49950       -1.08360
C         -3.62990        5.67270       -0.52760
C         -2.48540        5.67680        0.27710
N         -1.72970        4.76500        0.96520
C         -0.61460        5.42630        1.44100
C          0.52430        4.96800        2.14560
N          0.79290        3.75500        2.75460
C          2.12530        3.75110        3.07900
C          3.05670        2.84770        3.60240
S          3.03470        1.22140        4.18180
C         -0.13630        2.91670        3.48140
C         -0.03990        3.15520        4.98810
C         -1.95110        3.34630        0.78050
C         -3.16960        2.83950        1.54980
C         -6.70780        5.24490       -2.77360
C         -7.65060        5.83500       -3.57490
C         -8.52070        4.80140       -4.00740
C         -9.64150        4.77840       -4.86290
C        -10.13490        5.92490       -5.57960
C        -11.34120        6.07520       -6.21200
C        -11.47050        7.32350       -6.85400
Cl       -12.89430        7.77100       -7.71290
C        -10.37750        8.13500       -6.74330
C        -10.16790        9.51360       -7.26360
C        -10.07290       10.52910       -6.12340
S         -9.15570        7.35000       -5.80650
C        -10.22150        3.51430       -4.99000
C         -9.73810        2.33240       -4.36100
C         -8.59500        2.35020       -3.52780
C         -8.02480        1.19740       -2.88410
S         -8.45730       -0.43200       -3.32610
C         -7.36040       -1.11480       -2.17960
C         -7.25290       -2.58890       -2.00470
C         -8.51870       -3.16240       -1.36410
C         -6.71530       -0.11820       -1.50190
C         -7.07420        1.18360       -1.89300
Cl        -5.54510       -0.41180       -0.27330
C         -8.03780        3.61820       -3.38810
O         -6.94050        3.90670       -2.65630
C        -10.61340        1.30560       -4.76870
C        -11.54650        1.87910       -5.60780
O        -11.30220        3.22350       -5.73690
C        -12.66170        1.40400       -6.33440
C        -13.16560        0.14470       -6.48280
C        -12.62730       -1.13140       -5.95140
O        -11.71990       -1.30470       -5.16410
C        -13.42870       -2.19840       -6.57720
C        -13.24750       -3.57120       -6.41730
C        -14.13560       -4.33900       -7.13020
C        -15.13400       -3.78210       -7.94140
C        -15.32750       -2.43120       -8.10220
C        -14.43190       -1.62990       -7.38520
C        -14.32760       -0.17580       -7.29990
C        -15.21220        0.70930       -7.85900
C        -15.18460        2.11490       -7.72850
N        -15.26200        3.25950       -7.66870
C        -16.32950        0.33800       -8.63740
N        -17.25330        0.11920       -9.28320
C        -15.65300       -5.13290       -8.36750
C        -15.25260       -5.61120       -9.77920
C        -15.47870       -7.10520       -9.73250
C        -14.53380       -7.63250       -8.96460
C        -13.65310       -6.50380       -8.47920
C        -13.72100       -5.57380       -9.69740
C        -14.54040       -5.75350       -7.46290
H          9.24300       -7.88930        6.05380
H         13.72890      -10.50940        4.96160
H         13.62510       -6.62100        1.71320
H         16.84220       -7.80840        2.10080
H         16.46080       -8.60810       -0.22700
H         14.10910       -9.75120       -0.24350
H         14.17520      -11.81320        1.42980
H         16.56840      -11.94130        2.47680
H         17.31350      -11.09660        0.08060
H         18.11770      -10.07940        1.30210
H         16.91560       -9.81470        3.72470
H          7.13280       -6.28550        6.22750
H          6.50290       -4.88420        8.19150
H          4.77820       -5.98710        9.49360
H          1.71730       -7.31750       11.05550
H          3.39540       -7.25290       10.50240
H          1.76000       -4.91450       11.64230
H          3.06340       -5.75490       12.49010
H          3.42030       -4.76700       11.06780
H          3.58330       -3.73680        5.27260
H          9.33930       -3.24540        2.14110
H         11.05930       -2.34300        0.70230
H         13.77250       -0.52800       -0.97540
H         12.27560       -1.45290       -0.78970
H         14.82210       -1.76240        0.90020
H         13.34230       -2.69220        1.15560
H         14.26340       -2.90280       -0.33290
H          9.62230        0.19190        4.68800
H          7.33510        0.35350        3.66860
H          6.85290        2.15080        6.25630
H          9.25210        2.67900        6.48860
H         10.50370        3.60200        4.57900
H          9.13400        3.90080        1.17790
H         10.60800        3.91310        2.15750
H         10.05010        6.20340        1.35220
H          8.47260        6.10530        2.14380
H          9.94550        6.12350        3.11390
H          6.94990        3.54440        2.22140
H         -5.50060        9.36200       -0.87030
H         -6.20100       11.40940       -2.04940
H         -6.50940       11.38730       -4.49060
H         -6.46120        8.35550       -6.54450
H         -6.79980       10.09240       -6.52130
H         -4.81360        9.59440       -7.93360
H         -4.35570       10.57490       -6.53670
H         -4.00870        8.84660       -6.55000
H         -5.38440        7.27440       -4.59340
H          0.08240        1.86720        3.25840
H         -1.14500        3.15690        3.16100
H         -0.21710        4.20460        5.21490
H          0.93900        2.87700        5.36750
H         -0.78850        2.55500        5.49800
H         -1.04630        2.80660        1.05980
H         -2.12460        3.17460       -0.28830
H         -3.09290        3.04360        2.61530
H         -4.07200        3.31860        1.18100
H         -3.26920        1.76750        1.40610
H         -7.71240        6.87780       -3.79760
H        -12.11740        5.33430       -6.21160
H         -9.24610        9.54450       -7.85080
H        -11.00260        9.76700       -7.91930
H         -9.90750       11.52680       -6.52200
H         -9.25000       10.27430       -5.45830
H        -10.99430       10.53460       -5.54600
H         -7.09920       -3.06100       -2.97820
H         -6.38750       -2.80500       -1.37530
H         -8.42180       -4.23790       -1.24120
H         -8.68450       -2.71420       -0.38720
H         -9.38290       -2.95750       -1.99180
H         -6.65100        2.06200       -1.44640
H        -10.59170        0.27230       -4.49540
H        -13.16160        2.20360       -6.86760
H        -12.46680       -3.95430       -5.77910
H        -16.10160       -2.02220       -8.72920
H        -16.69450       -5.33800       -8.12800
H        -15.72500       -5.06960      -10.59400
H        -16.30780       -7.60130      -10.20190
H        -14.41590       -8.65720       -8.66430
H        -12.66780       -6.77580       -8.11040
H        -13.30970       -4.58150       -9.52180
H        -13.25140       -6.01230      -10.57640
H        -14.83970       -6.37350       -6.61990
