192

C         -5.48220       -8.54050        3.99860
C         -6.69710       -8.71370        4.59240
C         -7.52790       -7.72610        5.32820
O         -7.19860       -6.66000        5.80520
C         -8.88340       -8.30300        5.37460
C        -10.03310       -7.68320        5.86030
C        -11.16790       -8.45030        5.75630
C        -11.16270       -9.73930        5.20430
C        -10.03600      -10.36370        4.72560
C         -8.86790       -9.60230        4.83020
C         -7.50050       -9.91990        4.43600
C         -7.04680      -11.15830        4.06920
C         -7.86200      -12.30700        3.97880
N         -8.46440      -13.27970        3.88640
C         -5.70320      -11.49030        3.78910
N         -4.63590      -11.85110        3.56730
C        -12.64550       -9.91930        5.40960
C        -13.10660      -10.80440        6.59380
C        -12.00940      -10.74330        7.62760
C        -12.01460       -9.52510        8.15200
C        -13.11530       -8.74010        7.48210
C        -14.13700       -9.86170        7.23590
C        -12.65100       -8.48500        6.02660
C         -4.59770       -7.43490        4.00170
C         -4.56310       -6.28220        4.74400
C         -3.50120       -5.41980        4.40410
C         -3.20640       -4.16320        4.96780
C         -3.95140       -3.62550        6.11020
C         -4.15620       -4.38640        7.26080
C         -4.78530       -3.84030        8.35800
C         -5.25110       -2.52600        8.35070
S         -6.04900       -1.94350        9.81500
C         -5.53220       -0.19140        9.94980
C         -4.02470       -0.03730        9.97890
C         -5.08500       -1.79640        7.17760
F         -5.56310       -0.53700        7.06790
C         -4.43270       -2.32070        6.08140
C         -2.16220       -3.45880        4.39490
C         -1.37060       -3.96360        3.33170
C         -1.62720       -5.24140        2.80580
C         -0.77510       -5.81490        1.75740
C          0.61190       -5.83030        1.90220
C          1.41320       -6.39160        0.93200
C          0.87000       -6.94390       -0.22640
S          1.99740       -7.59220       -1.42520
C          1.18740       -9.12890       -2.00410
C          0.90330      -10.08460       -0.86310
C         -0.51330       -6.89550       -0.37060
C         -1.33000       -6.36090        0.60520
F         -1.10780       -7.36520       -1.48830
C         -2.70710       -5.92900        3.34020
S         -3.26280       -7.50040        2.84770
C         -0.39950       -3.02340        2.91090
C         -0.40180       -1.86630        3.63750
S         -1.62250       -1.87620        4.89570
C          0.36890       -0.69510        3.38410
C          0.55560        0.41640        4.18270
C          0.14410        0.52340        5.58480
C          0.51460       -0.45270        6.50680
C          0.12690       -0.33260        7.82680
C         -0.62300        0.75620        8.23740
C         -0.98910        1.74480        7.33350
C         -1.74850        2.95980        7.78060
C         -0.78370        4.11580        8.05220
C         -0.59490        1.62040        6.00920
C          1.22340        1.44180        3.48520
S          1.69990        3.05930        3.94130
C          2.32520        3.29510        2.34420
C          2.88340        4.31760        1.56280
C          3.12710        5.67370        1.86820
C          3.56860        6.54750        0.82260
N          3.70430        7.79960        1.23150
S          3.31480        7.86990        2.80110
N          2.95420        6.30660        3.01840
C          3.82580        6.00480       -0.45450
C          4.30010        6.61390       -1.62530
S          4.72530        8.18850       -2.20370
C          5.09060        7.48580       -3.76180
C          5.53380        8.04250       -4.97220
C          5.84110        9.46410       -5.14420
C          4.92660       10.42890       -4.73470
C          5.21130       11.76810       -4.92530
C          6.39670       12.15220       -5.52610
C          7.33110       11.20210       -5.92100
C          8.59360       11.60470       -6.62620
C          8.41820       11.46440       -8.14050
C          7.04820        9.86150       -5.71170
C          5.67240        7.07510       -5.95970
S          5.27870        5.46500       -5.36210
C          4.90180        6.10020       -3.80300
C          4.44730        5.60200       -2.57740
N          4.06830        4.39690       -2.04800
C          3.66440        4.61750       -0.73910
C          3.10270        3.77900        0.26180
N          2.67380        2.45980        0.26630
C          2.19150        2.17920        1.51560
C          1.55950        1.11370        2.17060
S          1.05820       -0.49340        1.77780
C          2.34890        1.57380       -0.82820
C          1.24550        2.15520       -1.70910
C          4.47980        3.17870       -2.71020
C          5.60550        2.48160       -1.95000
C          5.95220        7.27200       -7.33870
C          6.44850        6.36500       -8.28940
C          6.86310        4.94990       -8.06550
C          5.74910        4.00390       -8.51900
N          6.54730        6.84580       -9.52060
C          6.15670        8.07680       -9.64730
S          5.62040        8.78790       -8.11050
C          6.16970        8.89170      -10.79450
C          6.28450        8.47890      -12.09150
C          6.17040        7.08140      -12.57560
O          5.81920        6.10140      -11.96800
C          6.50390        7.14880      -14.02350
C          6.66980        6.10370      -14.91440
Cl         6.35370        4.48970      -14.46190
C          7.12380        6.39970      -16.20760
Cl         7.31530        5.14570      -17.35300
C          7.46350        7.70880      -16.54490
Cl         8.11220        8.03070      -18.09490
C          7.29800        8.76430      -15.63400
Cl         7.90950       10.30810      -16.06360
C          6.74100        8.48830      -14.39020
C          6.41650        9.34370      -13.25080
C          6.12840       10.68390      -13.29960
C          5.90240       11.51090      -12.17790
N          5.74660       12.26920      -11.32930
C          5.85640       11.41890      -14.47450
N          5.50090       12.06950      -15.35060
H         -5.13620       -9.35360        3.37000
H         -9.99300       -6.68590        6.26980
H        -10.04960      -11.35100        4.29500
H        -13.23360      -10.09020        4.51020
H        -13.44370      -11.79760        6.30990
H        -11.32700      -11.54930        7.82380
H        -11.33710       -9.10910        8.87450
H        -13.46130       -7.85360        8.00720
H        -14.55460      -10.26060        8.15900
H        -14.94250       -9.57480        6.56130
H        -13.24340       -7.71860        5.53040
H         -5.29580       -6.05210        5.49470
H         -3.78350       -5.39790        7.30690
H         -4.92370       -4.42470        9.25410
H         -5.98410        0.37710        9.14010
H         -5.97660        0.12200       10.89470
H         -3.58170       -0.32120        9.02580
H         -3.77210        1.00250       10.17770
H         -3.59260       -0.65810       10.76130
H         -4.33900       -1.70900        5.19800
H          1.05830       -5.42920        2.79940
H          2.48480       -6.41670        1.05480
H          1.91770       -9.54770       -2.69660
H          0.28570       -8.86870       -2.55390
H          1.81550      -10.30500       -0.31250
H          0.49960      -11.01460       -1.25790
H          0.17590       -9.66190       -0.17240
H         -2.39520       -6.34650        0.43640
H          0.26700       -3.18780        2.08260
H          1.11140       -1.29400        6.18550
H          0.41260       -1.09080        8.54090
H         -0.92320        0.84110        9.27180
H         -2.45920        3.25740        7.00720
H         -2.30830        2.73390        8.69020
H         -1.32980        4.99910        8.37460
H         -0.07550        3.84140        8.83090
H         -0.22350        4.36120        7.15290
H         -0.87940        2.37790        5.29320
H          3.99140       10.12680       -4.28840
H          4.49860       12.51600       -4.61150
H          6.60270       13.19990       -5.68860
H          9.42120       10.97110       -6.29960
H          8.83940       12.64030       -6.38600
H          8.21700       10.42830       -8.40510
H          7.58540       12.07270       -8.48570
H          9.31950       11.78390       -8.65830
H          7.77400        9.11120       -5.99530
H          1.99520        0.64240       -0.37900
H          3.24170        1.33070       -1.40350
H          1.53100        3.12480       -2.11030
H          1.03280        1.47960       -2.53310
H          0.33720        2.28500       -1.12540
H          4.84150        3.47140       -3.69910
H          3.62870        2.51630       -2.86710
H          5.88020        1.56010       -2.45600
H          5.30680        2.24920       -0.93040
H          6.47980        3.12710       -1.90680
H          7.11450        4.77560       -7.01880
H          7.74770        4.76710       -8.67750
H          6.06810        2.97080       -8.40960
H          5.51730        4.19630       -9.56320
H          4.85000        4.15520       -7.92540
H          6.09720        9.95100      -10.58860
