243

C          6.80260      -12.17690        2.80490
C          6.44740      -13.41670        3.24720
C          5.24480      -14.21480        2.89870
O          4.47350      -14.06200        1.97460
C          5.14470      -15.25660        3.93720
C          4.11240      -16.18000        4.08900
C          4.26650      -17.01880        5.16590
C          5.36420      -16.94170        6.03480
C          6.39080      -16.03930        5.89400
C          6.25740      -15.18150        4.79790
C          7.12790      -14.10720        4.33450
C          8.38910      -13.84930        4.80170
C          9.26950      -12.86720        4.29770
N         10.05670      -12.10980        3.94310
C          9.01520      -14.57090        5.84040
N          9.58520      -15.11150        6.67760
C          4.86560      -18.07640        6.89360
C          5.54260      -19.45880        6.72450
C          6.08070      -19.50200        5.31570
C          5.04610      -19.57770        4.48930
C          3.78940      -19.58750        5.32440
C          4.29440      -20.34140        6.56500
C          3.64600      -18.16600        5.92270
C          6.22980      -11.34990        1.80920
C          5.32690      -11.59240        0.80550
C          4.99820      -10.44820        0.04990
C          4.09410      -10.36450       -1.02770
C          3.45960      -11.54710       -1.61610
C          2.09120      -11.57100       -1.87160
C          1.50290      -12.64120       -2.51440
C          2.26600      -13.72210       -2.94050
S          1.63930      -15.11720       -3.81280
C          0.06210      -14.51650       -4.51260
C          0.26390      -13.43190       -5.55400
C          3.62970      -13.70460       -2.64080
F          4.39650      -14.74490       -3.02110
C          4.22750      -12.64840       -1.99140
C          3.84910       -9.09870       -1.53080
C          4.50480       -7.93230       -1.06050
C          5.46210       -8.02280       -0.03490
C          6.21770       -6.84600        0.40830
C          6.35670       -6.53820        1.75860
C          7.08740       -5.44110        2.17020
C          7.71570       -4.61410        1.24600
S          8.66380       -3.18390        1.64660
C          9.17490       -3.47310        3.37610
C         10.11900       -4.65260        3.50590
C          7.55590       -4.92520       -0.10530
C          6.82830       -6.01370       -0.52920
F          8.13710       -4.13930       -1.03410
C          5.66200       -9.28030        0.51590
S          6.74300       -9.66060        1.82220
C          4.03740       -6.77000       -1.71750
C          3.09990       -7.01750       -2.68070
S          2.74280       -8.72690       -2.83090
C          2.36340       -6.03830       -3.40780
C          1.53970       -6.18340       -4.50870
C          1.40100       -7.40970       -5.29740
C          2.52450       -8.07840       -5.77710
C          2.37190       -9.23300       -6.51970
C          1.10730       -9.72360       -6.79540
C         -0.02370       -9.05870       -6.33980
C         -1.40010       -9.54440       -6.69150
C         -1.92170       -8.80450       -7.92490
C          0.13520       -7.89980       -5.59470
C          0.85160       -4.98620       -4.79260
S         -0.32360       -4.54160       -6.00900
C         -0.42170       -2.95580       -5.31470
C         -1.12130       -1.74430       -5.49040
C         -1.98500       -1.23950       -6.49060
C         -2.42690        0.13370       -6.42040
N         -3.16170        0.47700       -7.46570
S         -3.29950       -0.80290       -8.44680
N         -2.42330       -1.85120       -7.57880
C         -2.12530        0.90320       -5.27210
C         -2.54050        2.16630       -4.80270
S         -3.44300        3.54840       -5.33410
C         -3.19900        4.29350       -3.76990
C         -3.62750        5.51320       -3.20510
C         -4.46290        6.47730       -3.92480
C         -5.61230        7.00660       -3.34290
C         -6.39950        7.88940       -4.05590
C         -6.05600        8.24560       -5.34920
C         -4.91620        7.72380       -5.94610
C         -4.56720        8.05410       -7.36800
C         -5.13330        6.98860       -8.30890
C         -4.12940        6.83730       -5.22520
C         -3.19750        5.63080       -1.89540
S         -2.27980        4.23580       -1.35200
C         -2.46230        3.49260       -2.89650
C         -2.07340        2.28830       -3.49000
N         -1.35260        1.17750       -3.13270
C         -1.35470        0.33470       -4.22730
C         -0.71320       -0.90380       -4.42500
N          0.25890       -1.53460       -3.67330
C          0.42200       -2.78600       -4.21150
C          1.15740       -3.93880       -3.92280
S          2.31980       -4.41060       -2.73900
C          1.34240       -0.88430       -2.96330
C          2.61030       -0.83350       -3.81520
C         -1.26300        0.77990       -1.74220
C         -2.65010        0.55060       -1.14260
C         -3.32380        6.72600       -0.99020
C         -3.52650        8.04700       -1.26560
C         -3.53600        8.87280       -0.11550
C         -3.68560       10.26730       -0.05600
C         -3.84160       11.05900       -1.28310
C         -2.94060       10.92700       -2.33860
C         -3.11190       11.64540       -3.50210
C         -4.18030       12.52540       -3.65860
S         -4.27630       13.42230       -5.18150
C         -6.05950       13.38700       -5.59560
C         -6.57010       11.96810       -5.74490
C         -5.05000       12.67540       -2.58290
F         -6.08920       13.53490       -2.64990
C         -4.89810       11.95260       -1.41690
C         -3.67030       10.85110        1.20370
C         -3.49540       10.09410        2.39400
C         -3.33000        8.69400        2.33650
C         -3.10270        7.88840        3.54080
C         -2.10930        8.22660        4.45940
C         -1.87240        7.43220        5.55970
C         -2.62260        6.28170        5.80330
S         -2.23830        5.37350        7.26870
C         -2.50180        3.61980        6.81250
C         -1.65450        3.20450        5.62660
C         -3.63500        5.97830        4.89780
C         -3.86380        6.74830        3.77600
F         -4.44180        4.91060        5.08730
C         -3.36520        8.12320        1.07910
S         -3.14760        6.42800        0.73070
C         -3.52750       10.91590        3.53140
C         -3.66500       12.26200        3.25110
S         -3.79300       12.55860        1.52830
C         -3.69030       13.22520        4.28440
C         -3.73070       14.58720        4.22920
C         -3.72130       15.41080        3.00510
O         -3.77840       15.02500        1.85380
C         -3.62110       16.80900        3.45350
C         -3.52830       17.94070        2.64640
C         -3.42400       19.11880        3.34560
C         -3.42120       19.16880        4.74660
C         -3.51850       18.06120        5.55410
C         -3.61730       16.84960        4.86310
C         -3.71680       15.48470        5.37280
C         -3.80140       15.13640        6.69560
C         -3.92190       13.82430        7.20090
N         -4.02220       12.79540        7.70230
C         -3.79530       16.05470        7.76730
N         -3.79390       16.73470        8.69240
C         -3.27060       20.66880        4.77260
C         -1.86980       21.24450        5.09720
C         -0.86810       20.19780        4.67660
C         -0.86650       20.14840        3.35120
C         -1.86670       21.16160        2.85140
C         -1.72330       22.24110        3.93620
C         -3.26980       20.61290        3.21220
H          7.62250      -11.69750        3.32810
H          3.28160      -16.19890        3.40110
H          7.22390      -15.98720        6.57490
H          4.67040      -17.83390        7.93630
H          6.24260      -19.71780        7.51410
H          7.12320      -19.41740        5.07070
H          5.05100      -19.56850        3.41510
H          2.89330      -19.96500        4.83910
H          3.61310      -20.28710        7.41320
H          4.53840      -21.38160        6.35510
H          2.65360      -17.98650        6.33200
H          4.89210      -12.55930        0.63500
H          1.47110      -10.75060       -1.54520
H          0.43820      -12.62600       -2.68080
H         -0.58520      -14.19440       -3.69780
H         -0.36870      -15.41080       -4.96300
H          0.72720      -12.54800       -5.11950
H          0.90240      -13.79700       -6.35500
H         -0.69810      -13.14710       -5.97650
H          5.29190      -12.67230       -1.81820
H          5.86810       -7.15070        2.50030
H          7.15740       -5.22890        3.22470
H          9.67330       -2.54310        3.64970
H          8.28400       -3.58240        3.99350
H         10.43600       -4.76000        4.54130
H         10.99950       -4.49830        2.88670
H          9.63690       -5.57670        3.19320
H          6.76760       -6.22540       -1.58520
H          4.36410       -5.77540       -1.47010
H          3.50970       -7.68430       -5.57530
H          3.24390       -9.75260       -6.88850
H          0.99660      -10.62860       -7.37530
H         -2.07960       -9.37110       -5.85440
H         -1.37430      -10.61640       -6.89700
H         -2.92050       -9.14940       -8.18200
H         -1.96020       -7.73420       -7.73600
H         -1.26460       -8.97760       -8.77410
H         -0.73590       -7.37680       -5.22680
H         -5.88810        6.71510       -2.34060
H         -7.29180        8.29700       -3.60360
H         -6.68320        8.92930       -5.90220
H         -4.97790        9.02940       -7.63630
H         -3.48230        8.09590       -7.48340
H         -4.87830        7.21780       -9.34070
H         -4.72950        6.01030       -8.05840
H         -6.21650        6.94370       -8.21990
H         -3.23750        6.42760       -5.67690
H          1.53970       -1.43670       -2.03870
H          1.04680        0.13630       -2.72520
H          2.41340       -0.31370       -4.75040
H          3.38900       -0.30150       -3.27600
H          2.96960       -1.83350       -4.04020
H         -0.69880       -0.14740       -1.66860
H         -0.74450        1.56940       -1.18890
H         -2.55060        0.21670       -0.11360
H         -3.18180       -0.21110       -1.70900
H         -3.23600        1.46530       -1.15250
H         -3.65630        8.42160       -2.26380
H         -2.09260       10.26680       -2.23770
H         -2.41530       11.53780       -4.31910
H         -6.61150       13.94360       -4.84210
H         -6.10910       13.92530       -6.54200
H         -5.98300       11.43270       -6.48840
H         -6.50250       11.43080       -4.80030
H         -7.61140       11.98300       -6.06150
H         -5.61280       12.09540       -0.62190
H         -1.49530        9.09690        4.28540
H         -1.09080        7.68690        6.25840
H         -3.56190        3.45270        6.63600
H         -2.20380        3.08470        7.71430
H         -1.95200        3.74090        4.72760
H         -0.60300        3.40800        5.81860
H         -1.77790        2.13860        5.44570
H         -4.66470        6.46480        3.11100
H         -3.45950       10.54300        4.53840
H         -3.64410       12.77550        5.26910
H         -3.53680       17.85540        1.57100
H         -3.51240       18.11920        6.62940
H         -4.07010       21.21990        5.26330
H         -1.76420       21.63170        6.10700
H         -0.32240       19.58030        5.36580
H         -0.31960       19.48080        2.71140
H         -1.75680       21.47400        1.81630
H         -2.51080       22.99290        3.90760
H         -0.74930       22.72760        3.91970
H         -4.06660       21.13100        2.68230
