
  xtb     02142220473D
 energy: -440.369821943479 gnorm: 0.000898833164 xtb: 6.4.1 (unknown)
281311  0     0  0            999 V2000
    0.3068  -12.2285    3.0287 C   0  0  0  0  0  0  0  0  0  0  0  0
    0.0511  -12.7905    4.2456 C   0  0  0  0  0  0  0  0  0  0  0  0
   -1.1563  -12.6341    5.0894 C   0  0  0  0  0  0  0  0  0  0  0  0
   -2.1645  -11.9981    4.8587 O   0  0  0  0  0  0  0  0  0  0  0  0
   -0.9012  -13.4242    6.3080 C   0  0  0  0  0  0  0  0  0  0  0  0
   -1.7568  -13.5642    7.3982 C   0  0  0  0  0  0  0  0  0  0  0  0
   -1.2539  -14.3497    8.4068 C   0  0  0  0  0  0  0  0  0  0  0  0
    0.0124  -14.9463    8.3383 C   0  0  0  0  0  0  0  0  0  0  0  0
    0.8646  -14.8177    7.2681 C   0  0  0  0  0  0  0  0  0  0  0  0
    0.3684  -14.0286    6.2255 C   0  0  0  0  0  0  0  0  0  0  0  0
    0.9774  -13.6630    4.9488 C   0  0  0  0  0  0  0  0  0  0  0  0
    2.2146  -14.0746    4.5218 C   0  0  0  0  0  0  0  0  0  0  0  0
    2.8552  -13.7287    3.3125 C   0  0  0  0  0  0  0  0  0  0  0  0
    3.4784  -13.5126    2.3712 N   0  0  0  0  0  0  0  0  0  0  0  0
    3.0664  -14.9311    5.2518 C   0  0  0  0  0  0  0  0  0  0  0  0
    3.8169  -15.6262    5.7739 N   0  0  0  0  0  0  0  0  0  0  0  0
   -0.1290  -15.5899    9.6949 C   0  0  0  0  0  0  0  0  0  0  0  0
   -0.4510  -17.1036    9.7443 C   0  0  0  0  0  0  0  0  0  0  0  0
   -1.1731  -17.4286    8.4603 C   0  0  0  0  0  0  0  0  0  0  0  0
   -2.3742  -16.8693    8.5189 C   0  0  0  0  0  0  0  0  0  0  0  0
   -2.4864  -16.1567    9.8441 C   0  0  0  0  0  0  0  0  0  0  0  0
   -1.6351  -17.0859   10.7241 C   0  0  0  0  0  0  0  0  0  0  0  0
   -1.5425  -14.9308    9.7683 C   0  0  0  0  0  0  0  0  0  0  0  0
   -0.4322  -11.3165    2.2460 C   0  0  0  0  0  0  0  0  0  0  0  0
   -1.6403  -10.6564    2.3633 C   0  0  0  0  0  0  0  0  0  0  0  0
   -1.7542   -9.8032    1.2462 C   0  0  0  0  0  0  0  0  0  0  0  0
   -2.7209   -8.8548    0.8365 C   0  0  0  0  0  0  0  0  0  0  0  0
   -3.9562   -8.6060    1.5241 C   0  0  0  0  0  0  0  0  0  0  0  0
   -4.7912   -7.5184    1.4002 C   0  0  0  0  0  0  0  0  0  0  0  0
   -5.9229   -7.5973    2.2193 C   0  0  0  0  0  0  0  0  0  0  0  0
   -5.9917   -8.7363    2.9761 C   0  0  0  0  0  0  0  0  0  0  0  0
   -7.2969   -9.2802    4.2235 Si  0  0  0  0  0  4  0  0  0  0  0  0
   -8.6742   -7.9530    4.2639 C   0  0  0  0  0  0  0  0  0  0  0  0
   -8.2670   -6.6640    4.9697 C   0  0  0  0  0  0  0  0  0  0  0  0
   -6.4874   -9.4577    5.9506 C   0  0  0  0  0  0  0  0  0  0  0  0
   -5.5355  -10.6444    6.0732 C   0  0  0  0  0  0  0  0  0  0  0  0
   -7.9967  -10.9542    3.6135 C   0  0  0  0  0  0  0  0  0  0  0  0
   -9.0358  -11.5628    4.5495 C   0  0  0  0  0  0  0  0  0  0  0  0
   -4.6161   -9.7357    2.6705 S   0  0  0  0  0  0  0  0  0  0  0  0
   -2.3443   -8.1475   -0.3045 C   0  0  0  0  0  0  0  0  0  0  0  0
   -1.1478   -8.3440   -1.0467 C   0  0  0  0  0  0  0  0  0  0  0  0
   -0.2161   -9.3379   -0.6781 C   0  0  0  0  0  0  0  0  0  0  0  0
    0.9898   -9.6792   -1.3808 C   0  0  0  0  0  0  0  0  0  0  0  0
    1.4096   -9.3448   -2.6478 C   0  0  0  0  0  0  0  0  0  0  0  0
    2.6426   -9.9167   -2.9897 C   0  0  0  0  0  0  0  0  0  0  0  0
    3.1922  -10.6922   -2.0044 C   0  0  0  0  0  0  0  0  0  0  0  0
    4.7638  -11.7363   -1.9531 Si  0  0  0  0  0  4  0  0  0  0  0  0
    5.5275  -11.4884   -0.2187 C   0  0  0  0  0  0  0  0  0  0  0  0
    6.7262  -12.3894    0.0589 C   0  0  0  0  0  0  0  0  0  0  0  0
    4.2756  -13.5695   -2.2183 C   0  0  0  0  0  0  0  0  0  0  0  0
    3.3047  -14.0913   -1.1628 C   0  0  0  0  0  0  0  0  0  0  0  0
    5.9583  -11.1324   -3.3218 C   0  0  0  0  0  0  0  0  0  0  0  0
    5.6473  -11.6863   -4.7077 C   0  0  0  0  0  0  0  0  0  0  0  0
    2.1591  -10.7247   -0.6241 S   0  0  0  0  0  0  0  0  0  0  0  0
   -0.5655  -10.0061    0.4959 C   0  0  0  0  0  0  0  0  0  0  0  0
    0.2041  -10.9280    1.0969 O   0  0  0  0  0  0  0  0  0  0  0  0
   -1.1795   -7.3542   -2.0625 C   0  0  0  0  0  0  0  0  0  0  0  0
   -2.3496   -6.6594   -1.9018 C   0  0  0  0  0  0  0  0  0  0  0  0
   -3.0636   -7.1410   -0.8514 O   0  0  0  0  0  0  0  0  0  0  0  0
   -2.8528   -5.5088   -2.5814 C   0  0  0  0  0  0  0  0  0  0  0  0
   -4.1318   -4.9859   -2.5306 C   0  0  0  0  0  0  0  0  0  0  0  0
   -5.2835   -5.6620   -1.9315 C   0  0  0  0  0  0  0  0  0  0  0  0
   -5.5453   -7.0023   -2.2043 C   0  0  0  0  0  0  0  0  0  0  0  0
   -6.6299   -7.6241   -1.6185 C   0  0  0  0  0  0  0  0  0  0  0  0
   -7.4653   -6.9195   -0.7685 C   0  0  0  0  0  0  0  0  0  0  0  0
   -7.2278   -5.5789   -0.4975 C   0  0  0  0  0  0  0  0  0  0  0  0
   -8.1555   -4.7863    0.3781 C   0  0  0  0  0  0  0  0  0  0  0  0
   -9.1324   -3.9796   -0.4794 C   0  0  0  0  0  0  0  0  0  0  0  0
   -6.1348   -4.9598   -1.0864 C   0  0  0  0  0  0  0  0  0  0  0  0
   -4.1807   -3.7148   -3.1377 C   0  0  0  0  0  0  0  0  0  0  0  0
   -5.4600   -2.5414   -3.3337 S   0  0  0  0  0  0  0  0  0  0  0  0
   -4.3216   -1.4485   -4.0461 C   0  0  0  0  0  0  0  0  0  0  0  0
   -4.2608   -0.1121   -4.4852 C   0  0  0  0  0  0  0  0  0  0  0  0
   -5.2396    0.8880   -4.6751 C   0  0  0  0  0  0  0  0  0  0  0  0
   -4.8297    2.1843   -5.1497 C   0  0  0  0  0  0  0  0  0  0  0  0
   -5.8537    3.0068   -5.3131 N   0  0  0  0  0  0  0  0  0  0  0  0
   -7.2139    2.2249   -4.9097 S   0  0  0  0  0  0  0  0  0  0  0  0
   -6.5488    0.8054   -4.5023 N   0  0  0  0  0  0  0  0  0  0  0  0
   -3.4504    2.4707   -5.2653 C   0  0  0  0  0  0  0  0  0  0  0  0
   -2.7552    3.6862   -5.3883 C   0  0  0  0  0  0  0  0  0  0  0  0
   -3.0906    5.3722   -5.5868 S   0  0  0  0  0  0  0  0  0  0  0  0
   -1.4167    5.7333   -5.2441 C   0  0  0  0  0  0  0  0  0  0  0  0
   -0.7119    6.9418   -5.0383 C   0  0  0  0  0  0  0  0  0  0  0  0
   -1.2306    8.2838   -5.2898 C   0  0  0  0  0  0  0  0  0  0  0  0
   -0.3803    9.2975   -5.7310 C   0  0  0  0  0  0  0  0  0  0  0  0
   -0.8762   10.5640   -5.9693 C   0  0  0  0  0  0  0  0  0  0  0  0
   -2.2181   10.8404   -5.7706 C   0  0  0  0  0  0  0  0  0  0  0  0
   -3.0844    9.8397   -5.3526 C   0  0  0  0  0  0  0  0  0  0  0  0
   -4.5536   10.1014   -5.1861 C   0  0  0  0  0  0  0  0  0  0  0  0
   -5.3219    9.6354   -6.4240 C   0  0  0  0  0  0  0  0  0  0  0  0
   -2.5827    8.5667   -5.1291 C   0  0  0  0  0  0  0  0  0  0  0  0
    0.5759    6.6924   -4.6050 C   0  0  0  0  0  0  0  0  0  0  0  0
    0.9711    4.9805   -4.5891 S   0  0  0  0  0  0  0  0  0  0  0  0
   -0.6498    4.5884   -5.0348 C   0  0  0  0  0  0  0  0  0  0  0  0
   -1.4091    3.4145   -5.1363 C   0  0  0  0  0  0  0  0  0  0  0  0
   -1.2270    2.0716   -4.9352 N   0  0  0  0  0  0  0  0  0  0  0  0
   -2.4732    1.4722   -5.0120 C   0  0  0  0  0  0  0  0  0  0  0  0
   -2.8987    0.1411   -4.7902 C   0  0  0  0  0  0  0  0  0  0  0  0
   -2.1728   -1.0271   -4.6422 N   0  0  0  0  0  0  0  0  0  0  0  0
   -3.0341   -1.9813   -4.1597 C   0  0  0  0  0  0  0  0  0  0  0  0
   -2.9564   -3.2830   -3.6510 C   0  0  0  0  0  0  0  0  0  0  0  0
   -1.7162   -4.4651   -3.4137 S   0  0  0  0  0  0  0  0  0  0  0  0
   -0.9787   -1.3871   -5.3752 C   0  0  0  0  0  0  0  0  0  0  0  0
   -1.2771   -2.4226   -6.4581 C   0  0  0  0  0  0  0  0  0  0  0  0
   -0.0153    1.5867   -4.3078 C   0  0  0  0  0  0  0  0  0  0  0  0
   -0.2577    1.0839   -2.8881 C   0  0  0  0  0  0  0  0  0  0  0  0
    1.4652    7.6098   -3.9578 C   0  0  0  0  0  0  0  0  0  0  0  0
    1.1308    8.4618   -2.9142 C   0  0  0  0  0  0  0  0  0  0  0  0
   -0.1164    8.5719   -2.3243 N   0  0  0  0  0  0  0  0  0  0  0  0
   -0.5114    9.8268   -1.8316 C   0  0  0  0  0  0  0  0  0  0  0  0
   -0.2161   10.9840   -2.5458 C   0  0  0  0  0  0  0  0  0  0  0  0
   -0.5755   12.2191   -2.0459 C   0  0  0  0  0  0  0  0  0  0  0  0
   -1.2399   12.3358   -0.8320 C   0  0  0  0  0  0  0  0  0  0  0  0
   -1.5929   13.6811   -0.2760 C   0  0  0  0  0  0  0  0  0  0  0  0
   -1.5412   11.1742   -0.1315 C   0  0  0  0  0  0  0  0  0  0  0  0
   -1.1819    9.9336   -0.6169 C   0  0  0  0  0  0  0  0  0  0  0  0
   -0.9331    7.4503   -2.1423 C   0  0  0  0  0  0  0  0  0  0  0  0
   -2.3191    7.5674   -2.2318 C   0  0  0  0  0  0  0  0  0  0  0  0
   -3.1200    6.4478   -2.1453 C   0  0  0  0  0  0  0  0  0  0  0  0
   -2.5746    5.1818   -1.9602 C   0  0  0  0  0  0  0  0  0  0  0  0
   -3.4624    3.9755   -1.9138 C   0  0  0  0  0  0  0  0  0  0  0  0
   -1.1989    5.0819   -1.8055 C   0  0  0  0  0  0  0  0  0  0  0  0
   -0.3854    6.1958   -1.8849 C   0  0  0  0  0  0  0  0  0  0  0  0
    2.2638    9.1826   -2.4648 C   0  0  0  0  0  0  0  0  0  0  0  0
    2.5085   10.2960   -1.1694 S   0  0  0  0  0  0  0  0  0  0  0  0
    4.2384   10.3415   -1.5287 C   0  0  0  0  0  0  0  0  0  0  0  0
    4.5863    9.4572   -2.5820 C   0  0  0  0  0  0  0  0  0  0  0  0
    5.8577    9.1961   -3.0221 N   0  0  0  0  0  0  0  0  0  0  0  0
    6.0434    8.8556   -4.3756 C   0  0  0  0  0  0  0  0  0  0  0  0
    5.3959    9.5835   -5.3709 C   0  0  0  0  0  0  0  0  0  0  0  0
    5.5745    9.2509   -6.6979 C   0  0  0  0  0  0  0  0  0  0  0  0
    6.4029    8.1973   -7.0683 C   0  0  0  0  0  0  0  0  0  0  0  0
    6.5738    7.8372   -8.5117 C   0  0  0  0  0  0  0  0  0  0  0  0
    7.0507    7.4831   -6.0681 C   0  0  0  0  0  0  0  0  0  0  0  0
    6.8761    7.8013   -4.7357 C   0  0  0  0  0  0  0  0  0  0  0  0
    6.9606    9.1298   -2.1504 C   0  0  0  0  0  0  0  0  0  0  0  0
    8.2136    9.5609   -2.5790 C   0  0  0  0  0  0  0  0  0  0  0  0
    9.2924    9.5077   -1.7194 C   0  0  0  0  0  0  0  0  0  0  0  0
    9.1535    9.0401   -0.4178 C   0  0  0  0  0  0  0  0  0  0  0  0
   10.3257    9.0380    0.5140 C   0  0  0  0  0  0  0  0  0  0  0  0
    7.9039    8.5893   -0.0083 C   0  0  0  0  0  0  0  0  0  0  0  0
    6.8195    8.6198   -0.8619 C   0  0  0  0  0  0  0  0  0  0  0  0
    3.4423    8.8392   -3.1138 C   0  0  0  0  0  0  0  0  0  0  0  0
    3.1830    7.6253   -4.3275 S   0  0  0  0  0  0  0  0  0  0  0  0
    5.1551   11.1912   -0.9125 C   0  0  0  0  0  0  0  0  0  0  0  0
    5.0167   12.0169    0.1802 C   0  0  0  0  0  0  0  0  0  0  0  0
    3.8298   12.1483    1.0270 C   0  0  0  0  0  0  0  0  0  0  0  0
    2.7177   11.6845    0.8370 O   0  0  0  0  0  0  0  0  0  0  0  0
    4.2409   12.9569    2.1900 C   0  0  0  0  0  0  0  0  0  0  0  0
    3.4539   13.3195    3.2801 C   0  0  0  0  0  0  0  0  0  0  0  0
    4.1171   14.0675    4.2234 C   0  0  0  0  0  0  0  0  0  0  0  0
    5.4625   14.4318    4.0894 C   0  0  0  0  0  0  0  0  0  0  0  0
    6.2477   14.0872    3.0140 C   0  0  0  0  0  0  0  0  0  0  0  0
    5.5939   13.3211    2.0450 C   0  0  0  0  0  0  0  0  0  0  0  0
    6.0843   12.7843    0.7748 C   0  0  0  0  0  0  0  0  0  0  0  0
    7.3378   13.0024    0.2532 C   0  0  0  0  0  0  0  0  0  0  0  0
    8.3781   13.6723    0.9253 C   0  0  0  0  0  0  0  0  0  0  0  0
    9.2840   14.1760    1.4218 N   0  0  0  0  0  0  0  0  0  0  0  0
    7.7639   12.6243   -1.0339 C   0  0  0  0  0  0  0  0  0  0  0  0
    8.1784   12.3962   -2.0824 N   0  0  0  0  0  0  0  0  0  0  0  0
    5.4789   15.1651    5.4081 C   0  0  0  0  0  0  0  0  0  0  0  0
    6.1486   14.4377    6.5931 C   0  0  0  0  0  0  0  0  0  0  0  0
    5.6004   15.1476    7.8099 C   0  0  0  0  0  0  0  0  0  0  0  0
    4.3251   14.8041    7.9370 C   0  0  0  0  0  0  0  0  0  0  0  0
    3.9900   13.8561    6.8083 C   0  0  0  0  0  0  0  0  0  0  0  0
    5.3370   13.1374    6.6586 C   0  0  0  0  0  0  0  0  0  0  0  0
    3.9774   14.7597    5.5571 C   0  0  0  0  0  0  0  0  0  0  0  0
    1.2492  -12.4752    2.5547 H   0  0  0  0  0  0  0  0  0  0  0  0
   -2.7204  -13.0789    7.4082 H   0  0  0  0  0  0  0  0  0  0  0  0
    1.8345  -15.2842    7.2355 H   0  0  0  0  0  0  0  0  0  0  0  0
    0.6085  -15.2974   10.4396 H   0  0  0  0  0  0  0  0  0  0  0  0
    0.3960  -17.7374    9.9927 H   0  0  0  0  0  0  0  0  0  0  0  0
   -0.7283  -17.9653    7.6429 H   0  0  0  0  0  0  0  0  0  0  0  0
   -3.1338  -16.8447    7.7596 H   0  0  0  0  0  0  0  0  0  0  0  0
   -3.4939  -15.9303   10.1834 H   0  0  0  0  0  0  0  0  0  0  0  0
   -1.3884  -16.6583   11.6950 H   0  0  0  0  0  0  0  0  0  0  0  0
   -2.0853  -18.0682   10.8584 H   0  0  0  0  0  0  0  0  0  0  0  0
   -1.7305  -14.2134   10.5649 H   0  0  0  0  0  0  0  0  0  0  0  0
   -2.3280  -10.7800    3.1727 H   0  0  0  0  0  0  0  0  0  0  0  0
   -4.5876   -6.6873    0.7527 H   0  0  0  0  0  0  0  0  0  0  0  0
   -6.6765   -6.8318    2.2496 H   0  0  0  0  0  0  0  0  0  0  0  0
   -8.9825   -7.7199    3.2441 H   0  0  0  0  0  0  0  0  0  0  0  0
   -9.5544   -8.3588    4.7629 H   0  0  0  0  0  0  0  0  0  0  0  0
   -9.0705   -5.9299    4.9303 H   0  0  0  0  0  0  0  0  0  0  0  0
   -8.0366   -6.8580    6.0138 H   0  0  0  0  0  0  0  0  0  0  0  0
   -7.3851   -6.2307    4.5049 H   0  0  0  0  0  0  0  0  0  0  0  0
   -5.9391   -8.5442    6.1879 H   0  0  0  0  0  0  0  0  0  0  0  0
   -7.2685   -9.5530    6.7076 H   0  0  0  0  0  0  0  0  0  0  0  0
   -5.1000  -10.6822    7.0705 H   0  0  0  0  0  0  0  0  0  0  0  0
   -4.7241  -10.5725    5.3538 H   0  0  0  0  0  0  0  0  0  0  0  0
   -6.0591  -11.5802    5.8958 H   0  0  0  0  0  0  0  0  0  0  0  0
   -7.1714  -11.6568    3.4914 H   0  0  0  0  0  0  0  0  0  0  0  0
   -8.4414  -10.8305    2.6246 H   0  0  0  0  0  0  0  0  0  0  0  0
   -9.8935  -10.9026    4.6528 H   0  0  0  0  0  0  0  0  0  0  0  0
   -9.3887  -12.5191    4.1668 H   0  0  0  0  0  0  0  0  0  0  0  0
   -8.6146  -11.7278    5.5378 H   0  0  0  0  0  0  0  0  0  0  0  0
    0.8383   -8.7383   -3.3252 H   0  0  0  0  0  0  0  0  0  0  0  0
    3.1183   -9.7615   -3.9420 H   0  0  0  0  0  0  0  0  0  0  0  0
    4.7633  -11.6844    0.5340 H   0  0  0  0  0  0  0  0  0  0  0  0
    5.8278  -10.4467   -0.0903 H   0  0  0  0  0  0  0  0  0  0  0  0
    7.1283  -12.1985    1.0521 H   0  0  0  0  0  0  0  0  0  0  0  0
    6.4359  -13.4351    0.0097 H   0  0  0  0  0  0  0  0  0  0  0  0
    7.5181  -12.2189   -0.6672 H   0  0  0  0  0  0  0  0  0  0  0  0
    3.8238  -13.6948   -3.2042 H   0  0  0  0  0  0  0  0  0  0  0  0
    5.1746  -14.1880   -2.2100 H   0  0  0  0  0  0  0  0  0  0  0  0
    3.7218  -13.9943   -0.1648 H   0  0  0  0  0  0  0  0  0  0  0  0
    2.3729  -13.5316   -1.1909 H   0  0  0  0  0  0  0  0  0  0  0  0
    3.0748  -15.1414   -1.3375 H   0  0  0  0  0  0  0  0  0  0  0  0
    6.9779  -11.4126   -3.0576 H   0  0  0  0  0  0  0  0  0  0  0  0
    5.9415  -10.0427   -3.3622 H   0  0  0  0  0  0  0  0  0  0  0  0
    6.3288  -11.2755   -5.4514 H   0  0  0  0  0  0  0  0  0  0  0  0
    5.7483  -12.7683   -4.7170 H   0  0  0  0  0  0  0  0  0  0  0  0
    4.6309  -11.4398   -5.0038 H   0  0  0  0  0  0  0  0  0  0  0  0
   -0.4372   -7.1460   -2.8039 H   0  0  0  0  0  0  0  0  0  0  0  0
   -4.9024   -7.5478   -2.8794 H   0  0  0  0  0  0  0  0  0  0  0  0
   -6.8274   -8.6655   -1.8258 H   0  0  0  0  0  0  0  0  0  0  0  0
   -8.3086   -7.4168   -0.3111 H   0  0  0  0  0  0  0  0  0  0  0  0
   -8.7172   -5.4578    1.0311 H   0  0  0  0  0  0  0  0  0  0  0  0
   -7.5789   -4.1018    1.0046 H   0  0  0  0  0  0  0  0  0  0  0  0
   -9.8025   -3.3990    0.1504 H   0  0  0  0  0  0  0  0  0  0  0  0
   -8.5908   -3.2990   -1.1323 H   0  0  0  0  0  0  0  0  0  0  0  0
   -9.7282   -4.6457   -1.0996 H   0  0  0  0  0  0  0  0  0  0  0  0
   -5.9299   -3.9212   -0.8692 H   0  0  0  0  0  0  0  0  0  0  0  0
    0.6647    9.0851   -5.9026 H   0  0  0  0  0  0  0  0  0  0  0  0
   -0.2119   11.3434   -6.3145 H   0  0  0  0  0  0  0  0  0  0  0  0
   -2.5955   11.8369   -5.9487 H   0  0  0  0  0  0  0  0  0  0  0  0
   -4.7255   11.1682   -5.0305 H   0  0  0  0  0  0  0  0  0  0  0  0
   -4.9260    9.5637   -4.3114 H   0  0  0  0  0  0  0  0  0  0  0  0
   -5.1712    8.5701   -6.5828 H   0  0  0  0  0  0  0  0  0  0  0  0
   -6.3864    9.8225   -6.3040 H   0  0  0  0  0  0  0  0  0  0  0  0
   -4.9731   10.1663   -7.3071 H   0  0  0  0  0  0  0  0  0  0  0  0
   -3.2540    7.7868   -4.8050 H   0  0  0  0  0  0  0  0  0  0  0  0
   -0.5996   -0.4891   -5.8593 H   0  0  0  0  0  0  0  0  0  0  0  0
   -0.2291   -1.7813   -4.6806 H   0  0  0  0  0  0  0  0  0  0  0  0
   -0.3787   -2.6050   -7.0414 H   0  0  0  0  0  0  0  0  0  0  0  0
   -1.6002   -3.3632   -6.0223 H   0  0  0  0  0  0  0  0  0  0  0  0
   -2.0574   -2.0574   -7.1225 H   0  0  0  0  0  0  0  0  0  0  0  0
    0.4584    0.8075   -4.9086 H   0  0  0  0  0  0  0  0  0  0  0  0
    0.6731    2.4348   -4.2771 H   0  0  0  0  0  0  0  0  0  0  0  0
   -0.7022    1.8710   -2.2838 H   0  0  0  0  0  0  0  0  0  0  0  0
    0.6884    0.7948   -2.4390 H   0  0  0  0  0  0  0  0  0  0  0  0
   -0.9243    0.2264   -2.8796 H   0  0  0  0  0  0  0  0  0  0  0  0
    0.2918   10.9078   -3.4954 H   0  0  0  0  0  0  0  0  0  0  0  0
   -0.3356   13.1086   -2.6105 H   0  0  0  0  0  0  0  0  0  0  0  0
   -0.7713   14.0507    0.3385 H   0  0  0  0  0  0  0  0  0  0  0  0
   -2.4818   13.6244    0.3482 H   0  0  0  0  0  0  0  0  0  0  0  0
   -1.7655   14.3995   -1.0743 H   0  0  0  0  0  0  0  0  0  0  0  0
   -2.0537   11.2425    0.8173 H   0  0  0  0  0  0  0  0  0  0  0  0
   -1.4083    9.0409   -0.0526 H   0  0  0  0  0  0  0  0  0  0  0  0
   -2.7553    8.5418   -2.3919 H   0  0  0  0  0  0  0  0  0  0  0  0
   -4.1909    6.5513   -2.2446 H   0  0  0  0  0  0  0  0  0  0  0  0
   -4.2198    4.0295   -2.6939 H   0  0  0  0  0  0  0  0  0  0  0  0
   -3.9758    3.9193   -0.9534 H   0  0  0  0  0  0  0  0  0  0  0  0
   -2.8915    3.0593   -2.0480 H   0  0  0  0  0  0  0  0  0  0  0  0
   -0.7476    4.1174   -1.6196 H   0  0  0  0  0  0  0  0  0  0  0  0
    0.6823    6.0941   -1.7547 H   0  0  0  0  0  0  0  0  0  0  0  0
    4.7626   10.4143   -5.0958 H   0  0  0  0  0  0  0  0  0  0  0  0
    5.0691    9.8239   -7.4616 H   0  0  0  0  0  0  0  0  0  0  0  0
    5.7075    7.2738   -8.8596 H   0  0  0  0  0  0  0  0  0  0  0  0
    7.4596    7.2244   -8.6583 H   0  0  0  0  0  0  0  0  0  0  0  0
    6.6576    8.7319   -9.1251 H   0  0  0  0  0  0  0  0  0  0  0  0
    7.6981    6.6601   -6.3339 H   0  0  0  0  0  0  0  0  0  0  0  0
    7.3799    7.2333   -3.9677 H   0  0  0  0  0  0  0  0  0  0  0  0
    8.3317    9.9520   -3.5771 H   0  0  0  0  0  0  0  0  0  0  0  0
   10.2551    9.8589   -2.0585 H   0  0  0  0  0  0  0  0  0  0  0  0
   11.1730    8.5242    0.0626 H   0  0  0  0  0  0  0  0  0  0  0  0
   10.0786    8.5488    1.4526 H   0  0  0  0  0  0  0  0  0  0  0  0
   10.6344   10.0612    0.7276 H   0  0  0  0  0  0  0  0  0  0  0  0
    7.7765    8.2022    0.9926 H   0  0  0  0  0  0  0  0  0  0  0  0
    5.8562    8.2606   -0.5301 H   0  0  0  0  0  0  0  0  0  0  0  0
    6.1407   11.1697   -1.3592 H   0  0  0  0  0  0  0  0  0  0  0  0
    2.4191   13.0201    3.3397 H   0  0  0  0  0  0  0  0  0  0  0  0
    7.2801   14.3806    2.9240 H   0  0  0  0  0  0  0  0  0  0  0  0
    5.7307   16.2229    5.3610 H   0  0  0  0  0  0  0  0  0  0  0  0
    7.2294   14.3512    6.5220 H   0  0  0  0  0  0  0  0  0  0  0  0
    6.1624   15.8473    8.4004 H   0  0  0  0  0  0  0  0  0  0  0  0
    3.6090   15.1595    8.6548 H   0  0  0  0  0  0  0  0  0  0  0  0
    3.1041   13.2391    6.9340 H   0  0  0  0  0  0  0  0  0  0  0  0
    5.4139   12.5211    5.7648 H   0  0  0  0  0  0  0  0  0  0  0  0
    5.5851   12.5409    7.5352 H   0  0  0  0  0  0  0  0  0  0  0  0
    3.2285   15.5481    5.6087 H   0  0  0  0  0  0  0  0  0  0  0  0
  1  2  2  0  0  0  0
  2  3  1  0  0  0  0
  3  4  2  0  0  0  0
  3  5  1  0  0  0  0
  5  6  2  0  0  0  0
  6  7  1  0  0  0  0
  7  8  2  0  0  0  0
  8  9  1  0  0  0  0
  9 10  2  0  0  0  0
 10 11  1  0  0  0  0
 11 12  2  0  0  0  0
 12 13  1  0  0  0  0
 13 14  3  0  0  0  0
 12 15  1  0  0  0  0
 15 16  3  0  0  0  0
  8 17  1  0  0  0  0
 17 18  1  0  0  0  0
 18 19  1  0  0  0  0
 19 20  2  0  0  0  0
 20 21  1  0  0  0  0
 21 22  1  0  0  0  0
 21 23  1  0  0  0  0
  1 24  1  0  0  0  0
 24 25  2  0  0  0  0
 25 26  1  0  0  0  0
 26 27  2  0  0  0  0
 27 28  1  0  0  0  0
 28 29  2  0  0  0  0
 29 30  1  0  0  0  0
 30 31  2  0  0  0  0
 31 32  1  0  0  0  0
 32 33  1  0  0  0  0
 33 34  1  0  0  0  0
 32 35  1  0  0  0  0
 35 36  1  0  0  0  0
 32 37  1  0  0  0  0
 37 38  1  0  0  0  0
 31 39  1  0  0  0  0
 27 40  1  0  0  0  0
 40 41  2  0  0  0  0
 41 42  1  0  0  0  0
 42 43  1  0  0  0  0
 43 44  2  0  0  0  0
 44 45  1  0  0  0  0
 45 46  2  0  0  0  0
 46 47  1  0  0  0  0
 47 48  1  0  0  0  0
 48 49  1  0  0  0  0
 47 50  1  0  0  0  0
 50 51  1  0  0  0  0
 47 52  1  0  0  0  0
 52 53  1  0  0  0  0
 46 54  1  0  0  0  0
 42 55  2  0  0  0  0
 55 56  1  0  0  0  0
 41 57  1  0  0  0  0
 57 58  2  0  0  0  0
 58 59  1  0  0  0  0
 58 60  1  0  0  0  0
 60 61  2  0  0  0  0
 61 62  1  0  0  0  0
 62 63  2  0  0  0  0
 63 64  1  0  0  0  0
 64 65  2  0  0  0  0
 65 66  1  0  0  0  0
 66 67  1  0  0  0  0
 67 68  1  0  0  0  0
 66 69  2  0  0  0  0
 61 70  1  0  0  0  0
 70 71  1  0  0  0  0
 71 72  1  0  0  0  0
 72 73  1  0  0  0  0
 73 74  1  0  0  0  0
 74 75  1  0  0  0  0
 75 76  2  0  0  0  0
 76 77  1  0  0  0  0
 77 78  1  0  0  0  0
 75 79  1  0  0  0  0
 79 80  1  0  0  0  0
 80 81  1  0  0  0  0
 81 82  1  0  0  0  0
 82 83  1  0  0  0  0
 83 84  1  0  0  0  0
 84 85  2  0  0  0  0
 85 86  1  0  0  0  0
 86 87  2  0  0  0  0
 87 88  1  0  0  0  0
 88 89  1  0  0  0  0
 89 90  1  0  0  0  0
 88 91  2  0  0  0  0
 83 92  2  0  0  0  0
 92 93  1  0  0  0  0
 93 94  1  0  0  0  0
 94 95  1  0  0  0  0
 95 96  1  0  0  0  0
 96 97  1  0  0  0  0
 97 98  1  0  0  0  0
 98 99  1  0  0  0  0
 99100  1  0  0  0  0
100101  1  0  0  0  0
101102  1  0  0  0  0
 99103  1  0  0  0  0
103104  1  0  0  0  0
 96105  1  0  0  0  0
105106  1  0  0  0  0
 92107  1  0  0  0  0
107108  2  0  0  0  0
108109  1  0  0  0  0
109110  1  0  0  0  0
110111  2  0  0  0  0
111112  1  0  0  0  0
112113  2  0  0  0  0
113114  1  0  0  0  0
113115  1  0  0  0  0
115116  2  0  0  0  0
109117  1  0  0  0  0
117118  2  0  0  0  0
118119  1  0  0  0  0
119120  2  0  0  0  0
120121  1  0  0  0  0
120122  1  0  0  0  0
122123  2  0  0  0  0
108124  1  0  0  0  0
124125  1  0  0  0  0
125126  1  0  0  0  0
126127  2  0  0  0  0
127128  1  0  0  0  0
128129  1  0  0  0  0
129130  2  0  0  0  0
130131  1  0  0  0  0
131132  2  0  0  0  0
132133  1  0  0  0  0
132134  1  0  0  0  0
134135  2  0  0  0  0
128136  1  0  0  0  0
136137  2  0  0  0  0
137138  1  0  0  0  0
138139  2  0  0  0  0
139140  1  0  0  0  0
139141  1  0  0  0  0
141142  2  0  0  0  0
127143  1  0  0  0  0
143144  1  0  0  0  0
126145  1  0  0  0  0
145146  2  0  0  0  0
146147  1  0  0  0  0
147148  2  0  0  0  0
147149  1  0  0  0  0
149150  2  0  0  0  0
150151  1  0  0  0  0
151152  2  0  0  0  0
152153  1  0  0  0  0
153154  2  0  0  0  0
154155  1  0  0  0  0
155156  2  0  0  0  0
156157  1  0  0  0  0
157158  3  0  0  0  0
156159  1  0  0  0  0
159160  3  0  0  0  0
152161  1  0  0  0  0
161162  1  0  0  0  0
162163  1  0  0  0  0
163164  2  0  0  0  0
164165  1  0  0  0  0
165166  1  0  0  0  0
165167  1  0  0  0  0
 11  2  1  0  0  0  0
 23 17  1  0  0  0  0
 56 24  1  0  0  0  0
102 60  1  0  0  0  0
144107  1  0  0  0  0
155146  1  0  0  0  0
167161  1  0  0  0  0
 10  5  1  0  0  0  0
 22 18  1  0  0  0  0
 55 26  1  0  0  0  0
 69 62  1  0  0  0  0
101 70  2  0  0  0  0
116110  1  0  0  0  0
123117  1  0  0  0  0
143124  2  0  0  0  0
154149  1  0  0  0  0
166162  1  0  0  0  0
 23  7  1  0  0  0  0
 39 28  1  0  0  0  0
 59 40  1  0  0  0  0
100 72  2  0  0  0  0
135129  1  0  0  0  0
142136  1  0  0  0  0
167151  1  0  0  0  0
 54 43  1  0  0  0  0
 98 73  2  0  0  0  0
 78 74  2  0  0  0  0
 97 79  2  0  0  0  0
 95 80  2  0  0  0  0
 94 82  2  0  0  0  0
 91 84  1  0  0  0  0
  1168  1  0  0  0  0
  6169  1  0  0  0  0
  9170  1  0  0  0  0
 17171  1  0  0  0  0
 18172  1  0  0  0  0
 19173  1  0  0  0  0
 20174  1  0  0  0  0
 21175  1  0  0  0  0
 22176  1  0  0  0  0
 22177  1  0  0  0  0
 23178  1  0  0  0  0
 25179  1  0  0  0  0
 29180  1  0  0  0  0
 30181  1  0  0  0  0
 33182  1  0  0  0  0
 33183  1  0  0  0  0
 34184  1  0  0  0  0
 34185  1  0  0  0  0
 34186  1  0  0  0  0
 35187  1  0  0  0  0
 35188  1  0  0  0  0
 36189  1  0  0  0  0
 36190  1  0  0  0  0
 36191  1  0  0  0  0
 37192  1  0  0  0  0
 37193  1  0  0  0  0
 38194  1  0  0  0  0
 38195  1  0  0  0  0
 38196  1  0  0  0  0
 44197  1  0  0  0  0
 45198  1  0  0  0  0
 48199  1  0  0  0  0
 48200  1  0  0  0  0
 49201  1  0  0  0  0
 49202  1  0  0  0  0
 49203  1  0  0  0  0
 50204  1  0  0  0  0
 50205  1  0  0  0  0
 51206  1  0  0  0  0
 51207  1  0  0  0  0
 51208  1  0  0  0  0
 52209  1  0  0  0  0
 52210  1  0  0  0  0
 53211  1  0  0  0  0
 53212  1  0  0  0  0
 53213  1  0  0  0  0
 57214  1  0  0  0  0
 63215  1  0  0  0  0
 64216  1  0  0  0  0
 65217  1  0  0  0  0
 67218  1  0  0  0  0
 67219  1  0  0  0  0
 68220  1  0  0  0  0
 68221  1  0  0  0  0
 68222  1  0  0  0  0
 69223  1  0  0  0  0
 85224  1  0  0  0  0
 86225  1  0  0  0  0
 87226  1  0  0  0  0
 89227  1  0  0  0  0
 89228  1  0  0  0  0
 90229  1  0  0  0  0
 90230  1  0  0  0  0
 90231  1  0  0  0  0
 91232  1  0  0  0  0
103233  1  0  0  0  0
103234  1  0  0  0  0
104235  1  0  0  0  0
104236  1  0  0  0  0
104237  1  0  0  0  0
105238  1  0  0  0  0
105239  1  0  0  0  0
106240  1  0  0  0  0
106241  1  0  0  0  0
106242  1  0  0  0  0
111243  1  0  0  0  0
112244  1  0  0  0  0
114245  1  0  0  0  0
114246  1  0  0  0  0
114247  1  0  0  0  0
115248  1  0  0  0  0
116249  1  0  0  0  0
118250  1  0  0  0  0
119251  1  0  0  0  0
121252  1  0  0  0  0
121253  1  0  0  0  0
121254  1  0  0  0  0
122255  1  0  0  0  0
123256  1  0  0  0  0
130257  1  0  0  0  0
131258  1  0  0  0  0
133259  1  0  0  0  0
133260  1  0  0  0  0
133261  1  0  0  0  0
134262  1  0  0  0  0
135263  1  0  0  0  0
137264  1  0  0  0  0
138265  1  0  0  0  0
140266  1  0  0  0  0
140267  1  0  0  0  0
140268  1  0  0  0  0
141269  1  0  0  0  0
142270  1  0  0  0  0
145271  1  0  0  0  0
150272  1  0  0  0  0
153273  1  0  0  0  0
161274  1  0  0  0  0
162275  1  0  0  0  0
163276  1  0  0  0  0
164277  1  0  0  0  0
165278  1  0  0  0  0
166279  1  0  0  0  0
166280  1  0  0  0  0
167281  1  0  0  0  0
M  END
