
  xtb     02222202413D
 energy: -407.942014356291 gnorm: 0.000458192355 xtb: 6.4.1 (unknown)
233260  0     0  0            999 V2000
   -9.0467   -4.5170    9.4962 C   0  0  0  0  0  0  0  0  0  0  0  0
   -9.1377   -5.8710    9.4908 C   0  0  0  0  0  0  0  0  0  0  0  0
  -10.4761   -6.5273    9.4875 C   0  0  0  0  0  0  0  0  0  0  0  0
  -11.5284   -6.0294    9.8157 O   0  0  0  0  0  0  0  0  0  0  0  0
  -10.2392   -7.8709    8.9244 C   0  0  0  0  0  0  0  0  0  0  0  0
  -11.1973   -8.8179    8.5677 C   0  0  0  0  0  0  0  0  0  0  0  0
  -10.6747   -9.9699    8.0308 C   0  0  0  0  0  0  0  0  0  0  0  0
   -9.2987  -10.1691    7.8488 C   0  0  0  0  0  0  0  0  0  0  0  0
   -8.3407   -9.2486    8.2001 C   0  0  0  0  0  0  0  0  0  0  0  0
   -8.8519   -8.0747    8.7574 C   0  0  0  0  0  0  0  0  0  0  0  0
   -8.1488   -6.9081    9.2787 C   0  0  0  0  0  0  0  0  0  0  0  0
   -6.8601   -6.8856    9.7408 C   0  0  0  0  0  0  0  0  0  0  0  0
   -5.9374   -7.9335    9.5608 C   0  0  0  0  0  0  0  0  0  0  0  0
   -5.1387   -8.7453    9.4138 N   0  0  0  0  0  0  0  0  0  0  0  0
   -6.3564   -5.8295   10.5316 C   0  0  0  0  0  0  0  0  0  0  0  0
   -5.9418   -5.0220   11.2339 N   0  0  0  0  0  0  0  0  0  0  0  0
   -9.4949  -11.5410    7.2551 C   0  0  0  0  0  0  0  0  0  0  0  0
   -9.1953  -12.7638    8.1568 C   0  0  0  0  0  0  0  0  0  0  0  0
   -9.4037  -12.3076    9.5797 C   0  0  0  0  0  0  0  0  0  0  0  0
  -10.7047  -12.1221    9.7586 C   0  0  0  0  0  0  0  0  0  0  0  0
  -11.3996  -12.4488    8.4598 C   0  0  0  0  0  0  0  0  0  0  0  0
  -10.4858  -13.5696    7.9385 C   0  0  0  0  0  0  0  0  0  0  0  0
  -11.0266  -11.3225    7.4640 C   0  0  0  0  0  0  0  0  0  0  0  0
   -7.9831   -3.6942    9.0430 C   0  0  0  0  0  0  0  0  0  0  0  0
   -7.9134   -2.3303    9.1747 C   0  0  0  0  0  0  0  0  0  0  0  0
   -6.8047   -1.7427    8.5273 C   0  0  0  0  0  0  0  0  0  0  0  0
   -6.4311   -0.3851    8.4879 C   0  0  0  0  0  0  0  0  0  0  0  0
   -7.2565    0.6763    9.0722 C   0  0  0  0  0  0  0  0  0  0  0  0
   -8.6219    0.7492    8.8081 C   0  0  0  0  0  0  0  0  0  0  0  0
   -9.3950    1.7798    9.3062 C   0  0  0  0  0  0  0  0  0  0  0  0
   -8.8315    2.7754   10.0967 C   0  0  0  0  0  0  0  0  0  0  0  0
   -9.6823    4.1606   10.7701 S   0  0  0  0  0  0  0  0  0  0  0  0
  -11.4493    3.7507   10.5633 C   0  0  0  0  0  0  0  0  0  0  0  0
  -11.8976    2.6463   11.5015 C   0  0  0  0  0  0  0  0  0  0  0  0
   -7.4610    2.6901   10.3517 C   0  0  0  0  0  0  0  0  0  0  0  0
   -6.8811    3.6398   11.1125 F   0  0  0  0  0  0  0  0  0  0  0  0
   -6.6784    1.6728    9.8583 C   0  0  0  0  0  0  0  0  0  0  0  0
   -5.2555   -0.0870    7.8178 C   0  0  0  0  0  0  0  0  0  0  0  0
   -4.4326   -1.0643    7.2027 C   0  0  0  0  0  0  0  0  0  0  0  0
   -4.8002   -2.4208    7.2476 C   0  0  0  0  0  0  0  0  0  0  0  0
   -3.9432   -3.4794    6.7040 C   0  0  0  0  0  0  0  0  0  0  0  0
   -2.5865   -3.5250    7.0241 C   0  0  0  0  0  0  0  0  0  0  0  0
   -1.7967   -4.5677    6.5885 C   0  0  0  0  0  0  0  0  0  0  0  0
   -2.3245   -5.5975    5.8154 C   0  0  0  0  0  0  0  0  0  0  0  0
   -1.2520   -6.9121    5.3040 S   0  0  0  0  0  0  0  0  0  0  0  0
   -2.2062   -8.3885    5.8217 C   0  0  0  0  0  0  0  0  0  0  0  0
   -2.4699   -8.3884    7.3134 C   0  0  0  0  0  0  0  0  0  0  0  0
   -3.6690   -5.5182    5.4674 C   0  0  0  0  0  0  0  0  0  0  0  0
   -4.4756   -4.4896    5.9089 C   0  0  0  0  0  0  0  0  0  0  0  0
   -4.2297   -6.4571    4.6760 F   0  0  0  0  0  0  0  0  0  0  0  0
   -5.9954   -2.7153    7.8834 C   0  0  0  0  0  0  0  0  0  0  0  0
   -6.6660   -4.3106    8.0589 S   0  0  0  0  0  0  0  0  0  0  0  0
   -3.3332   -0.4789    6.5347 C   0  0  0  0  0  0  0  0  0  0  0  0
   -3.2925    0.8860    6.6275 C   0  0  0  0  0  0  0  0  0  0  0  0
   -4.6274    1.5215    7.5665 S   0  0  0  0  0  0  0  0  0  0  0  0
   -2.3620    1.7491    5.9849 C   0  0  0  0  0  0  0  0  0  0  0  0
   -2.2653    3.1270    6.0347 C   0  0  0  0  0  0  0  0  0  0  0  0
   -3.0341    3.9823    6.9461 C   0  0  0  0  0  0  0  0  0  0  0  0
   -3.8809    4.9625    6.4438 C   0  0  0  0  0  0  0  0  0  0  0  0
   -4.6244    5.7361    7.3166 C   0  0  0  0  0  0  0  0  0  0  0  0
   -4.5198    5.5459    8.6825 C   0  0  0  0  0  0  0  0  0  0  0  0
   -3.6540    4.5901    9.2015 C   0  0  0  0  0  0  0  0  0  0  0  0
   -3.5002    4.4263   10.6854 C   0  0  0  0  0  0  0  0  0  0  0  0
   -2.5119    5.4548   11.2382 C   0  0  0  0  0  0  0  0  0  0  0  0
   -2.9117    3.8174    8.3227 C   0  0  0  0  0  0  0  0  0  0  0  0
   -1.3254    3.6103    5.1060 C   0  0  0  0  0  0  0  0  0  0  0  0
   -0.8213    5.2245    4.6674 S   0  0  0  0  0  0  0  0  0  0  0  0
    0.2379    4.5412    3.4793 C   0  0  0  0  0  0  0  0  0  0  0  0
    1.1392    4.9584    2.4870 C   0  0  0  0  0  0  0  0  0  0  0  0
    1.5807    6.2496    2.1271 C   0  0  0  0  0  0  0  0  0  0  0  0
    2.5388    6.3846    1.0696 C   0  0  0  0  0  0  0  0  0  0  0  0
    2.8834    7.6451    0.8558 N   0  0  0  0  0  0  0  0  0  0  0  0
    2.0696    8.5813    1.8962 S   0  0  0  0  0  0  0  0  0  0  0  0
    1.2449    7.4152    2.6580 N   0  0  0  0  0  0  0  0  0  0  0  0
    2.9493    5.2289    0.3712 C   0  0  0  0  0  0  0  0  0  0  0  0
    3.7460    5.0894   -0.7759 C   0  0  0  0  0  0  0  0  0  0  0  0
    4.6222    6.0788   -1.8960 S   0  0  0  0  0  0  0  0  0  0  0  0
    4.9567    4.6541   -2.8505 C   0  0  0  0  0  0  0  0  0  0  0  0
    5.6304    4.4603   -4.0698 C   0  0  0  0  0  0  0  0  0  0  0  0
    6.2943    5.5181   -4.8387 C   0  0  0  0  0  0  0  0  0  0  0  0
    7.6535    5.4219   -5.1228 C   0  0  0  0  0  0  0  0  0  0  0  0
    8.2719    6.4139   -5.8593 C   0  0  0  0  0  0  0  0  0  0  0  0
    7.5408    7.4916   -6.3256 C   0  0  0  0  0  0  0  0  0  0  0  0
    6.1842    7.6042   -6.0461 C   0  0  0  0  0  0  0  0  0  0  0  0
    5.3848    8.7413   -6.6116 C   0  0  0  0  0  0  0  0  0  0  0  0
    4.9657    8.4239   -8.0486 C   0  0  0  0  0  0  0  0  0  0  0  0
    5.5722    6.6159   -5.2900 C   0  0  0  0  0  0  0  0  0  0  0  0
    5.6102    3.1331   -4.4526 C   0  0  0  0  0  0  0  0  0  0  0  0
    4.7890    2.1070   -3.2828 S   0  0  0  0  0  0  0  0  0  0  0  0
    4.4312    3.4821   -2.2998 C   0  0  0  0  0  0  0  0  0  0  0  0
    3.7340    3.7342   -1.1127 C   0  0  0  0  0  0  0  0  0  0  0  0
    2.9885    3.0290   -0.2075 N   0  0  0  0  0  0  0  0  0  0  0  0
    2.4812    3.9283    0.7174 C   0  0  0  0  0  0  0  0  0  0  0  0
    1.6271    3.7844    1.8442 C   0  0  0  0  0  0  0  0  0  0  0  0
    1.0550    2.6829    2.4651 N   0  0  0  0  0  0  0  0  0  0  0  0
    0.2155    3.1458    3.4426 C   0  0  0  0  0  0  0  0  0  0  0  0
   -0.6822    2.6101    4.3733 C   0  0  0  0  0  0  0  0  0  0  0  0
   -1.2448    1.0397    4.8228 S   0  0  0  0  0  0  0  0  0  0  0  0
    1.4856    1.3028    2.5122 C   0  0  0  0  0  0  0  0  0  0  0  0
    2.9354    1.1854    2.9761 C   0  0  0  0  0  0  0  0  0  0  0  0
    2.5808    1.6814   -0.5327 C   0  0  0  0  0  0  0  0  0  0  0  0
    1.1226    1.6313   -0.9831 C   0  0  0  0  0  0  0  0  0  0  0  0
    6.0124    2.5533   -5.6881 C   0  0  0  0  0  0  0  0  0  0  0  0
    6.1749    1.2215   -5.9524 C   0  0  0  0  0  0  0  0  0  0  0  0
    6.4290    0.9353   -7.3132 C   0  0  0  0  0  0  0  0  0  0  0  0
    6.6574   -0.3161   -7.9129 C   0  0  0  0  0  0  0  0  0  0  0  0
    6.6120   -1.5592   -7.1336 C   0  0  0  0  0  0  0  0  0  0  0  0
    7.6365   -2.5005   -7.2195 C   0  0  0  0  0  0  0  0  0  0  0  0
    7.5930   -3.6552   -6.4690 C   0  0  0  0  0  0  0  0  0  0  0  0
    6.5244   -3.9305   -5.6167 C   0  0  0  0  0  0  0  0  0  0  0  0
    6.5706   -5.4661   -4.7431 S   0  0  0  0  0  0  0  0  0  0  0  0
    5.8388   -5.0877   -3.1076 C   0  0  0  0  0  0  0  0  0  0  0  0
    6.5901   -3.9854   -2.3883 C   0  0  0  0  0  0  0  0  0  0  0  0
    5.4900   -3.0005   -5.5724 C   0  0  0  0  0  0  0  0  0  0  0  0
    4.3930   -3.2129   -4.8095 F   0  0  0  0  0  0  0  0  0  0  0  0
    5.5312   -1.8286   -6.2998 C   0  0  0  0  0  0  0  0  0  0  0  0
    6.9049   -0.3172   -9.2775 C   0  0  0  0  0  0  0  0  0  0  0  0
    6.9136    0.8675  -10.0647 C   0  0  0  0  0  0  0  0  0  0  0  0
    6.7014    2.1225   -9.4582 C   0  0  0  0  0  0  0  0  0  0  0  0
    6.7227    3.3639  -10.2390 C   0  0  0  0  0  0  0  0  0  0  0  0
    7.7931    3.6669  -11.0788 C   0  0  0  0  0  0  0  0  0  0  0  0
    7.8006    4.8362  -11.8091 C   0  0  0  0  0  0  0  0  0  0  0  0
    6.7450    5.7407  -11.7343 C   0  0  0  0  0  0  0  0  0  0  0  0
    6.8461    7.2283  -12.6908 S   0  0  0  0  0  0  0  0  0  0  0  0
    5.2048    7.2853  -13.5019 C   0  0  0  0  0  0  0  0  0  0  0  0
    4.9683    6.0663  -14.3712 C   0  0  0  0  0  0  0  0  0  0  0  0
    5.6959    5.4381  -10.8725 C   0  0  0  0  0  0  0  0  0  0  0  0
    5.6723    4.2704  -10.1387 C   0  0  0  0  0  0  0  0  0  0  0  0
    4.6546    6.2856  -10.7305 F   0  0  0  0  0  0  0  0  0  0  0  0
    6.4573    2.1190   -8.0981 C   0  0  0  0  0  0  0  0  0  0  0  0
    6.1885    3.5423   -7.1240 S   0  0  0  0  0  0  0  0  0  0  0  0
    7.0754    0.6017  -11.4365 C   0  0  0  0  0  0  0  0  0  0  0  0
    7.2039   -0.7348  -11.7301 C   0  0  0  0  0  0  0  0  0  0  0  0
    7.1498   -1.7244  -10.2675 S   0  0  0  0  0  0  0  0  0  0  0  0
    7.3859   -1.4230  -12.9487 C   0  0  0  0  0  0  0  0  0  0  0  0
    7.2977   -0.9961  -14.2454 C   0  0  0  0  0  0  0  0  0  0  0  0
    6.8223    0.3083  -14.7626 C   0  0  0  0  0  0  0  0  0  0  0  0
    6.6205    1.3455  -14.1643 O   0  0  0  0  0  0  0  0  0  0  0  0
    6.6146    0.1101  -16.2106 C   0  0  0  0  0  0  0  0  0  0  0  0
    6.1045    1.0099  -17.1146 C   0  0  0  0  0  0  0  0  0  0  0  0
    5.9825    0.5981  -18.4454 C   0  0  0  0  0  0  0  0  0  0  0  0
    5.4865    1.3289  -19.5595 C   0  0  0  0  0  0  0  0  0  0  0  0
    5.5143    0.5977  -20.6989 C   0  0  0  0  0  0  0  0  0  0  0  0
    4.9548    1.1650  -22.3966 Br  0  0  0  0  0  0  0  0  0  0  0  0
    6.1409   -1.0166  -20.4943 S   0  0  0  0  0  0  0  0  0  0  0  0
    6.3841   -0.7117  -18.8012 C   0  0  0  0  0  0  0  0  0  0  0  0
    6.9053   -1.6190  -17.8871 C   0  0  0  0  0  0  0  0  0  0  0  0
    7.0217   -1.1946  -16.5763 C   0  0  0  0  0  0  0  0  0  0  0  0
    7.5224   -1.8718  -15.3869 C   0  0  0  0  0  0  0  0  0  0  0  0
    8.1623   -3.0837  -15.3812 C   0  0  0  0  0  0  0  0  0  0  0  0
    8.3629   -3.8726  -16.5338 C   0  0  0  0  0  0  0  0  0  0  0  0
    8.5512   -4.5630  -17.4314 N   0  0  0  0  0  0  0  0  0  0  0  0
    8.7596   -3.6985  -14.2595 C   0  0  0  0  0  0  0  0  0  0  0  0
    9.2968   -4.2570  -13.4119 N   0  0  0  0  0  0  0  0  0  0  0  0
   -9.9523   -3.9892    9.7789 H   0  0  0  0  0  0  0  0  0  0  0  0
  -12.2486   -8.6267    8.7158 H   0  0  0  0  0  0  0  0  0  0  0  0
   -7.2845   -9.4019    8.0491 H   0  0  0  0  0  0  0  0  0  0  0  0
   -9.1332  -11.6759    6.2377 H   0  0  0  0  0  0  0  0  0  0  0  0
   -8.2521  -13.2603    7.9452 H   0  0  0  0  0  0  0  0  0  0  0  0
   -8.6031  -12.1172   10.2703 H   0  0  0  0  0  0  0  0  0  0  0  0
  -11.2090  -11.7459   10.6294 H   0  0  0  0  0  0  0  0  0  0  0  0
  -12.4638  -12.6598    8.5242 H   0  0  0  0  0  0  0  0  0  0  0  0
  -10.6659  -13.8266    6.8955 H   0  0  0  0  0  0  0  0  0  0  0  0
  -10.5300  -14.4682    8.5518 H   0  0  0  0  0  0  0  0  0  0  0  0
  -11.6665  -11.3191    6.5835 H   0  0  0  0  0  0  0  0  0  0  0  0
   -8.6254   -1.7713    9.7554 H   0  0  0  0  0  0  0  0  0  0  0  0
   -9.0816    0.0077    8.1719 H   0  0  0  0  0  0  0  0  0  0  0  0
  -10.4436    1.8075    9.0580 H   0  0  0  0  0  0  0  0  0  0  0  0
  -11.9559    4.6869   10.7976 H   0  0  0  0  0  0  0  0  0  0  0  0
  -11.6324    3.5117    9.5165 H   0  0  0  0  0  0  0  0  0  0  0  0
  -12.9606    2.4556   11.3675 H   0  0  0  0  0  0  0  0  0  0  0  0
  -11.7243    2.9391   12.5343 H   0  0  0  0  0  0  0  0  0  0  0  0
  -11.3522    1.7244   11.3114 H   0  0  0  0  0  0  0  0  0  0  0  0
   -5.6295    1.6542   10.1064 H   0  0  0  0  0  0  0  0  0  0  0  0
   -2.1624   -2.7596    7.6555 H   0  0  0  0  0  0  0  0  0  0  0  0
   -0.7525   -4.6121    6.8559 H   0  0  0  0  0  0  0  0  0  0  0  0
   -3.1262   -8.4291    5.2425 H   0  0  0  0  0  0  0  0  0  0  0  0
   -1.5662   -9.2213    5.5314 H   0  0  0  0  0  0  0  0  0  0  0  0
   -1.5345   -8.3447    7.8672 H   0  0  0  0  0  0  0  0  0  0  0  0
   -3.0810   -7.5348    7.6026 H   0  0  0  0  0  0  0  0  0  0  0  0
   -3.0021   -9.2930    7.5977 H   0  0  0  0  0  0  0  0  0  0  0  0
   -5.5097   -4.4743    5.6017 H   0  0  0  0  0  0  0  0  0  0  0  0
   -2.6109   -1.0441    5.9724 H   0  0  0  0  0  0  0  0  0  0  0  0
   -3.9684    5.0996    5.3762 H   0  0  0  0  0  0  0  0  0  0  0  0
   -5.2942    6.4882    6.9265 H   0  0  0  0  0  0  0  0  0  0  0  0
   -5.1164    6.1415    9.3577 H   0  0  0  0  0  0  0  0  0  0  0  0
   -3.1372    3.4216   10.9117 H   0  0  0  0  0  0  0  0  0  0  0  0
   -4.4680    4.5600   11.1708 H   0  0  0  0  0  0  0  0  0  0  0  0
   -2.4047    5.3372   12.3138 H   0  0  0  0  0  0  0  0  0  0  0  0
   -1.5352    5.3301   10.7751 H   0  0  0  0  0  0  0  0  0  0  0  0
   -2.8609    6.4640   11.0325 H   0  0  0  0  0  0  0  0  0  0  0  0
   -2.2296    3.0709    8.7064 H   0  0  0  0  0  0  0  0  0  0  0  0
    8.2172    4.5745   -4.7598 H   0  0  0  0  0  0  0  0  0  0  0  0
    9.3278    6.3430   -6.0751 H   0  0  0  0  0  0  0  0  0  0  0  0
    8.0276    8.2574   -6.9120 H   0  0  0  0  0  0  0  0  0  0  0  0
    5.9835    9.6544   -6.6051 H   0  0  0  0  0  0  0  0  0  0  0  0
    4.4951    8.9105   -6.0024 H   0  0  0  0  0  0  0  0  0  0  0  0
    4.3595    7.5215   -8.0777 H   0  0  0  0  0  0  0  0  0  0  0  0
    4.3867    9.2436   -8.4668 H   0  0  0  0  0  0  0  0  0  0  0  0
    5.8412    8.2643   -8.6738 H   0  0  0  0  0  0  0  0  0  0  0  0
    4.5179    6.6860   -5.0633 H   0  0  0  0  0  0  0  0  0  0  0  0
    0.8365    0.8017    3.2345 H   0  0  0  0  0  0  0  0  0  0  0  0
    1.3274    0.8125    1.5518 H   0  0  0  0  0  0  0  0  0  0  0  0
    3.2347    0.1409    2.9972 H   0  0  0  0  0  0  0  0  0  0  0  0
    3.0378    1.5954    3.9782 H   0  0  0  0  0  0  0  0  0  0  0  0
    3.6062    1.7326    2.3176 H   0  0  0  0  0  0  0  0  0  0  0  0
    2.7700    1.0107    0.3046 H   0  0  0  0  0  0  0  0  0  0  0  0
    3.2210    1.3533   -1.3553 H   0  0  0  0  0  0  0  0  0  0  0  0
    0.4604    2.0305   -0.2184 H   0  0  0  0  0  0  0  0  0  0  0  0
    0.8355    0.6061   -1.2004 H   0  0  0  0  0  0  0  0  0  0  0  0
    0.9944    2.2250   -1.8852 H   0  0  0  0  0  0  0  0  0  0  0  0
    6.1264    0.4727   -5.1822 H   0  0  0  0  0  0  0  0  0  0  0  0
    8.4866   -2.3113   -7.8563 H   0  0  0  0  0  0  0  0  0  0  0  0
    8.3959   -4.3732   -6.5272 H   0  0  0  0  0  0  0  0  0  0  0  0
    4.7853   -4.8492   -3.2345 H   0  0  0  0  0  0  0  0  0  0  0  0
    5.9263   -6.0342   -2.5741 H   0  0  0  0  0  0  0  0  0  0  0  0
    7.6455   -4.2357   -2.3031 H   0  0  0  0  0  0  0  0  0  0  0  0
    6.5010   -3.0412   -2.9223 H   0  0  0  0  0  0  0  0  0  0  0  0
    6.1795   -3.8545   -1.3891 H   0  0  0  0  0  0  0  0  0  0  0  0
    4.6932   -1.1514   -6.2373 H   0  0  0  0  0  0  0  0  0  0  0  0
    8.6278    2.9865  -11.1473 H   0  0  0  0  0  0  0  0  0  0  0  0
    8.6286    5.0686  -12.4604 H   0  0  0  0  0  0  0  0  0  0  0  0
    4.4381    7.3988  -12.7389 H   0  0  0  0  0  0  0  0  0  0  0  0
    5.2474    8.1948  -14.1007 H   0  0  0  0  0  0  0  0  0  0  0  0
    4.0131    6.1618  -14.8841 H   0  0  0  0  0  0  0  0  0  0  0  0
    4.9493    5.1579  -13.7712 H   0  0  0  0  0  0  0  0  0  0  0  0
    5.7571    5.9704  -15.1144 H   0  0  0  0  0  0  0  0  0  0  0  0
    4.8232    4.0740   -9.5031 H   0  0  0  0  0  0  0  0  0  0  0  0
    7.0731    1.3647  -12.1919 H   0  0  0  0  0  0  0  0  0  0  0  0
    7.5935   -2.4779  -12.8088 H   0  0  0  0  0  0  0  0  0  0  0  0
    5.8069    1.9991  -16.8035 H   0  0  0  0  0  0  0  0  0  0  0  0
    5.1309    2.3416  -19.5048 H   0  0  0  0  0  0  0  0  0  0  0  0
    7.1924   -2.6064  -18.2073 H   0  0  0  0  0  0  0  0  0  0  0  0
  1  2  2  0  0  0  0
  2  3  1  0  0  0  0
  3  4  2  0  0  0  0
  3  5  1  0  0  0  0
  5  6  2  0  0  0  0
  6  7  1  0  0  0  0
  7  8  2  0  0  0  0
  8  9  1  0  0  0  0
  9 10  2  0  0  0  0
 10 11  1  0  0  0  0
 11 12  2  0  0  0  0
 12 13  1  0  0  0  0
 13 14  3  0  0  0  0
 12 15  1  0  0  0  0
 15 16  3  0  0  0  0
  8 17  1  0  0  0  0
 17 18  1  0  0  0  0
 18 19  1  0  0  0  0
 19 20  2  0  0  0  0
 20 21  1  0  0  0  0
 21 22  1  0  0  0  0
 21 23  1  0  0  0  0
  1 24  1  0  0  0  0
 24 25  2  0  0  0  0
 25 26  1  0  0  0  0
 26 27  2  0  0  0  0
 27 28  1  0  0  0  0
 28 29  2  0  0  0  0
 29 30  1  0  0  0  0
 30 31  2  0  0  0  0
 31 32  1  0  0  0  0
 32 33  1  0  0  0  0
 33 34  1  0  0  0  0
 31 35  1  0  0  0  0
 35 36  1  0  0  0  0
 35 37  2  0  0  0  0
 27 38  1  0  0  0  0
 38 39  2  0  0  0  0
 39 40  1  0  0  0  0
 40 41  1  0  0  0  0
 41 42  2  0  0  0  0
 42 43  1  0  0  0  0
 43 44  2  0  0  0  0
 44 45  1  0  0  0  0
 45 46  1  0  0  0  0
 46 47  1  0  0  0  0
 44 48  1  0  0  0  0
 48 49  2  0  0  0  0
 48 50  1  0  0  0  0
 40 51  2  0  0  0  0
 51 52  1  0  0  0  0
 39 53  1  0  0  0  0
 53 54  2  0  0  0  0
 54 55  1  0  0  0  0
 54 56  1  0  0  0  0
 56 57  2  0  0  0  0
 57 58  1  0  0  0  0
 58 59  2  0  0  0  0
 59 60  1  0  0  0  0
 60 61  2  0  0  0  0
 61 62  1  0  0  0  0
 62 63  1  0  0  0  0
 63 64  1  0  0  0  0
 62 65  2  0  0  0  0
 57 66  1  0  0  0  0
 66 67  1  0  0  0  0
 67 68  1  0  0  0  0
 68 69  1  0  0  0  0
 69 70  1  0  0  0  0
 70 71  1  0  0  0  0
 71 72  2  0  0  0  0
 72 73  1  0  0  0  0
 73 74  1  0  0  0  0
 71 75  1  0  0  0  0
 75 76  1  0  0  0  0
 76 77  1  0  0  0  0
 77 78  1  0  0  0  0
 78 79  1  0  0  0  0
 79 80  1  0  0  0  0
 80 81  2  0  0  0  0
 81 82  1  0  0  0  0
 82 83  2  0  0  0  0
 83 84  1  0  0  0  0
 84 85  1  0  0  0  0
 85 86  1  0  0  0  0
 84 87  2  0  0  0  0
 79 88  2  0  0  0  0
 88 89  1  0  0  0  0
 89 90  1  0  0  0  0
 90 91  1  0  0  0  0
 91 92  1  0  0  0  0
 92 93  1  0  0  0  0
 93 94  1  0  0  0  0
 94 95  1  0  0  0  0
 95 96  1  0  0  0  0
 96 97  1  0  0  0  0
 97 98  1  0  0  0  0
 95 99  1  0  0  0  0
 99100  1  0  0  0  0
 92101  1  0  0  0  0
101102  1  0  0  0  0
 88103  1  0  0  0  0
103104  2  0  0  0  0
104105  1  0  0  0  0
105106  2  0  0  0  0
106107  1  0  0  0  0
107108  2  0  0  0  0
108109  1  0  0  0  0
109110  2  0  0  0  0
110111  1  0  0  0  0
111112  1  0  0  0  0
112113  1  0  0  0  0
110114  1  0  0  0  0
114115  1  0  0  0  0
114116  2  0  0  0  0
106117  1  0  0  0  0
117118  2  0  0  0  0
118119  1  0  0  0  0
119120  1  0  0  0  0
120121  2  0  0  0  0
121122  1  0  0  0  0
122123  2  0  0  0  0
123124  1  0  0  0  0
124125  1  0  0  0  0
125126  1  0  0  0  0
123127  1  0  0  0  0
127128  2  0  0  0  0
127129  1  0  0  0  0
119130  2  0  0  0  0
130131  1  0  0  0  0
118132  1  0  0  0  0
132133  2  0  0  0  0
133134  1  0  0  0  0
133135  1  0  0  0  0
135136  2  0  0  0  0
136137  1  0  0  0  0
137138  2  0  0  0  0
137139  1  0  0  0  0
139140  2  0  0  0  0
140141  1  0  0  0  0
141142  1  0  0  0  0
142143  2  0  0  0  0
143144  1  0  0  0  0
143145  1  0  0  0  0
145146  1  0  0  0  0
146147  1  0  0  0  0
147148  2  0  0  0  0
148149  1  0  0  0  0
149150  2  0  0  0  0
150151  1  0  0  0  0
151152  3  0  0  0  0
150153  1  0  0  0  0
153154  3  0  0  0  0
 11  2  1  0  0  0  0
 23 17  1  0  0  0  0
 52 24  1  0  0  0  0
 98 56  1  0  0  0  0
131103  1  0  0  0  0
149136  1  0  0  0  0
 10  5  1  0  0  0  0
 22 18  1  0  0  0  0
 51 26  1  0  0  0  0
 65 58  1  0  0  0  0
 97 66  2  0  0  0  0
130105  1  0  0  0  0
148139  1  0  0  0  0
 23  7  1  0  0  0  0
 37 28  1  0  0  0  0
 55 38  1  0  0  0  0
 96 68  2  0  0  0  0
116107  1  0  0  0  0
134117  1  0  0  0  0
146141  2  0  0  0  0
 49 41  1  0  0  0  0
 94 69  2  0  0  0  0
128120  1  0  0  0  0
 74 70  2  0  0  0  0
 93 75  2  0  0  0  0
 91 76  2  0  0  0  0
 90 78  2  0  0  0  0
 87 80  1  0  0  0  0
  1155  1  0  0  0  0
  6156  1  0  0  0  0
  9157  1  0  0  0  0
 17158  1  0  0  0  0
 18159  1  0  0  0  0
 19160  1  0  0  0  0
 20161  1  0  0  0  0
 21162  1  0  0  0  0
 22163  1  0  0  0  0
 22164  1  0  0  0  0
 23165  1  0  0  0  0
 25166  1  0  0  0  0
 29167  1  0  0  0  0
 30168  1  0  0  0  0
 33169  1  0  0  0  0
 33170  1  0  0  0  0
 34171  1  0  0  0  0
 34172  1  0  0  0  0
 34173  1  0  0  0  0
 37174  1  0  0  0  0
 42175  1  0  0  0  0
 43176  1  0  0  0  0
 46177  1  0  0  0  0
 46178  1  0  0  0  0
 47179  1  0  0  0  0
 47180  1  0  0  0  0
 47181  1  0  0  0  0
 49182  1  0  0  0  0
 53183  1  0  0  0  0
 59184  1  0  0  0  0
 60185  1  0  0  0  0
 61186  1  0  0  0  0
 63187  1  0  0  0  0
 63188  1  0  0  0  0
 64189  1  0  0  0  0
 64190  1  0  0  0  0
 64191  1  0  0  0  0
 65192  1  0  0  0  0
 81193  1  0  0  0  0
 82194  1  0  0  0  0
 83195  1  0  0  0  0
 85196  1  0  0  0  0
 85197  1  0  0  0  0
 86198  1  0  0  0  0
 86199  1  0  0  0  0
 86200  1  0  0  0  0
 87201  1  0  0  0  0
 99202  1  0  0  0  0
 99203  1  0  0  0  0
100204  1  0  0  0  0
100205  1  0  0  0  0
100206  1  0  0  0  0
101207  1  0  0  0  0
101208  1  0  0  0  0
102209  1  0  0  0  0
102210  1  0  0  0  0
102211  1  0  0  0  0
104212  1  0  0  0  0
108213  1  0  0  0  0
109214  1  0  0  0  0
112215  1  0  0  0  0
112216  1  0  0  0  0
113217  1  0  0  0  0
113218  1  0  0  0  0
113219  1  0  0  0  0
116220  1  0  0  0  0
121221  1  0  0  0  0
122222  1  0  0  0  0
125223  1  0  0  0  0
125224  1  0  0  0  0
126225  1  0  0  0  0
126226  1  0  0  0  0
126227  1  0  0  0  0
128228  1  0  0  0  0
132229  1  0  0  0  0
135230  1  0  0  0  0
140231  1  0  0  0  0
142232  1  0  0  0  0
147233  1  0  0  0  0
M  END
