
  xtb     02152207073D
 energy: -339.227797714727 gnorm: 0.000381513750 xtb: 6.4.1 (unknown)
200226  0     0  0            999 V2000
    2.6661  -12.0056    1.0110 C   0  0  0  0  0  0  0  0  0  0  0  0
    2.3929  -12.6523   -0.1612 C   0  0  0  0  0  0  0  0  0  0  0  0
    1.7919  -12.0585   -1.3694 C   0  0  0  0  0  0  0  0  0  0  0  0
    1.3903  -10.9211   -1.5218 O   0  0  0  0  0  0  0  0  0  0  0  0
    1.7811  -13.1212   -2.3882 C   0  0  0  0  0  0  0  0  0  0  0  0
    1.3139  -13.0149   -3.6968 C   0  0  0  0  0  0  0  0  0  0  0  0
    1.4355  -14.1712   -4.4283 C   0  0  0  0  0  0  0  0  0  0  0  0
    1.9805  -15.3478   -3.8963 C   0  0  0  0  0  0  0  0  0  0  0  0
    2.4389  -15.4670   -2.6060 C   0  0  0  0  0  0  0  0  0  0  0  0
    2.3265  -14.3000   -1.8423 C   0  0  0  0  0  0  0  0  0  0  0  0
    2.6956  -14.0437   -0.4514 C   0  0  0  0  0  0  0  0  0  0  0  0
    3.2125  -14.9748    0.4124 C   0  0  0  0  0  0  0  0  0  0  0  0
    3.5305  -14.7619    1.7703 C   0  0  0  0  0  0  0  0  0  0  0  0
    3.8088  -14.6890    2.8829 N   0  0  0  0  0  0  0  0  0  0  0  0
    3.4967  -16.3135    0.0689 C   0  0  0  0  0  0  0  0  0  0  0  0
    3.7608  -17.4124   -0.1337 N   0  0  0  0  0  0  0  0  0  0  0  0
    1.8050  -16.1074   -5.1879 C   0  0  0  0  0  0  0  0  0  0  0  0
    3.0722  -16.3126   -6.0448 C   0  0  0  0  0  0  0  0  0  0  0  0
    2.5310  -16.6374   -7.4185 C   0  0  0  0  0  0  0  0  0  0  0  0
    2.0130  -15.5244   -7.9218 C   0  0  0  0  0  0  0  0  0  0  0  0
    2.1957  -14.4283   -6.8969 C   0  0  0  0  0  0  0  0  0  0  0  0
    3.5288  -14.8664   -6.2768 C   0  0  0  0  0  0  0  0  0  0  0  0
    1.1958  -14.7961   -5.7800 C   0  0  0  0  0  0  0  0  0  0  0  0
    2.4253  -10.6718    1.4038 C   0  0  0  0  0  0  0  0  0  0  0  0
    2.8247  -10.1992    2.6433 C   0  0  0  0  0  0  0  0  0  0  0  0
    2.5081   -8.8517    2.8735 C   0  0  0  0  0  0  0  0  0  0  0  0
    2.8026   -8.0463    3.9964 C   0  0  0  0  0  0  0  0  0  0  0  0
    3.4035   -8.5722    5.2267 C   0  0  0  0  0  0  0  0  0  0  0  0
    2.8956   -9.7537    5.8123 C   0  0  0  0  0  0  0  0  0  0  0  0
    3.3847  -10.2073    7.0025 C   0  0  0  0  0  0  0  0  0  0  0  0
    4.3966   -9.5033    7.6899 C   0  0  0  0  0  0  0  0  0  0  0  0
    4.9000   -9.9274    8.9363 C   0  0  0  0  0  0  0  0  0  0  0  0
    5.8640   -9.2036    9.5812 C   0  0  0  0  0  0  0  0  0  0  0  0
    6.3688   -8.0245    9.0095 C   0  0  0  0  0  0  0  0  0  0  0  0
    5.9084   -7.5918    7.7981 C   0  0  0  0  0  0  0  0  0  0  0  0
    4.9142   -8.3171    7.1081 C   0  0  0  0  0  0  0  0  0  0  0  0
    4.4083   -7.8861    5.8687 C   0  0  0  0  0  0  0  0  0  0  0  0
    2.4447   -6.7133    3.9021 C   0  0  0  0  0  0  0  0  0  0  0  0
    1.7646   -6.1510    2.7888 C   0  0  0  0  0  0  0  0  0  0  0  0
    1.4670   -6.9600    1.6819 C   0  0  0  0  0  0  0  0  0  0  0  0
    0.7741   -6.4974    0.5931 O   0  0  0  0  0  0  0  0  0  0  0  0
    1.4905   -5.6409   -0.2845 C   0  0  0  0  0  0  0  0  0  0  0  0
    2.5785   -6.3786   -1.0565 C   0  0  0  0  0  0  0  0  0  0  0  0
    1.8529   -8.2893    1.7443 C   0  0  0  0  0  0  0  0  0  0  0  0
    1.6243   -9.4331    0.4579 S   0  0  0  0  0  0  0  0  0  0  0  0
    1.4623   -4.7841    2.9896 C   0  0  0  0  0  0  0  0  0  0  0  0
    1.8949   -4.2945    4.1912 C   0  0  0  0  0  0  0  0  0  0  0  0
    2.6935   -5.5192    5.1539 S   0  0  0  0  0  0  0  0  0  0  0  0
    1.8269   -2.9394    4.6201 C   0  0  0  0  0  0  0  0  0  0  0  0
    2.2677   -2.3671    5.7986 C   0  0  0  0  0  0  0  0  0  0  0  0
    2.8106   -3.1301    6.9314 C   0  0  0  0  0  0  0  0  0  0  0  0
    2.0017   -4.0097    7.6441 C   0  0  0  0  0  0  0  0  0  0  0  0
    2.5412   -4.7546    8.6756 C   0  0  0  0  0  0  0  0  0  0  0  0
    3.8796   -4.6275    9.0011 C   0  0  0  0  0  0  0  0  0  0  0  0
    4.6934   -3.7354    8.3148 C   0  0  0  0  0  0  0  0  0  0  0  0
    6.1302   -3.5486    8.7087 C   0  0  0  0  0  0  0  0  0  0  0  0
    6.2540   -2.4253    9.7400 C   0  0  0  0  0  0  0  0  0  0  0  0
    4.1455   -2.9841    7.2853 C   0  0  0  0  0  0  0  0  0  0  0  0
    2.1527   -0.9646    5.7625 C   0  0  0  0  0  0  0  0  0  0  0  0
    2.5526    0.3005    6.9021 S   0  0  0  0  0  0  0  0  0  0  0  0
    2.0111    1.4850    5.7552 C   0  0  0  0  0  0  0  0  0  0  0  0
    1.8863    2.8833    5.6234 C   0  0  0  0  0  0  0  0  0  0  0  0
    2.0343    3.9767    6.5099 C   0  0  0  0  0  0  0  0  0  0  0  0
    1.6610    5.3022    6.0736 C   0  0  0  0  0  0  0  0  0  0  0  0
    1.7789    6.1982    7.0397 N   0  0  0  0  0  0  0  0  0  0  0  0
    2.3172    5.4568    8.3739 S   0  0  0  0  0  0  0  0  0  0  0  0
    2.4206    3.9570    7.7749 N   0  0  0  0  0  0  0  0  0  0  0  0
    1.3054    5.5165    4.7206 C   0  0  0  0  0  0  0  0  0  0  0  0
    1.0346    6.6594    3.9426 C   0  0  0  0  0  0  0  0  0  0  0  0
    0.7770    8.3640    4.1283 S   0  0  0  0  0  0  0  0  0  0  0  0
    0.5431    8.5064    2.3978 C   0  0  0  0  0  0  0  0  0  0  0  0
    0.1903    9.5728    1.5535 C   0  0  0  0  0  0  0  0  0  0  0  0
   -0.2540   10.8792    2.0287 C   0  0  0  0  0  0  0  0  0  0  0  0
    0.4039   11.5274    3.0710 C   0  0  0  0  0  0  0  0  0  0  0  0
   -0.0611   12.7487    3.5204 C   0  0  0  0  0  0  0  0  0  0  0  0
   -1.1814   13.3264    2.9472 C   0  0  0  0  0  0  0  0  0  0  0  0
   -1.8605   12.6854    1.9170 C   0  0  0  0  0  0  0  0  0  0  0  0
   -3.1048   13.2751    1.3206 C   0  0  0  0  0  0  0  0  0  0  0  0
   -4.3408   12.7803    2.0743 C   0  0  0  0  0  0  0  0  0  0  0  0
   -1.3922   11.4595    1.4705 C   0  0  0  0  0  0  0  0  0  0  0  0
    0.1210    9.1519    0.2261 C   0  0  0  0  0  0  0  0  0  0  0  0
    0.3907    7.4273    0.0387 S   0  0  0  0  0  0  0  0  0  0  0  0
    0.6788    7.2837    1.7280 C   0  0  0  0  0  0  0  0  0  0  0  0
    0.9407    6.2350    2.6113 C   0  0  0  0  0  0  0  0  0  0  0  0
    1.1066    4.8768    2.5294 N   0  0  0  0  0  0  0  0  0  0  0  0
    1.2926    4.4217    3.8176 C   0  0  0  0  0  0  0  0  0  0  0  0
    1.4018    3.1074    4.3102 C   0  0  0  0  0  0  0  0  0  0  0  0
    1.1614    1.9000    3.6837 N   0  0  0  0  0  0  0  0  0  0  0  0
    1.5436    0.9198    4.5627 C   0  0  0  0  0  0  0  0  0  0  0  0
    1.6155   -0.4749    4.5708 C   0  0  0  0  0  0  0  0  0  0  0  0
    1.2414   -1.7461    3.4671 S   0  0  0  0  0  0  0  0  0  0  0  0
    0.1357    1.6412    2.6921 C   0  0  0  0  0  0  0  0  0  0  0  0
   -1.1477    1.1289    3.3448 C   0  0  0  0  0  0  0  0  0  0  0  0
    1.6083    4.2665    1.3148 C   0  0  0  0  0  0  0  0  0  0  0  0
    2.9553    4.8680    0.9145 C   0  0  0  0  0  0  0  0  0  0  0  0
   -0.1682    9.8581   -0.9696 C   0  0  0  0  0  0  0  0  0  0  0  0
   -0.8262    9.3152   -2.0705 C   0  0  0  0  0  0  0  0  0  0  0  0
   -1.0060   10.3359   -3.0366 C   0  0  0  0  0  0  0  0  0  0  0  0
   -0.3567   11.5341   -2.5420 C   0  0  0  0  0  0  0  0  0  0  0  0
   -0.1728   12.6252   -3.0290 O   0  0  0  0  0  0  0  0  0  0  0  0
    0.1354   11.1620   -1.2690 N   0  0  0  0  0  0  0  0  0  0  0  0
    0.9930   12.0524   -0.5350 C   0  0  0  0  0  0  0  0  0  0  0  0
   -1.8651    9.8614   -4.0167 C   0  0  0  0  0  0  0  0  0  0  0  0
   -2.1605    8.5471   -3.7038 N   0  0  0  0  0  0  0  0  0  0  0  0
   -2.7806    7.5698   -4.5577 C   0  0  0  0  0  0  0  0  0  0  0  0
   -1.5187    8.1364   -2.5183 C   0  0  0  0  0  0  0  0  0  0  0  0
   -1.5698    6.9981   -2.0943 O   0  0  0  0  0  0  0  0  0  0  0  0
   -2.3944   10.5757   -5.1228 C   0  0  0  0  0  0  0  0  0  0  0  0
   -3.6287   10.4360   -5.6766 C   0  0  0  0  0  0  0  0  0  0  0  0
   -3.9100   10.8737   -7.0731 C   0  0  0  0  0  0  0  0  0  0  0  0
   -3.2125   11.5738   -7.7690 O   0  0  0  0  0  0  0  0  0  0  0  0
   -5.1742   10.2017   -7.4363 C   0  0  0  0  0  0  0  0  0  0  0  0
   -5.7765   10.1643   -8.6917 C   0  0  0  0  0  0  0  0  0  0  0  0
   -6.9303    9.4184   -8.7382 C   0  0  0  0  0  0  0  0  0  0  0  0
   -7.4543    8.7584   -7.6181 C   0  0  0  0  0  0  0  0  0  0  0  0
   -6.8789    8.7960   -6.3701 C   0  0  0  0  0  0  0  0  0  0  0  0
   -5.7024    9.5454   -6.3034 C   0  0  0  0  0  0  0  0  0  0  0  0
   -4.8266    9.8089   -5.1653 C   0  0  0  0  0  0  0  0  0  0  0  0
   -5.1673    9.6997   -3.8406 C   0  0  0  0  0  0  0  0  0  0  0  0
   -4.3849   10.2008   -2.7799 C   0  0  0  0  0  0  0  0  0  0  0  0
   -3.8259   10.6394   -1.8776 N   0  0  0  0  0  0  0  0  0  0  0  0
   -6.3831    9.1513   -3.3845 C   0  0  0  0  0  0  0  0  0  0  0  0
   -7.3471    8.6941   -2.9605 N   0  0  0  0  0  0  0  0  0  0  0  0
   -8.6092    8.1828   -8.3975 C   0  0  0  0  0  0  0  0  0  0  0  0
   -8.5278    6.6919   -8.8100 C   0  0  0  0  0  0  0  0  0  0  0  0
   -7.0611    6.3511   -8.9037 C   0  0  0  0  0  0  0  0  0  0  0  0
   -6.5670    6.9766   -9.9637 C   0  0  0  0  0  0  0  0  0  0  0  0
   -7.6906    7.7520  -10.6061 C   0  0  0  0  0  0  0  0  0  0  0  0
   -8.8723    6.8169  -10.3027 C   0  0  0  0  0  0  0  0  0  0  0  0
   -8.0274    8.9194   -9.6450 C   0  0  0  0  0  0  0  0  0  0  0  0
    3.1570  -12.5845    1.7844 H   0  0  0  0  0  0  0  0  0  0  0  0
    0.8982  -12.0888   -4.0618 H   0  0  0  0  0  0  0  0  0  0  0  0
    2.8502  -16.3819   -2.2143 H   0  0  0  0  0  0  0  0  0  0  0  0
    1.1789  -16.9959   -5.1347 H   0  0  0  0  0  0  0  0  0  0  0  0
    3.7965  -17.0064   -5.6271 H   0  0  0  0  0  0  0  0  0  0  0  0
    2.5307  -17.6231   -7.8454 H   0  0  0  0  0  0  0  0  0  0  0  0
    1.4934  -15.3945   -8.8530 H   0  0  0  0  0  0  0  0  0  0  0  0
    2.1218  -13.4052   -7.2560 H   0  0  0  0  0  0  0  0  0  0  0  0
    4.3526  -14.8039   -6.9860 H   0  0  0  0  0  0  0  0  0  0  0  0
    3.7916  -14.3320   -5.3657 H   0  0  0  0  0  0  0  0  0  0  0  0
    0.1623  -14.8095   -6.1211 H   0  0  0  0  0  0  0  0  0  0  0  0
    3.3526  -10.8177    3.3482 H   0  0  0  0  0  0  0  0  0  0  0  0
    2.0895  -10.2765    5.3191 H   0  0  0  0  0  0  0  0  0  0  0  0
    2.9882  -11.1100    7.4451 H   0  0  0  0  0  0  0  0  0  0  0  0
    4.5073  -10.8340    9.3743 H   0  0  0  0  0  0  0  0  0  0  0  0
    6.2445   -9.5329   10.5371 H   0  0  0  0  0  0  0  0  0  0  0  0
    7.1279   -7.4652    9.5374 H   0  0  0  0  0  0  0  0  0  0  0  0
    6.2877   -6.6833    7.3525 H   0  0  0  0  0  0  0  0  0  0  0  0
    4.8384   -7.0024    5.4205 H   0  0  0  0  0  0  0  0  0  0  0  0
    1.9306   -4.8014    0.2698 H   0  0  0  0  0  0  0  0  0  0  0  0
    0.7299   -5.2571   -0.9684 H   0  0  0  0  0  0  0  0  0  0  0  0
    2.1543   -7.2415   -1.5635 H   0  0  0  0  0  0  0  0  0  0  0  0
    3.0213   -5.7124   -1.7921 H   0  0  0  0  0  0  0  0  0  0  0  0
    3.3585   -6.7224   -0.3797 H   0  0  0  0  0  0  0  0  0  0  0  0
    0.9264   -4.1830    2.2759 H   0  0  0  0  0  0  0  0  0  0  0  0
    0.9587   -4.1095    7.3819 H   0  0  0  0  0  0  0  0  0  0  0  0
    1.9164   -5.4443    9.2232 H   0  0  0  0  0  0  0  0  0  0  0  0
    4.2986   -5.2282    9.7955 H   0  0  0  0  0  0  0  0  0  0  0  0
    6.7273   -3.2968    7.8297 H   0  0  0  0  0  0  0  0  0  0  0  0
    6.5190   -4.4753    9.1353 H   0  0  0  0  0  0  0  0  0  0  0  0
    5.8734   -1.4923    9.3306 H   0  0  0  0  0  0  0  0  0  0  0  0
    5.6785   -2.6663   10.6309 H   0  0  0  0  0  0  0  0  0  0  0  0
    7.2937   -2.2824   10.0253 H   0  0  0  0  0  0  0  0  0  0  0  0
    4.7666   -2.2913    6.7349 H   0  0  0  0  0  0  0  0  0  0  0  0
    1.2835   11.0823    3.5109 H   0  0  0  0  0  0  0  0  0  0  0  0
    0.4546   13.2548    4.3229 H   0  0  0  0  0  0  0  0  0  0  0  0
   -1.5355   14.2827    3.3039 H   0  0  0  0  0  0  0  0  0  0  0  0
   -3.1860   12.9818    0.2724 H   0  0  0  0  0  0  0  0  0  0  0  0
   -3.0605   14.3648    1.3733 H   0  0  0  0  0  0  0  0  0  0  0  0
   -4.4176   11.6981    2.0012 H   0  0  0  0  0  0  0  0  0  0  0  0
   -4.2798   13.0512    3.1264 H   0  0  0  0  0  0  0  0  0  0  0  0
   -5.2414   13.2197    1.6526 H   0  0  0  0  0  0  0  0  0  0  0  0
   -1.9279   10.9432    0.6868 H   0  0  0  0  0  0  0  0  0  0  0  0
   -0.0933    2.5657    2.1655 H   0  0  0  0  0  0  0  0  0  0  0  0
    0.5143    0.8974    1.9836 H   0  0  0  0  0  0  0  0  0  0  0  0
   -1.9104    0.9903    2.5839 H   0  0  0  0  0  0  0  0  0  0  0  0
   -0.9806    0.1782    3.8432 H   0  0  0  0  0  0  0  0  0  0  0  0
   -1.5096    1.8485    4.0760 H   0  0  0  0  0  0  0  0  0  0  0  0
    0.8781    4.4264    0.5154 H   0  0  0  0  0  0  0  0  0  0  0  0
    1.7445    3.1996    1.4814 H   0  0  0  0  0  0  0  0  0  0  0  0
    3.6744    4.7491    1.7225 H   0  0  0  0  0  0  0  0  0  0  0  0
    2.8568    5.9252    0.6854 H   0  0  0  0  0  0  0  0  0  0  0  0
    3.3322    4.3577    0.0328 H   0  0  0  0  0  0  0  0  0  0  0  0
    1.7354   11.4838    0.0230 H   0  0  0  0  0  0  0  0  0  0  0  0
    1.4859   12.7006   -1.2613 H   0  0  0  0  0  0  0  0  0  0  0  0
    0.4240   12.6776    0.1553 H   0  0  0  0  0  0  0  0  0  0  0  0
   -3.8487    7.4659   -4.3505 H   0  0  0  0  0  0  0  0  0  0  0  0
   -2.6406    7.8327   -5.6059 H   0  0  0  0  0  0  0  0  0  0  0  0
   -2.3053    6.6095   -4.3489 H   0  0  0  0  0  0  0  0  0  0  0  0
   -1.7239   11.2872   -5.5926 H   0  0  0  0  0  0  0  0  0  0  0  0
   -5.3432   10.6861   -9.5305 H   0  0  0  0  0  0  0  0  0  0  0  0
   -7.2858    8.2803   -5.5155 H   0  0  0  0  0  0  0  0  0  0  0  0
   -9.6027    8.4646   -8.0551 H   0  0  0  0  0  0  0  0  0  0  0  0
   -9.1384    6.0236   -8.2088 H   0  0  0  0  0  0  0  0  0  0  0  0
   -6.5376    5.7537   -8.1803 H   0  0  0  0  0  0  0  0  0  0  0  0
   -5.5480    7.0067  -10.3029 H   0  0  0  0  0  0  0  0  0  0  0  0
   -7.5392    8.0480  -11.6407 H   0  0  0  0  0  0  0  0  0  0  0  0
   -9.8444    7.2719  -10.4871 H   0  0  0  0  0  0  0  0  0  0  0  0
   -8.8041    5.8674  -10.8313 H   0  0  0  0  0  0  0  0  0  0  0  0
   -8.6412    9.6830  -10.1185 H   0  0  0  0  0  0  0  0  0  0  0  0
  1  2  2  0  0  0  0
  2  3  1  0  0  0  0
  3  4  2  0  0  0  0
  3  5  1  0  0  0  0
  5  6  2  0  0  0  0
  6  7  1  0  0  0  0
  7  8  2  0  0  0  0
  8  9  1  0  0  0  0
  9 10  2  0  0  0  0
 10 11  1  0  0  0  0
 11 12  2  0  0  0  0
 12 13  1  0  0  0  0
 13 14  3  0  0  0  0
 12 15  1  0  0  0  0
 15 16  3  0  0  0  0
  8 17  1  0  0  0  0
 17 18  1  0  0  0  0
 18 19  1  0  0  0  0
 19 20  2  0  0  0  0
 20 21  1  0  0  0  0
 21 22  1  0  0  0  0
 21 23  1  0  0  0  0
  1 24  1  0  0  0  0
 24 25  2  0  0  0  0
 25 26  1  0  0  0  0
 26 27  2  0  0  0  0
 27 28  1  0  0  0  0
 28 29  2  0  0  0  0
 29 30  1  0  0  0  0
 30 31  2  0  0  0  0
 31 32  1  0  0  0  0
 32 33  2  0  0  0  0
 33 34  1  0  0  0  0
 34 35  2  0  0  0  0
 35 36  1  0  0  0  0
 36 37  2  0  0  0  0
 27 38  1  0  0  0  0
 38 39  2  0  0  0  0
 39 40  1  0  0  0  0
 40 41  1  0  0  0  0
 41 42  1  0  0  0  0
 42 43  1  0  0  0  0
 40 44  2  0  0  0  0
 44 45  1  0  0  0  0
 39 46  1  0  0  0  0
 46 47  2  0  0  0  0
 47 48  1  0  0  0  0
 47 49  1  0  0  0  0
 49 50  2  0  0  0  0
 50 51  1  0  0  0  0
 51 52  2  0  0  0  0
 52 53  1  0  0  0  0
 53 54  2  0  0  0  0
 54 55  1  0  0  0  0
 55 56  1  0  0  0  0
 56 57  1  0  0  0  0
 55 58  2  0  0  0  0
 50 59  1  0  0  0  0
 59 60  1  0  0  0  0
 60 61  1  0  0  0  0
 61 62  1  0  0  0  0
 62 63  1  0  0  0  0
 63 64  1  0  0  0  0
 64 65  2  0  0  0  0
 65 66  1  0  0  0  0
 66 67  1  0  0  0  0
 64 68  1  0  0  0  0
 68 69  1  0  0  0  0
 69 70  1  0  0  0  0
 70 71  1  0  0  0  0
 71 72  1  0  0  0  0
 72 73  1  0  0  0  0
 73 74  2  0  0  0  0
 74 75  1  0  0  0  0
 75 76  2  0  0  0  0
 76 77  1  0  0  0  0
 77 78  1  0  0  0  0
 78 79  1  0  0  0  0
 77 80  2  0  0  0  0
 72 81  2  0  0  0  0
 81 82  1  0  0  0  0
 82 83  1  0  0  0  0
 83 84  1  0  0  0  0
 84 85  1  0  0  0  0
 85 86  1  0  0  0  0
 86 87  1  0  0  0  0
 87 88  1  0  0  0  0
 88 89  1  0  0  0  0
 89 90  1  0  0  0  0
 90 91  1  0  0  0  0
 88 92  1  0  0  0  0
 92 93  1  0  0  0  0
 85 94  1  0  0  0  0
 94 95  1  0  0  0  0
 81 96  1  0  0  0  0
 96 97  2  0  0  0  0
 97 98  1  0  0  0  0
 98 99  1  0  0  0  0
 99100  2  0  0  0  0
 99101  1  0  0  0  0
101102  1  0  0  0  0
 98103  2  0  0  0  0
103104  1  0  0  0  0
104105  1  0  0  0  0
104106  1  0  0  0  0
106107  2  0  0  0  0
103108  1  0  0  0  0
108109  2  0  0  0  0
109110  1  0  0  0  0
110111  2  0  0  0  0
110112  1  0  0  0  0
112113  2  0  0  0  0
113114  1  0  0  0  0
114115  2  0  0  0  0
115116  1  0  0  0  0
116117  2  0  0  0  0
117118  1  0  0  0  0
118119  2  0  0  0  0
119120  1  0  0  0  0
120121  3  0  0  0  0
119122  1  0  0  0  0
122123  3  0  0  0  0
115124  1  0  0  0  0
124125  1  0  0  0  0
125126  1  0  0  0  0
126127  2  0  0  0  0
127128  1  0  0  0  0
128129  1  0  0  0  0
128130  1  0  0  0  0
 11  2  1  0  0  0  0
 23 17  1  0  0  0  0
 45 24  1  0  0  0  0
 91 49  1  0  0  0  0
101 96  1  0  0  0  0
118109  1  0  0  0  0
130124  1  0  0  0  0
 10  5  1  0  0  0  0
 22 18  1  0  0  0  0
 44 26  1  0  0  0  0
 58 51  1  0  0  0  0
 90 59  2  0  0  0  0
106 97  1  0  0  0  0
117112  1  0  0  0  0
129125  1  0  0  0  0
 23  7  1  0  0  0  0
 37 28  1  0  0  0  0
 48 38  1  0  0  0  0
 89 61  2  0  0  0  0
130114  1  0  0  0  0
 36 31  1  0  0  0  0
 87 62  2  0  0  0  0
 67 63  2  0  0  0  0
 86 68  2  0  0  0  0
 84 69  2  0  0  0  0
 83 71  2  0  0  0  0
 80 73  1  0  0  0  0
  1131  1  0  0  0  0
  6132  1  0  0  0  0
  9133  1  0  0  0  0
 17134  1  0  0  0  0
 18135  1  0  0  0  0
 19136  1  0  0  0  0
 20137  1  0  0  0  0
 21138  1  0  0  0  0
 22139  1  0  0  0  0
 22140  1  0  0  0  0
 23141  1  0  0  0  0
 25142  1  0  0  0  0
 29143  1  0  0  0  0
 30144  1  0  0  0  0
 32145  1  0  0  0  0
 33146  1  0  0  0  0
 34147  1  0  0  0  0
 35148  1  0  0  0  0
 37149  1  0  0  0  0
 42150  1  0  0  0  0
 42151  1  0  0  0  0
 43152  1  0  0  0  0
 43153  1  0  0  0  0
 43154  1  0  0  0  0
 46155  1  0  0  0  0
 52156  1  0  0  0  0
 53157  1  0  0  0  0
 54158  1  0  0  0  0
 56159  1  0  0  0  0
 56160  1  0  0  0  0
 57161  1  0  0  0  0
 57162  1  0  0  0  0
 57163  1  0  0  0  0
 58164  1  0  0  0  0
 74165  1  0  0  0  0
 75166  1  0  0  0  0
 76167  1  0  0  0  0
 78168  1  0  0  0  0
 78169  1  0  0  0  0
 79170  1  0  0  0  0
 79171  1  0  0  0  0
 79172  1  0  0  0  0
 80173  1  0  0  0  0
 92174  1  0  0  0  0
 92175  1  0  0  0  0
 93176  1  0  0  0  0
 93177  1  0  0  0  0
 93178  1  0  0  0  0
 94179  1  0  0  0  0
 94180  1  0  0  0  0
 95181  1  0  0  0  0
 95182  1  0  0  0  0
 95183  1  0  0  0  0
102184  1  0  0  0  0
102185  1  0  0  0  0
102186  1  0  0  0  0
105187  1  0  0  0  0
105188  1  0  0  0  0
105189  1  0  0  0  0
108190  1  0  0  0  0
113191  1  0  0  0  0
116192  1  0  0  0  0
124193  1  0  0  0  0
125194  1  0  0  0  0
126195  1  0  0  0  0
127196  1  0  0  0  0
128197  1  0  0  0  0
129198  1  0  0  0  0
129199  1  0  0  0  0
130200  1  0  0  0  0
M  END
