
  xtb     02102221303D
 energy: -302.262663576557 gnorm: 0.000398072314 xtb: 6.4.1 (unknown)
184202  0     0  0            999 V2000
  -13.3183   -4.7247   -2.8839 C   0  0  0  0  0  0  0  0  0  0  0  0
  -14.0375   -5.2370   -1.8473 C   0  0  0  0  0  0  0  0  0  0  0  0
  -15.2530   -6.0574   -2.1289 C   0  0  0  0  0  0  0  0  0  0  0  0
  -15.8301   -6.1663   -3.1867 O   0  0  0  0  0  0  0  0  0  0  0  0
  -15.5243   -6.7165   -0.8521 C   0  0  0  0  0  0  0  0  0  0  0  0
  -16.6357   -7.8764   -0.2661 S   0  0  0  0  0  0  0  0  0  0  0  0
  -15.9332   -7.7625    1.3054 C   0  0  0  0  0  0  0  0  0  0  0  0
  -14.9027   -6.8733    1.3879 C   0  0  0  0  0  0  0  0  0  0  0  0
  -14.6589   -6.2713    0.1394 C   0  0  0  0  0  0  0  0  0  0  0  0
  -13.8020   -5.2410   -0.4173 C   0  0  0  0  0  0  0  0  0  0  0  0
  -13.1475   -4.2920    0.3252 C   0  0  0  0  0  0  0  0  0  0  0  0
  -12.6254   -3.1002   -0.2132 C   0  0  0  0  0  0  0  0  0  0  0  0
  -12.2532   -2.0872   -0.6055 N   0  0  0  0  0  0  0  0  0  0  0  0
  -13.0434   -4.3846    1.7266 C   0  0  0  0  0  0  0  0  0  0  0  0
  -12.9291   -4.4582    2.8664 N   0  0  0  0  0  0  0  0  0  0  0  0
  -11.9745   -4.2959   -2.9117 C   0  0  0  0  0  0  0  0  0  0  0  0
  -11.4019   -3.4996   -3.9003 C   0  0  0  0  0  0  0  0  0  0  0  0
  -12.1677   -2.9782   -5.0475 C   0  0  0  0  0  0  0  0  0  0  0  0
  -12.3249   -3.7759   -6.1838 C   0  0  0  0  0  0  0  0  0  0  0  0
  -13.0385   -3.2767   -7.2619 C   0  0  0  0  0  0  0  0  0  0  0  0
  -13.6039   -2.0107   -7.2330 C   0  0  0  0  0  0  0  0  0  0  0  0
  -14.4206   -1.5107   -8.3898 C   0  0  0  0  0  0  0  0  0  0  0  0
  -15.8880   -1.9062   -8.2143 C   0  0  0  0  0  0  0  0  0  0  0  0
  -13.4465   -1.2416   -6.0908 C   0  0  0  0  0  0  0  0  0  0  0  0
  -12.7371   -1.7057   -4.9927 C   0  0  0  0  0  0  0  0  0  0  0  0
  -12.5710   -0.8200   -3.7901 C   0  0  0  0  0  0  0  0  0  0  0  0
  -11.3840    0.1284   -3.9686 C   0  0  0  0  0  0  0  0  0  0  0  0
  -11.7007   -5.1419   -6.2761 C   0  0  0  0  0  0  0  0  0  0  0  0
  -10.2723   -5.0539   -6.8161 C   0  0  0  0  0  0  0  0  0  0  0  0
  -10.0454   -3.2573   -3.6787 C   0  0  0  0  0  0  0  0  0  0  0  0
   -9.5408   -3.8973   -2.5656 C   0  0  0  0  0  0  0  0  0  0  0  0
  -10.7712   -4.8063   -1.7491 S   0  0  0  0  0  0  0  0  0  0  0  0
   -8.2120   -3.8570   -2.0691 C   0  0  0  0  0  0  0  0  0  0  0  0
   -7.0801   -2.6723   -2.6935 S   0  0  0  0  0  0  0  0  0  0  0  0
   -5.8524   -3.2290   -1.6071 C   0  0  0  0  0  0  0  0  0  0  0  0
   -4.5706   -2.6877   -1.4588 C   0  0  0  0  0  0  0  0  0  0  0  0
   -3.9971   -1.2786   -2.3230 S   0  0  0  0  0  0  0  0  0  0  0  0
   -2.5204   -1.3658   -1.4443 C   0  0  0  0  0  0  0  0  0  0  0  0
   -1.3208   -0.6505   -1.3379 C   0  0  0  0  0  0  0  0  0  0  0  0
   -0.8679    0.4778   -2.0529 C   0  0  0  0  0  0  0  0  0  0  0  0
    0.4336    0.9967   -1.7602 C   0  0  0  0  0  0  0  0  0  0  0  0
    0.7492    2.0345   -2.5191 N   0  0  0  0  0  0  0  0  0  0  0  0
   -0.4917    2.3334   -3.5163 S   0  0  0  0  0  0  0  0  0  0  0  0
   -1.4787    1.1491   -3.0168 N   0  0  0  0  0  0  0  0  0  0  0  0
    1.1773    0.4042   -0.7183 C   0  0  0  0  0  0  0  0  0  0  0  0
    2.4015    0.7853   -0.1542 C   0  0  0  0  0  0  0  0  0  0  0  0
    3.5915    2.0105   -0.3697 S   0  0  0  0  0  0  0  0  0  0  0  0
    4.4728    1.3666    0.9968 C   0  0  0  0  0  0  0  0  0  0  0  0
    5.6670    1.9126    1.4852 C   0  0  0  0  0  0  0  0  0  0  0  0
    6.3635    1.3457    2.5623 C   0  0  0  0  0  0  0  0  0  0  0  0
    5.8000    0.1871    3.1431 C   0  0  0  0  0  0  0  0  0  0  0  0
    6.2177   -0.5766    4.1544 N   0  0  0  0  0  0  0  0  0  0  0  0
    5.3004   -1.4998    4.2663 N   0  0  0  0  0  0  0  0  0  0  0  0
    5.4065   -2.5605    5.2258 C   0  0  0  0  0  0  0  0  0  0  0  0
    6.3100   -3.6724    4.7007 C   0  0  0  0  0  0  0  0  0  0  0  0
    4.2997   -1.4302    3.4211 N   0  0  0  0  0  0  0  0  0  0  0  0
    4.5675   -0.3553    2.6688 C   0  0  0  0  0  0  0  0  0  0  0  0
    3.8703    0.2355    1.5846 C   0  0  0  0  0  0  0  0  0  0  0  0
    2.6603   -0.0729    0.9132 C   0  0  0  0  0  0  0  0  0  0  0  0
    1.6389   -0.9825    1.0197 N   0  0  0  0  0  0  0  0  0  0  0  0
    0.7082   -0.7144    0.0267 C   0  0  0  0  0  0  0  0  0  0  0  0
   -0.5373   -1.3020   -0.3441 C   0  0  0  0  0  0  0  0  0  0  0  0
   -1.2483   -2.4076    0.1020 N   0  0  0  0  0  0  0  0  0  0  0  0
   -2.4536   -2.4374   -0.5548 C   0  0  0  0  0  0  0  0  0  0  0  0
   -3.6378   -3.2128   -0.5401 C   0  0  0  0  0  0  0  0  0  0  0  0
   -4.0692   -4.3268    0.2238 C   0  0  0  0  0  0  0  0  0  0  0  0
   -5.3879   -4.8563    0.0888 C   0  0  0  0  0  0  0  0  0  0  0  0
   -6.3114   -4.3035   -0.8283 C   0  0  0  0  0  0  0  0  0  0  0  0
   -7.6493   -4.6379   -1.0912 C   0  0  0  0  0  0  0  0  0  0  0  0
   -5.5031   -5.8778    0.9393 N   0  0  0  0  0  0  0  0  0  0  0  0
   -4.3395   -5.9457    1.5274 N   0  0  0  0  0  0  0  0  0  0  0  0
   -4.0685   -6.8999    2.5631 C   0  0  0  0  0  0  0  0  0  0  0  0
   -4.3708   -6.3022    3.9343 C   0  0  0  0  0  0  0  0  0  0  0  0
   -3.4477   -5.0598    1.1553 N   0  0  0  0  0  0  0  0  0  0  0  0
   -0.7583   -3.5972    0.7619 C   0  0  0  0  0  0  0  0  0  0  0  0
    0.3660   -4.2504   -0.0397 C   0  0  0  0  0  0  0  0  0  0  0  0
    1.4847   -1.7627    2.2254 C   0  0  0  0  0  0  0  0  0  0  0  0
    0.3538   -1.2180    3.0964 C   0  0  0  0  0  0  0  0  0  0  0  0
    7.5288    2.0531    2.9004 C   0  0  0  0  0  0  0  0  0  0  0  0
    7.7312    3.1582    2.1127 C   0  0  0  0  0  0  0  0  0  0  0  0
    6.4683    3.3353    0.9081 S   0  0  0  0  0  0  0  0  0  0  0  0
    8.7782    4.1236    2.1838 C   0  0  0  0  0  0  0  0  0  0  0  0
   10.0036    3.9889    2.8342 C   0  0  0  0  0  0  0  0  0  0  0  0
   10.4261    2.7549    3.5255 C   0  0  0  0  0  0  0  0  0  0  0  0
   10.2817    2.6419    4.9090 C   0  0  0  0  0  0  0  0  0  0  0  0
   10.5940    1.4387    5.5257 C   0  0  0  0  0  0  0  0  0  0  0  0
   11.0475    0.3503    4.7982 C   0  0  0  0  0  0  0  0  0  0  0  0
   11.2660   -0.9810    5.4575 C   0  0  0  0  0  0  0  0  0  0  0  0
   10.0164   -1.8492    5.2912 C   0  0  0  0  0  0  0  0  0  0  0  0
   11.2155    0.4920    3.4283 C   0  0  0  0  0  0  0  0  0  0  0  0
   10.9058    1.6756    2.7782 C   0  0  0  0  0  0  0  0  0  0  0  0
   11.1095    1.7863    1.2928 C   0  0  0  0  0  0  0  0  0  0  0  0
   12.4532    2.4426    0.9720 C   0  0  0  0  0  0  0  0  0  0  0  0
    9.7851    3.7915    5.7421 C   0  0  0  0  0  0  0  0  0  0  0  0
   10.9522    4.5512    6.3737 C   0  0  0  0  0  0  0  0  0  0  0  0
   10.7719    5.1407    2.7138 C   0  0  0  0  0  0  0  0  0  0  0  0
   10.1726    6.1649    1.9875 C   0  0  0  0  0  0  0  0  0  0  0  0
    8.5975    5.6753    1.4361 S   0  0  0  0  0  0  0  0  0  0  0  0
   10.8142    7.4052    1.7749 C   0  0  0  0  0  0  0  0  0  0  0  0
   10.4624    8.5230    1.0816 C   0  0  0  0  0  0  0  0  0  0  0  0
    9.2085    8.6584    0.3708 C   0  0  0  0  0  0  0  0  0  0  0  0
    8.3052    7.8388    0.4101 O   0  0  0  0  0  0  0  0  0  0  0  0
    9.0033    9.8338   -0.3640 N   0  0  0  0  0  0  0  0  0  0  0  0
    7.6563   10.0602   -0.8832 C   0  0  0  0  0  0  0  0  0  0  0  0
    7.4649    9.3778   -2.2310 C   0  0  0  0  0  0  0  0  0  0  0  0
    9.9769   10.7187   -0.7356 C   0  0  0  0  0  0  0  0  0  0  0  0
    9.7499   11.7314   -1.3500 O   0  0  0  0  0  0  0  0  0  0  0  0
   11.3929   10.3101   -0.3325 C   0  0  0  0  0  0  0  0  0  0  0  0
   11.8460    9.3291   -1.2896 C   0  0  0  0  0  0  0  0  0  0  0  0
   12.1898    8.5307   -2.0314 N   0  0  0  0  0  0  0  0  0  0  0  0
   11.3931    9.7092    1.0779 C   0  0  0  0  0  0  0  0  0  0  0  0
   10.9606   10.7531    2.1118 C   0  0  0  0  0  0  0  0  0  0  0  0
  -13.8293   -4.7070   -3.8428 H   0  0  0  0  0  0  0  0  0  0  0  0
  -16.3337   -8.3672    2.0954 H   0  0  0  0  0  0  0  0  0  0  0  0
  -14.3520   -6.6734    2.2883 H   0  0  0  0  0  0  0  0  0  0  0  0
  -13.1585   -3.8925   -8.1423 H   0  0  0  0  0  0  0  0  0  0  0  0
  -14.3456   -0.4233   -8.4542 H   0  0  0  0  0  0  0  0  0  0  0  0
  -14.0421   -1.9354   -9.3218 H   0  0  0  0  0  0  0  0  0  0  0  0
  -16.4823   -1.5497   -9.0526 H   0  0  0  0  0  0  0  0  0  0  0  0
  -16.2874   -1.4786   -7.2975 H   0  0  0  0  0  0  0  0  0  0  0  0
  -15.9834   -2.9880   -8.1547 H   0  0  0  0  0  0  0  0  0  0  0  0
  -13.8894   -0.2563   -6.0487 H   0  0  0  0  0  0  0  0  0  0  0  0
  -12.4209   -1.4152   -2.8883 H   0  0  0  0  0  0  0  0  0  0  0  0
  -13.4785   -0.2277   -3.6547 H   0  0  0  0  0  0  0  0  0  0  0  0
  -11.3001    0.7866   -3.1078 H   0  0  0  0  0  0  0  0  0  0  0  0
  -10.4572   -0.4316   -4.0628 H   0  0  0  0  0  0  0  0  0  0  0  0
  -11.5111    0.7350   -4.8630 H   0  0  0  0  0  0  0  0  0  0  0  0
  -11.6844   -5.6227   -5.2961 H   0  0  0  0  0  0  0  0  0  0  0  0
  -12.2973   -5.7643   -6.9461 H   0  0  0  0  0  0  0  0  0  0  0  0
   -9.6445   -4.4765   -6.1416 H   0  0  0  0  0  0  0  0  0  0  0  0
  -10.2658   -4.5698   -7.7901 H   0  0  0  0  0  0  0  0  0  0  0  0
   -9.8444   -6.0487   -6.9190 H   0  0  0  0  0  0  0  0  0  0  0  0
   -9.4323   -2.6446   -4.3163 H   0  0  0  0  0  0  0  0  0  0  0  0
    5.8223   -2.1386    6.1433 H   0  0  0  0  0  0  0  0  0  0  0  0
    4.3978   -2.9351    5.4095 H   0  0  0  0  0  0  0  0  0  0  0  0
    7.3048   -3.2802    4.5054 H   0  0  0  0  0  0  0  0  0  0  0  0
    6.3836   -4.4677    5.4367 H   0  0  0  0  0  0  0  0  0  0  0  0
    5.9054   -4.0833    3.7788 H   0  0  0  0  0  0  0  0  0  0  0  0
   -8.1767   -5.4239   -0.5815 H   0  0  0  0  0  0  0  0  0  0  0  0
   -4.7011   -7.7695    2.3768 H   0  0  0  0  0  0  0  0  0  0  0  0
   -3.0150   -7.1789    2.4913 H   0  0  0  0  0  0  0  0  0  0  0  0
   -5.4183   -6.0179    3.9956 H   0  0  0  0  0  0  0  0  0  0  0  0
   -3.7569   -5.4208    4.1028 H   0  0  0  0  0  0  0  0  0  0  0  0
   -4.1595   -7.0319    4.7106 H   0  0  0  0  0  0  0  0  0  0  0  0
   -1.6016   -4.2858    0.8366 H   0  0  0  0  0  0  0  0  0  0  0  0
   -0.4463   -3.3697    1.7802 H   0  0  0  0  0  0  0  0  0  0  0  0
   -0.0036   -4.5539   -1.0167 H   0  0  0  0  0  0  0  0  0  0  0  0
    1.1967   -3.5644   -0.1915 H   0  0  0  0  0  0  0  0  0  0  0  0
    0.7289   -5.1324    0.4815 H   0  0  0  0  0  0  0  0  0  0  0  0
    2.4279   -1.6933    2.7704 H   0  0  0  0  0  0  0  0  0  0  0  0
    1.3355   -2.8132    1.9803 H   0  0  0  0  0  0  0  0  0  0  0  0
   -0.5898   -1.1947    2.5554 H   0  0  0  0  0  0  0  0  0  0  0  0
    0.5873   -0.2035    3.4115 H   0  0  0  0  0  0  0  0  0  0  0  0
    0.2366   -1.8360    3.9828 H   0  0  0  0  0  0  0  0  0  0  0  0
    8.1695    1.7592    3.7088 H   0  0  0  0  0  0  0  0  0  0  0  0
   10.4592    1.3462    6.5946 H   0  0  0  0  0  0  0  0  0  0  0  0
   11.4731   -0.8430    6.5204 H   0  0  0  0  0  0  0  0  0  0  0  0
   12.1210   -1.4879    5.0050 H   0  0  0  0  0  0  0  0  0  0  0  0
    9.8192   -2.0226    4.2354 H   0  0  0  0  0  0  0  0  0  0  0  0
   10.1481   -2.8094    5.7857 H   0  0  0  0  0  0  0  0  0  0  0  0
    9.1503   -1.3477    5.7180 H   0  0  0  0  0  0  0  0  0  0  0  0
   11.5788   -0.3462    2.8501 H   0  0  0  0  0  0  0  0  0  0  0  0
   10.3069    2.3739    0.8441 H   0  0  0  0  0  0  0  0  0  0  0  0
   11.0844    0.7884    0.8505 H   0  0  0  0  0  0  0  0  0  0  0  0
   13.2669    1.8797    1.4245 H   0  0  0  0  0  0  0  0  0  0  0  0
   12.6098    2.4783   -0.1035 H   0  0  0  0  0  0  0  0  0  0  0  0
   12.4807    3.4589    1.3572 H   0  0  0  0  0  0  0  0  0  0  0  0
    9.1972    4.4748    5.1268 H   0  0  0  0  0  0  0  0  0  0  0  0
    9.1395    3.4089    6.5360 H   0  0  0  0  0  0  0  0  0  0  0  0
   10.5846    5.3683    6.9904 H   0  0  0  0  0  0  0  0  0  0  0  0
   11.5982    4.9636    5.6028 H   0  0  0  0  0  0  0  0  0  0  0  0
   11.5458    3.8853    6.9962 H   0  0  0  0  0  0  0  0  0  0  0  0
   11.7569    5.2385    3.1380 H   0  0  0  0  0  0  0  0  0  0  0  0
   11.7830    7.4524    2.2652 H   0  0  0  0  0  0  0  0  0  0  0  0
    6.9514    9.6589   -0.1530 H   0  0  0  0  0  0  0  0  0  0  0  0
    7.5263   11.1399   -0.9779 H   0  0  0  0  0  0  0  0  0  0  0  0
    7.5992    8.3040   -2.1281 H   0  0  0  0  0  0  0  0  0  0  0  0
    6.4612    9.5718   -2.5983 H   0  0  0  0  0  0  0  0  0  0  0  0
    8.1831    9.7603   -2.9529 H   0  0  0  0  0  0  0  0  0  0  0  0
   12.0353   11.1946   -0.4003 H   0  0  0  0  0  0  0  0  0  0  0  0
   12.4081    9.3758    1.3211 H   0  0  0  0  0  0  0  0  0  0  0  0
    9.9563   11.1161    1.9039 H   0  0  0  0  0  0  0  0  0  0  0  0
   10.9667   10.3112    3.1056 H   0  0  0  0  0  0  0  0  0  0  0  0
   11.6422   11.6011    2.1045 H   0  0  0  0  0  0  0  0  0  0  0  0
  1  2  2  0  0  0  0
  2  3  1  0  0  0  0
  3  4  2  0  0  0  0
  3  5  1  0  0  0  0
  5  6  1  0  0  0  0
  6  7  1  0  0  0  0
  7  8  2  0  0  0  0
  8  9  1  0  0  0  0
  9 10  1  0  0  0  0
 10 11  2  0  0  0  0
 11 12  1  0  0  0  0
 12 13  3  0  0  0  0
 11 14  1  0  0  0  0
 14 15  3  0  0  0  0
  1 16  1  0  0  0  0
 16 17  2  0  0  0  0
 17 18  1  0  0  0  0
 18 19  2  0  0  0  0
 19 20  1  0  0  0  0
 20 21  2  0  0  0  0
 21 22  1  0  0  0  0
 22 23  1  0  0  0  0
 21 24  1  0  0  0  0
 24 25  2  0  0  0  0
 25 26  1  0  0  0  0
 26 27  1  0  0  0  0
 19 28  1  0  0  0  0
 28 29  1  0  0  0  0
 17 30  1  0  0  0  0
 30 31  2  0  0  0  0
 31 32  1  0  0  0  0
 31 33  1  0  0  0  0
 33 34  1  0  0  0  0
 34 35  1  0  0  0  0
 35 36  1  0  0  0  0
 36 37  1  0  0  0  0
 37 38  1  0  0  0  0
 38 39  1  0  0  0  0
 39 40  1  0  0  0  0
 40 41  1  0  0  0  0
 41 42  2  0  0  0  0
 42 43  1  0  0  0  0
 43 44  1  0  0  0  0
 41 45  1  0  0  0  0
 45 46  1  0  0  0  0
 46 47  1  0  0  0  0
 47 48  1  0  0  0  0
 48 49  1  0  0  0  0
 49 50  2  0  0  0  0
 50 51  1  0  0  0  0
 51 52  2  0  0  0  0
 52 53  1  0  0  0  0
 53 54  1  0  0  0  0
 54 55  1  0  0  0  0
 53 56  1  0  0  0  0
 56 57  2  0  0  0  0
 57 58  1  0  0  0  0
 58 59  1  0  0  0  0
 59 60  1  0  0  0  0
 60 61  1  0  0  0  0
 61 62  1  0  0  0  0
 62 63  1  0  0  0  0
 63 64  1  0  0  0  0
 64 65  1  0  0  0  0
 65 66  1  0  0  0  0
 66 67  1  0  0  0  0
 67 68  1  0  0  0  0
 68 69  1  0  0  0  0
 67 70  2  0  0  0  0
 70 71  1  0  0  0  0
 71 72  1  0  0  0  0
 72 73  1  0  0  0  0
 71 74  1  0  0  0  0
 63 75  1  0  0  0  0
 75 76  1  0  0  0  0
 60 77  1  0  0  0  0
 77 78  1  0  0  0  0
 50 79  1  0  0  0  0
 79 80  2  0  0  0  0
 80 81  1  0  0  0  0
 80 82  1  0  0  0  0
 82 83  2  0  0  0  0
 83 84  1  0  0  0  0
 84 85  2  0  0  0  0
 85 86  1  0  0  0  0
 86 87  2  0  0  0  0
 87 88  1  0  0  0  0
 88 89  1  0  0  0  0
 87 90  1  0  0  0  0
 90 91  2  0  0  0  0
 91 92  1  0  0  0  0
 92 93  1  0  0  0  0
 85 94  1  0  0  0  0
 94 95  1  0  0  0  0
 83 96  1  0  0  0  0
 96 97  2  0  0  0  0
 97 98  1  0  0  0  0
 97 99  1  0  0  0  0
 99100  2  0  0  0  0
100101  1  0  0  0  0
101102  2  0  0  0  0
101103  1  0  0  0  0
103104  1  0  0  0  0
104105  1  0  0  0  0
103106  1  0  0  0  0
106107  2  0  0  0  0
106108  1  0  0  0  0
108109  1  0  0  0  0
109110  3  0  0  0  0
108111  1  0  0  0  0
111112  1  0  0  0  0
 10  2  1  0  0  0  0
 32 16  1  0  0  0  0
 69 33  2  0  0  0  0
 98 82  1  0  0  0  0
111100  1  0  0  0  0
  9  5  2  0  0  0  0
 25 18  1  0  0  0  0
 68 35  2  0  0  0  0
 91 84  1  0  0  0  0
 65 36  2  0  0  0  0
 74 66  2  0  0  0  0
 64 38  2  0  0  0  0
 62 39  2  0  0  0  0
 44 40  2  0  0  0  0
 61 45  2  0  0  0  0
 59 46  2  0  0  0  0
 58 48  2  0  0  0  0
 81 49  1  0  0  0  0
 57 51  1  0  0  0  0
  1113  1  0  0  0  0
  7114  1  0  0  0  0
  8115  1  0  0  0  0
 20116  1  0  0  0  0
 22117  1  0  0  0  0
 22118  1  0  0  0  0
 23119  1  0  0  0  0
 23120  1  0  0  0  0
 23121  1  0  0  0  0
 24122  1  0  0  0  0
 26123  1  0  0  0  0
 26124  1  0  0  0  0
 27125  1  0  0  0  0
 27126  1  0  0  0  0
 27127  1  0  0  0  0
 28128  1  0  0  0  0
 28129  1  0  0  0  0
 29130  1  0  0  0  0
 29131  1  0  0  0  0
 29132  1  0  0  0  0
 30133  1  0  0  0  0
 54134  1  0  0  0  0
 54135  1  0  0  0  0
 55136  1  0  0  0  0
 55137  1  0  0  0  0
 55138  1  0  0  0  0
 69139  1  0  0  0  0
 72140  1  0  0  0  0
 72141  1  0  0  0  0
 73142  1  0  0  0  0
 73143  1  0  0  0  0
 73144  1  0  0  0  0
 75145  1  0  0  0  0
 75146  1  0  0  0  0
 76147  1  0  0  0  0
 76148  1  0  0  0  0
 76149  1  0  0  0  0
 77150  1  0  0  0  0
 77151  1  0  0  0  0
 78152  1  0  0  0  0
 78153  1  0  0  0  0
 78154  1  0  0  0  0
 79155  1  0  0  0  0
 86156  1  0  0  0  0
 88157  1  0  0  0  0
 88158  1  0  0  0  0
 89159  1  0  0  0  0
 89160  1  0  0  0  0
 89161  1  0  0  0  0
 90162  1  0  0  0  0
 92163  1  0  0  0  0
 92164  1  0  0  0  0
 93165  1  0  0  0  0
 93166  1  0  0  0  0
 93167  1  0  0  0  0
 94168  1  0  0  0  0
 94169  1  0  0  0  0
 95170  1  0  0  0  0
 95171  1  0  0  0  0
 95172  1  0  0  0  0
 96173  1  0  0  0  0
 99174  1  0  0  0  0
104175  1  0  0  0  0
104176  1  0  0  0  0
105177  1  0  0  0  0
105178  1  0  0  0  0
105179  1  0  0  0  0
108180  1  0  0  0  0
111181  1  0  0  0  0
112182  1  0  0  0  0
112183  1  0  0  0  0
112184  1  0  0  0  0
M  END
