
  xtb     02062207163D
 energy: -408.652543695228 gnorm: 0.000445390410 xtb: 6.4.1 (unknown)
246271  0     0  0            999 V2000
   -3.3978    1.0066   -6.8527 C   0  0  0  0  0  0  0  0  0  0  0  0
   -3.9071    1.1363   -8.1252 C   0  0  0  0  0  0  0  0  0  0  0  0
   -3.1941    1.6408   -9.3119 C   0  0  0  0  0  0  0  0  0  0  0  0
   -2.0161    1.9320   -9.4170 O   0  0  0  0  0  0  0  0  0  0  0  0
   -4.2253    1.7326  -10.3430 C   0  0  0  0  0  0  0  0  0  0  0  0
   -4.3018    2.2191  -11.9796 S   0  0  0  0  0  0  0  0  0  0  0  0
   -5.9905    1.8663  -12.0075 C   0  0  0  0  0  0  0  0  0  0  0  0
   -6.4759    1.3958  -10.8233 C   0  0  0  0  0  0  0  0  0  0  0  0
   -5.4552    1.3184   -9.8563 C   0  0  0  0  0  0  0  0  0  0  0  0
   -5.2898    0.8993   -8.4746 C   0  0  0  0  0  0  0  0  0  0  0  0
   -6.2907    0.3523   -7.7084 C   0  0  0  0  0  0  0  0  0  0  0  0
   -7.6127    0.2507   -8.1844 C   0  0  0  0  0  0  0  0  0  0  0  0
   -8.7006    0.1729   -8.5438 N   0  0  0  0  0  0  0  0  0  0  0  0
   -6.1392   -0.2022   -6.4260 C   0  0  0  0  0  0  0  0  0  0  0  0
   -6.0875   -0.7095   -5.3953 N   0  0  0  0  0  0  0  0  0  0  0  0
   -2.1052    1.1888   -6.3672 C   0  0  0  0  0  0  0  0  0  0  0  0
   -1.7526    1.0525   -4.9985 C   0  0  0  0  0  0  0  0  0  0  0  0
   -2.6208    1.0016   -3.9479 N   0  0  0  0  0  0  0  0  0  0  0  0
   -2.2121    0.4252   -2.7237 C   0  0  0  0  0  0  0  0  0  0  0  0
   -1.6603   -0.8519   -2.6861 C   0  0  0  0  0  0  0  0  0  0  0  0
   -1.2880   -1.4068   -1.4772 C   0  0  0  0  0  0  0  0  0  0  0  0
   -1.4515   -0.7087   -0.2855 C   0  0  0  0  0  0  0  0  0  0  0  0
   -1.0466   -1.3153    1.0222 C   0  0  0  0  0  0  0  0  0  0  0  0
   -1.9997    0.5671   -0.3374 C   0  0  0  0  0  0  0  0  0  0  0  0
   -2.3852    1.1300   -1.5374 C   0  0  0  0  0  0  0  0  0  0  0  0
   -3.8903    1.6168   -3.9583 C   0  0  0  0  0  0  0  0  0  0  0  0
   -4.0832    2.8697   -4.5375 C   0  0  0  0  0  0  0  0  0  0  0  0
   -5.3420    3.4315   -4.5562 C   0  0  0  0  0  0  0  0  0  0  0  0
   -6.4346    2.7720   -3.9981 C   0  0  0  0  0  0  0  0  0  0  0  0
   -7.7982    3.3872   -4.0570 C   0  0  0  0  0  0  0  0  0  0  0  0
   -6.2212    1.5458   -3.3850 C   0  0  0  0  0  0  0  0  0  0  0  0
   -4.9643    0.9715   -3.3552 C   0  0  0  0  0  0  0  0  0  0  0  0
   -0.3527    1.0061   -4.8554 C   0  0  0  0  0  0  0  0  0  0  0  0
    0.7099    0.8278   -3.5019 S   0  0  0  0  0  0  0  0  0  0  0  0
    2.1104    0.9722   -4.5635 C   0  0  0  0  0  0  0  0  0  0  0  0
    1.7614    1.2201   -5.8737 C   0  0  0  0  0  0  0  0  0  0  0  0
    2.6445    1.5095   -6.8956 N   0  0  0  0  0  0  0  0  0  0  0  0
    2.2902    1.1515   -8.2095 C   0  0  0  0  0  0  0  0  0  0  0  0
    1.7174   -0.0915   -8.4627 C   0  0  0  0  0  0  0  0  0  0  0  0
    1.3180   -0.4212   -9.7427 C   0  0  0  0  0  0  0  0  0  0  0  0
    1.4839    0.4678  -10.7961 C   0  0  0  0  0  0  0  0  0  0  0  0
    0.9956    0.1310  -12.1709 C   0  0  0  0  0  0  0  0  0  0  0  0
    2.0828    1.6952  -10.5373 C   0  0  0  0  0  0  0  0  0  0  0  0
    2.4817    2.0404   -9.2623 C   0  0  0  0  0  0  0  0  0  0  0  0
    3.8248    2.2202   -6.6420 C   0  0  0  0  0  0  0  0  0  0  0  0
    4.9754    1.9609   -7.3863 C   0  0  0  0  0  0  0  0  0  0  0  0
    6.1491    2.6316   -7.1107 C   0  0  0  0  0  0  0  0  0  0  0  0
    6.2178    3.5767   -6.0929 C   0  0  0  0  0  0  0  0  0  0  0  0
    7.5103    4.2680   -5.7819 C   0  0  0  0  0  0  0  0  0  0  0  0
    5.0612    3.8525   -5.3770 C   0  0  0  0  0  0  0  0  0  0  0  0
    3.8781    3.1935   -5.6477 C   0  0  0  0  0  0  0  0  0  0  0  0
    0.3489    1.1965   -6.0378 C   0  0  0  0  0  0  0  0  0  0  0  0
   -0.6871    1.4292   -7.3965 S   0  0  0  0  0  0  0  0  0  0  0  0
    3.3864    0.8077   -3.9104 C   0  0  0  0  0  0  0  0  0  0  0  0
    4.2068   -0.2951   -3.9084 C   0  0  0  0  0  0  0  0  0  0  0  0
    4.0508   -1.4709   -4.7729 C   0  0  0  0  0  0  0  0  0  0  0  0
    4.0821   -1.3729   -6.1575 C   0  0  0  0  0  0  0  0  0  0  0  0
    3.9356   -2.5087   -6.9327 C   0  0  0  0  0  0  0  0  0  0  0  0
    3.7637   -3.7448   -6.3353 C   0  0  0  0  0  0  0  0  0  0  0  0
    3.7361   -3.8612   -4.9513 C   0  0  0  0  0  0  0  0  0  0  0  0
    3.6146   -5.2020   -4.2863 C   0  0  0  0  0  0  0  0  0  0  0  0
    4.9991   -5.7245   -3.8975 C   0  0  0  0  0  0  0  0  0  0  0  0
    3.8791   -2.7175   -4.1808 C   0  0  0  0  0  0  0  0  0  0  0  0
    5.1290   -0.2494   -2.8365 C   0  0  0  0  0  0  0  0  0  0  0  0
    6.2296   -1.4361   -2.1680 S   0  0  0  0  0  0  0  0  0  0  0  0
    6.3807   -0.4660   -0.7350 C   0  0  0  0  0  0  0  0  0  0  0  0
    6.7656   -0.6178    0.6152 C   0  0  0  0  0  0  0  0  0  0  0  0
    7.3999   -1.6569    1.3331 C   0  0  0  0  0  0  0  0  0  0  0  0
    7.3777   -1.6347    2.7755 C   0  0  0  0  0  0  0  0  0  0  0  0
    7.9956   -2.6775    3.3034 N   0  0  0  0  0  0  0  0  0  0  0  0
    8.5587   -3.6091    2.1032 S   0  0  0  0  0  0  0  0  0  0  0  0
    8.0247   -2.7214    0.8581 N   0  0  0  0  0  0  0  0  0  0  0  0
    6.6106   -0.6446    3.4330 C   0  0  0  0  0  0  0  0  0  0  0  0
    5.9926   -0.6321    4.6973 C   0  0  0  0  0  0  0  0  0  0  0  0
    5.7917   -1.6886    6.0588 S   0  0  0  0  0  0  0  0  0  0  0  0
    4.3242   -0.8358    6.5095 C   0  0  0  0  0  0  0  0  0  0  0  0
    3.1870   -1.2248    7.2708 C   0  0  0  0  0  0  0  0  0  0  0  0
    3.1728   -2.2225    8.3309 C   0  0  0  0  0  0  0  0  0  0  0  0
    2.0030   -2.5122    9.0382 C   0  0  0  0  0  0  0  0  0  0  0  0
    2.0253   -3.4045   10.0891 C   0  0  0  0  0  0  0  0  0  0  0  0
    3.2120   -3.9999   10.4803 C   0  0  0  0  0  0  0  0  0  0  0  0
    4.3950   -3.7016    9.8183 C   0  0  0  0  0  0  0  0  0  0  0  0
    5.6972   -4.3182   10.2440 C   0  0  0  0  0  0  0  0  0  0  0  0
    6.0242   -5.5526    9.4033 C   0  0  0  0  0  0  0  0  0  0  0  0
    4.3594   -2.8269    8.7443 C   0  0  0  0  0  0  0  0  0  0  0  0
    2.0954   -0.4321    6.9383 C   0  0  0  0  0  0  0  0  0  0  0  0
    2.5491    0.9706    5.9571 S   0  0  0  0  0  0  0  0  0  0  0  0
    4.1074    0.2763    5.6985 C   0  0  0  0  0  0  0  0  0  0  0  0
    5.0572    0.4055    4.6804 C   0  0  0  0  0  0  0  0  0  0  0  0
    5.1141    1.0734    3.4884 N   0  0  0  0  0  0  0  0  0  0  0  0
    6.0389    0.4278    2.6967 C   0  0  0  0  0  0  0  0  0  0  0  0
    6.2457    0.5094    1.3008 C   0  0  0  0  0  0  0  0  0  0  0  0
    5.6786    1.3839    0.3864 N   0  0  0  0  0  0  0  0  0  0  0  0
    5.7046    0.7511   -0.8315 C   0  0  0  0  0  0  0  0  0  0  0  0
    4.9987    0.8791   -2.0332 C   0  0  0  0  0  0  0  0  0  0  0  0
    3.7708    1.9386   -2.6150 S   0  0  0  0  0  0  0  0  0  0  0  0
    5.6608    2.8309    0.4587 C   0  0  0  0  0  0  0  0  0  0  0  0
    6.7503    3.4392   -0.4236 C   0  0  0  0  0  0  0  0  0  0  0  0
    4.0740    2.0074    3.1290 C   0  0  0  0  0  0  0  0  0  0  0  0
    4.3030    3.3791    3.7596 C   0  0  0  0  0  0  0  0  0  0  0  0
    0.7305   -0.8173    6.7245 C   0  0  0  0  0  0  0  0  0  0  0  0
    0.3886   -1.9301    5.9654 C   0  0  0  0  0  0  0  0  0  0  0  0
    1.3074   -2.9143    5.5604 N   0  0  0  0  0  0  0  0  0  0  0  0
    1.8725   -2.7860    4.2900 C   0  0  0  0  0  0  0  0  0  0  0  0
    2.4117   -3.8822    3.6137 C   0  0  0  0  0  0  0  0  0  0  0  0
    2.9871   -3.7277    2.3701 C   0  0  0  0  0  0  0  0  0  0  0  0
    3.0337   -2.4902    1.7366 C   0  0  0  0  0  0  0  0  0  0  0  0
    3.6449   -2.3499    0.3763 C   0  0  0  0  0  0  0  0  0  0  0  0
    2.4618   -1.4110    2.3921 C   0  0  0  0  0  0  0  0  0  0  0  0
    1.8872   -1.5507    3.6416 C   0  0  0  0  0  0  0  0  0  0  0  0
    1.5016   -4.0289    6.3875 C   0  0  0  0  0  0  0  0  0  0  0  0
    0.4435   -4.5241    7.1442 C   0  0  0  0  0  0  0  0  0  0  0  0
    0.6301   -5.6056    7.9823 C   0  0  0  0  0  0  0  0  0  0  0  0
    1.8655   -6.2295    8.0821 C   0  0  0  0  0  0  0  0  0  0  0  0
    2.0705   -7.3919    9.0044 C   0  0  0  0  0  0  0  0  0  0  0  0
    2.9179   -5.7265    7.3268 C   0  0  0  0  0  0  0  0  0  0  0  0
    2.7509   -4.6342    6.5022 C   0  0  0  0  0  0  0  0  0  0  0  0
   -0.9212   -1.8189    5.4624 C   0  0  0  0  0  0  0  0  0  0  0  0
   -1.8667   -2.8242    4.4353 S   0  0  0  0  0  0  0  0  0  0  0  0
   -3.0906   -1.5493    4.2939 C   0  0  0  0  0  0  0  0  0  0  0  0
   -2.8153   -0.4512    5.1481 C   0  0  0  0  0  0  0  0  0  0  0  0
   -3.6366    0.6034    5.3937 N   0  0  0  0  0  0  0  0  0  0  0  0
   -3.0947    1.8117    5.8950 C   0  0  0  0  0  0  0  0  0  0  0  0
   -3.6746    2.4157    7.0035 C   0  0  0  0  0  0  0  0  0  0  0  0
   -3.1516    3.5967    7.4950 C   0  0  0  0  0  0  0  0  0  0  0  0
   -2.0511    4.1962    6.8955 C   0  0  0  0  0  0  0  0  0  0  0  0
   -1.4662    5.4624    7.4394 C   0  0  0  0  0  0  0  0  0  0  0  0
   -1.4924    3.5905    5.7748 C   0  0  0  0  0  0  0  0  0  0  0  0
   -2.0045    2.4113    5.2727 C   0  0  0  0  0  0  0  0  0  0  0  0
   -5.0203    0.5759    5.1592 C   0  0  0  0  0  0  0  0  0  0  0  0
   -5.7928   -0.5294    5.5110 C   0  0  0  0  0  0  0  0  0  0  0  0
   -7.1475   -0.5357    5.2546 C   0  0  0  0  0  0  0  0  0  0  0  0
   -7.7713    0.5477    4.6391 C   0  0  0  0  0  0  0  0  0  0  0  0
   -9.2337    0.5039    4.3273 C   0  0  0  0  0  0  0  0  0  0  0  0
   -6.9990    1.6564    4.3194 C   0  0  0  0  0  0  0  0  0  0  0  0
   -5.6413    1.6798    4.5794 C   0  0  0  0  0  0  0  0  0  0  0  0
   -1.5669   -0.6298    5.7845 C   0  0  0  0  0  0  0  0  0  0  0  0
   -0.5795    0.3377    6.8404 S   0  0  0  0  0  0  0  0  0  0  0  0
   -4.1034   -1.7564    3.3618 C   0  0  0  0  0  0  0  0  0  0  0  0
   -4.7852   -0.7598    2.6841 C   0  0  0  0  0  0  0  0  0  0  0  0
   -4.1989    0.5519    2.4135 C   0  0  0  0  0  0  0  0  0  0  0  0
   -3.1213    0.9757    2.7917 O   0  0  0  0  0  0  0  0  0  0  0  0
   -5.1236    1.2081    1.4587 C   0  0  0  0  0  0  0  0  0  0  0  0
   -6.2121    0.3556    1.2044 C   0  0  0  0  0  0  0  0  0  0  0  0
   -7.2176    0.7506    0.3405 C   0  0  0  0  0  0  0  0  0  0  0  0
   -7.1211    1.9959   -0.2663 C   0  0  0  0  0  0  0  0  0  0  0  0
   -6.0410    2.8266   -0.0223 C   0  0  0  0  0  0  0  0  0  0  0  0
   -5.9544    4.5062   -0.8831 Br  0  0  0  0  0  0  0  0  0  0  0  0
   -5.0207    2.4470    0.8550 C   0  0  0  0  0  0  0  0  0  0  0  0
   -3.7068    3.4969    1.1887 Cl  0  0  0  0  0  0  0  0  0  0  0  0
   -6.0310   -0.8659    1.9888 C   0  0  0  0  0  0  0  0  0  0  0  0
   -6.9627   -1.8619    2.1581 C   0  0  0  0  0  0  0  0  0  0  0  0
   -8.2362   -1.8596    1.5625 C   0  0  0  0  0  0  0  0  0  0  0  0
   -9.2974   -1.8887    1.1226 N   0  0  0  0  0  0  0  0  0  0  0  0
   -6.7796   -2.9527    3.0304 C   0  0  0  0  0  0  0  0  0  0  0  0
   -6.7009   -3.8464    3.7477 N   0  0  0  0  0  0  0  0  0  0  0  0
   -4.1145    0.7039   -6.0996 H   0  0  0  0  0  0  0  0  0  0  0  0
   -6.5370    2.0286  -12.9158 H   0  0  0  0  0  0  0  0  0  0  0  0
   -7.5034    1.1266  -10.6634 H   0  0  0  0  0  0  0  0  0  0  0  0
   -1.5366   -1.4059   -3.6053 H   0  0  0  0  0  0  0  0  0  0  0  0
   -0.8665   -2.4012   -1.4566 H   0  0  0  0  0  0  0  0  0  0  0  0
    0.0361   -1.4308    1.0744 H   0  0  0  0  0  0  0  0  0  0  0  0
   -1.3675   -0.6877    1.8501 H   0  0  0  0  0  0  0  0  0  0  0  0
   -1.4874   -2.3045    1.1406 H   0  0  0  0  0  0  0  0  0  0  0  0
   -2.1182    1.1269    0.5771 H   0  0  0  0  0  0  0  0  0  0  0  0
   -2.8115    2.1223   -1.5675 H   0  0  0  0  0  0  0  0  0  0  0  0
   -3.2467    3.3892   -4.9812 H   0  0  0  0  0  0  0  0  0  0  0  0
   -5.4841    4.4013   -5.0098 H   0  0  0  0  0  0  0  0  0  0  0  0
   -7.8477    4.2586   -3.4037 H   0  0  0  0  0  0  0  0  0  0  0  0
   -8.0220    3.7204   -5.0687 H   0  0  0  0  0  0  0  0  0  0  0  0
   -8.5598    2.6744   -3.7507 H   0  0  0  0  0  0  0  0  0  0  0  0
   -7.0496    1.0074   -2.9505 H   0  0  0  0  0  0  0  0  0  0  0  0
   -4.8181    0.0087   -2.8906 H   0  0  0  0  0  0  0  0  0  0  0  0
    1.5858   -0.7931   -7.6513 H   0  0  0  0  0  0  0  0  0  0  0  0
    0.8653   -1.3856   -9.9235 H   0  0  0  0  0  0  0  0  0  0  0  0
    0.9750   -0.9453  -12.3263 H   0  0  0  0  0  0  0  0  0  0  0  0
    1.6238    0.5881  -12.9322 H   0  0  0  0  0  0  0  0  0  0  0  0
   -0.0185    0.5115  -12.2976 H   0  0  0  0  0  0  0  0  0  0  0  0
    2.2225    2.3996  -11.3444 H   0  0  0  0  0  0  0  0  0  0  0  0
    2.9296    3.0045   -9.0709 H   0  0  0  0  0  0  0  0  0  0  0  0
    4.9439    1.2330   -8.1843 H   0  0  0  0  0  0  0  0  0  0  0  0
    7.0331    2.4110   -7.6915 H   0  0  0  0  0  0  0  0  0  0  0  0
    7.3491    5.1147   -5.1190 H   0  0  0  0  0  0  0  0  0  0  0  0
    8.1987    3.5766   -5.2948 H   0  0  0  0  0  0  0  0  0  0  0  0
    7.9864    4.6221   -6.6944 H   0  0  0  0  0  0  0  0  0  0  0  0
    5.0796    4.5989   -4.5954 H   0  0  0  0  0  0  0  0  0  0  0  0
    2.9860    3.4414   -5.0918 H   0  0  0  0  0  0  0  0  0  0  0  0
    4.2477   -0.4148   -6.6191 H   0  0  0  0  0  0  0  0  0  0  0  0
    3.9592   -2.4263   -8.0098 H   0  0  0  0  0  0  0  0  0  0  0  0
    3.6533   -4.6284   -6.9476 H   0  0  0  0  0  0  0  0  0  0  0  0
    3.1352   -5.9122   -4.9628 H   0  0  0  0  0  0  0  0  0  0  0  0
    2.9987   -5.1154   -3.3885 H   0  0  0  0  0  0  0  0  0  0  0  0
    5.6216   -5.8371   -4.7823 H   0  0  0  0  0  0  0  0  0  0  0  0
    4.9173   -6.6906   -3.4048 H   0  0  0  0  0  0  0  0  0  0  0  0
    5.4902   -5.0281   -3.2216 H   0  0  0  0  0  0  0  0  0  0  0  0
    3.8474   -2.7934   -3.1034 H   0  0  0  0  0  0  0  0  0  0  0  0
    1.0763   -2.0288    8.7704 H   0  0  0  0  0  0  0  0  0  0  0  0
    1.1112   -3.6262   10.6197 H   0  0  0  0  0  0  0  0  0  0  0  0
    3.2232   -4.6816   11.3186 H   0  0  0  0  0  0  0  0  0  0  0  0
    5.6418   -4.6035   11.2965 H   0  0  0  0  0  0  0  0  0  0  0  0
    6.5006   -3.5876   10.1303 H   0  0  0  0  0  0  0  0  0  0  0  0
    6.0984   -5.2823    8.3527 H   0  0  0  0  0  0  0  0  0  0  0  0
    6.9712   -5.9849    9.7183 H   0  0  0  0  0  0  0  0  0  0  0  0
    5.2451   -6.3028    9.5168 H   0  0  0  0  0  0  0  0  0  0  0  0
    5.2838   -2.5976    8.2376 H   0  0  0  0  0  0  0  0  0  0  0  0
    4.6823    3.1955    0.1265 H   0  0  0  0  0  0  0  0  0  0  0  0
    5.8357    3.1298    1.4908 H   0  0  0  0  0  0  0  0  0  0  0  0
    6.7522    4.5197   -0.3072 H   0  0  0  0  0  0  0  0  0  0  0  0
    6.5738    3.2034   -1.4699 H   0  0  0  0  0  0  0  0  0  0  0  0
    7.7272    3.0541   -0.1387 H   0  0  0  0  0  0  0  0  0  0  0  0
    3.1256    1.6063    3.5016 H   0  0  0  0  0  0  0  0  0  0  0  0
    4.0028    2.0679    2.0457 H   0  0  0  0  0  0  0  0  0  0  0  0
    3.5294    4.0683    3.4335 H   0  0  0  0  0  0  0  0  0  0  0  0
    4.2622    3.3005    4.8432 H   0  0  0  0  0  0  0  0  0  0  0  0
    5.2735    3.7864    3.4851 H   0  0  0  0  0  0  0  0  0  0  0  0
    2.3606   -4.8639    4.0577 H   0  0  0  0  0  0  0  0  0  0  0  0
    3.3999   -4.5927    1.8710 H   0  0  0  0  0  0  0  0  0  0  0  0
    4.6793   -2.6910    0.3820 H   0  0  0  0  0  0  0  0  0  0  0  0
    3.0995   -2.9566   -0.3469 H   0  0  0  0  0  0  0  0  0  0  0  0
    3.6212   -1.3145    0.0431 H   0  0  0  0  0  0  0  0  0  0  0  0
    2.4572   -0.4395    1.9164 H   0  0  0  0  0  0  0  0  0  0  0  0
    1.4328   -0.6880    4.1038 H   0  0  0  0  0  0  0  0  0  0  0  0
   -0.5307   -4.0635    7.0716 H   0  0  0  0  0  0  0  0  0  0  0  0
   -0.2037   -5.9758    8.5615 H   0  0  0  0  0  0  0  0  0  0  0  0
    1.1452   -7.9458    9.1442 H   0  0  0  0  0  0  0  0  0  0  0  0
    2.8306   -8.0664    8.6163 H   0  0  0  0  0  0  0  0  0  0  0  0
    2.4014   -7.0355    9.9808 H   0  0  0  0  0  0  0  0  0  0  0  0
    3.8896   -6.1923    7.3916 H   0  0  0  0  0  0  0  0  0  0  0  0
    3.5921   -4.2372    5.9542 H   0  0  0  0  0  0  0  0  0  0  0  0
   -4.5298    1.9553    7.4765 H   0  0  0  0  0  0  0  0  0  0  0  0
   -3.6051    4.0559    8.3611 H   0  0  0  0  0  0  0  0  0  0  0  0
   -2.1207    5.9074    8.1842 H   0  0  0  0  0  0  0  0  0  0  0  0
   -1.3001    6.1828    6.6407 H   0  0  0  0  0  0  0  0  0  0  0  0
   -0.5033    5.2561    7.9067 H   0  0  0  0  0  0  0  0  0  0  0  0
   -0.6472    4.0529    5.2865 H   0  0  0  0  0  0  0  0  0  0  0  0
   -1.5910    1.9588    4.3852 H   0  0  0  0  0  0  0  0  0  0  0  0
   -5.3300   -1.3815    5.9856 H   0  0  0  0  0  0  0  0  0  0  0  0
   -7.7336   -1.3989    5.5333 H   0  0  0  0  0  0  0  0  0  0  0  0
   -9.6174    1.4987    4.1166 H   0  0  0  0  0  0  0  0  0  0  0  0
   -9.4141   -0.1227    3.4529 H   0  0  0  0  0  0  0  0  0  0  0  0
   -9.7911    0.0766    5.1581 H   0  0  0  0  0  0  0  0  0  0  0  0
   -7.4625    2.5143    3.8542 H   0  0  0  0  0  0  0  0  0  0  0  0
   -5.0526    2.5500    4.3297 H   0  0  0  0  0  0  0  0  0  0  0  0
   -4.3039   -2.7878    3.0976 H   0  0  0  0  0  0  0  0  0  0  0  0
   -8.0624    0.1170    0.1265 H   0  0  0  0  0  0  0  0  0  0  0  0
   -7.8963    2.3308   -0.9373 H   0  0  0  0  0  0  0  0  0  0  0  0
  1  2  2  0  0  0  0
  2  3  1  0  0  0  0
  3  4  2  0  0  0  0
  3  5  1  0  0  0  0
  5  6  1  0  0  0  0
  6  7  1  0  0  0  0
  7  8  2  0  0  0  0
  8  9  1  0  0  0  0
  9 10  1  0  0  0  0
 10 11  2  0  0  0  0
 11 12  1  0  0  0  0
 12 13  3  0  0  0  0
 11 14  1  0  0  0  0
 14 15  3  0  0  0  0
  1 16  1  0  0  0  0
 16 17  2  0  0  0  0
 17 18  1  0  0  0  0
 18 19  1  0  0  0  0
 19 20  2  0  0  0  0
 20 21  1  0  0  0  0
 21 22  2  0  0  0  0
 22 23  1  0  0  0  0
 22 24  1  0  0  0  0
 24 25  2  0  0  0  0
 18 26  1  0  0  0  0
 26 27  2  0  0  0  0
 27 28  1  0  0  0  0
 28 29  2  0  0  0  0
 29 30  1  0  0  0  0
 29 31  1  0  0  0  0
 31 32  2  0  0  0  0
 17 33  1  0  0  0  0
 33 34  1  0  0  0  0
 34 35  1  0  0  0  0
 35 36  2  0  0  0  0
 36 37  1  0  0  0  0
 37 38  1  0  0  0  0
 38 39  2  0  0  0  0
 39 40  1  0  0  0  0
 40 41  2  0  0  0  0
 41 42  1  0  0  0  0
 41 43  1  0  0  0  0
 43 44  2  0  0  0  0
 37 45  1  0  0  0  0
 45 46  2  0  0  0  0
 46 47  1  0  0  0  0
 47 48  2  0  0  0  0
 48 49  1  0  0  0  0
 48 50  1  0  0  0  0
 50 51  2  0  0  0  0
 36 52  1  0  0  0  0
 52 53  1  0  0  0  0
 35 54  1  0  0  0  0
 54 55  2  0  0  0  0
 55 56  1  0  0  0  0
 56 57  2  0  0  0  0
 57 58  1  0  0  0  0
 58 59  2  0  0  0  0
 59 60  1  0  0  0  0
 60 61  1  0  0  0  0
 61 62  1  0  0  0  0
 60 63  2  0  0  0  0
 55 64  1  0  0  0  0
 64 65  1  0  0  0  0
 65 66  1  0  0  0  0
 66 67  1  0  0  0  0
 67 68  1  0  0  0  0
 68 69  1  0  0  0  0
 69 70  2  0  0  0  0
 70 71  1  0  0  0  0
 71 72  1  0  0  0  0
 69 73  1  0  0  0  0
 73 74  1  0  0  0  0
 74 75  1  0  0  0  0
 75 76  1  0  0  0  0
 76 77  1  0  0  0  0
 77 78  1  0  0  0  0
 78 79  2  0  0  0  0
 79 80  1  0  0  0  0
 80 81  2  0  0  0  0
 81 82  1  0  0  0  0
 82 83  1  0  0  0  0
 83 84  1  0  0  0  0
 82 85  2  0  0  0  0
 77 86  2  0  0  0  0
 86 87  1  0  0  0  0
 87 88  1  0  0  0  0
 88 89  1  0  0  0  0
 89 90  1  0  0  0  0
 90 91  1  0  0  0  0
 91 92  1  0  0  0  0
 92 93  1  0  0  0  0
 93 94  1  0  0  0  0
 94 95  1  0  0  0  0
 95 96  1  0  0  0  0
 93 97  1  0  0  0  0
 97 98  1  0  0  0  0
 90 99  1  0  0  0  0
 99100  1  0  0  0  0
 86101  1  0  0  0  0
101102  2  0  0  0  0
102103  1  0  0  0  0
103104  1  0  0  0  0
104105  2  0  0  0  0
105106  1  0  0  0  0
106107  2  0  0  0  0
107108  1  0  0  0  0
107109  1  0  0  0  0
109110  2  0  0  0  0
103111  1  0  0  0  0
111112  2  0  0  0  0
112113  1  0  0  0  0
113114  2  0  0  0  0
114115  1  0  0  0  0
114116  1  0  0  0  0
116117  2  0  0  0  0
102118  1  0  0  0  0
118119  1  0  0  0  0
119120  1  0  0  0  0
120121  2  0  0  0  0
121122  1  0  0  0  0
122123  1  0  0  0  0
123124  2  0  0  0  0
124125  1  0  0  0  0
125126  2  0  0  0  0
126127  1  0  0  0  0
126128  1  0  0  0  0
128129  2  0  0  0  0
122130  1  0  0  0  0
130131  2  0  0  0  0
131132  1  0  0  0  0
132133  2  0  0  0  0
133134  1  0  0  0  0
133135  1  0  0  0  0
135136  2  0  0  0  0
121137  1  0  0  0  0
137138  1  0  0  0  0
120139  1  0  0  0  0
139140  2  0  0  0  0
140141  1  0  0  0  0
141142  2  0  0  0  0
141143  1  0  0  0  0
143144  2  0  0  0  0
144145  1  0  0  0  0
145146  2  0  0  0  0
146147  1  0  0  0  0
147148  1  0  0  0  0
147149  2  0  0  0  0
149150  1  0  0  0  0
144151  1  0  0  0  0
151152  2  0  0  0  0
152153  1  0  0  0  0
153154  3  0  0  0  0
152155  1  0  0  0  0
155156  3  0  0  0  0
 10  2  1  0  0  0  0
 53 16  1  0  0  0  0
 96 54  1  0  0  0  0
138101  1  0  0  0  0
151140  1  0  0  0  0
  9  5  2  0  0  0  0
 25 19  1  0  0  0  0
 32 26  1  0  0  0  0
 52 33  2  0  0  0  0
 63 56  1  0  0  0  0
 95 64  2  0  0  0  0
110104  1  0  0  0  0
117111  1  0  0  0  0
137118  2  0  0  0  0
149143  1  0  0  0  0
 44 38  1  0  0  0  0
 51 45  1  0  0  0  0
 94 66  2  0  0  0  0
129123  1  0  0  0  0
136130  1  0  0  0  0
 92 67  2  0  0  0  0
 72 68  2  0  0  0  0
 91 73  2  0  0  0  0
 89 74  2  0  0  0  0
 88 76  2  0  0  0  0
 85 78  1  0  0  0  0
  1157  1  0  0  0  0
  7158  1  0  0  0  0
  8159  1  0  0  0  0
 20160  1  0  0  0  0
 21161  1  0  0  0  0
 23162  1  0  0  0  0
 23163  1  0  0  0  0
 23164  1  0  0  0  0
 24165  1  0  0  0  0
 25166  1  0  0  0  0
 27167  1  0  0  0  0
 28168  1  0  0  0  0
 30169  1  0  0  0  0
 30170  1  0  0  0  0
 30171  1  0  0  0  0
 31172  1  0  0  0  0
 32173  1  0  0  0  0
 39174  1  0  0  0  0
 40175  1  0  0  0  0
 42176  1  0  0  0  0
 42177  1  0  0  0  0
 42178  1  0  0  0  0
 43179  1  0  0  0  0
 44180  1  0  0  0  0
 46181  1  0  0  0  0
 47182  1  0  0  0  0
 49183  1  0  0  0  0
 49184  1  0  0  0  0
 49185  1  0  0  0  0
 50186  1  0  0  0  0
 51187  1  0  0  0  0
 57188  1  0  0  0  0
 58189  1  0  0  0  0
 59190  1  0  0  0  0
 61191  1  0  0  0  0
 61192  1  0  0  0  0
 62193  1  0  0  0  0
 62194  1  0  0  0  0
 62195  1  0  0  0  0
 63196  1  0  0  0  0
 79197  1  0  0  0  0
 80198  1  0  0  0  0
 81199  1  0  0  0  0
 83200  1  0  0  0  0
 83201  1  0  0  0  0
 84202  1  0  0  0  0
 84203  1  0  0  0  0
 84204  1  0  0  0  0
 85205  1  0  0  0  0
 97206  1  0  0  0  0
 97207  1  0  0  0  0
 98208  1  0  0  0  0
 98209  1  0  0  0  0
 98210  1  0  0  0  0
 99211  1  0  0  0  0
 99212  1  0  0  0  0
100213  1  0  0  0  0
100214  1  0  0  0  0
100215  1  0  0  0  0
105216  1  0  0  0  0
106217  1  0  0  0  0
108218  1  0  0  0  0
108219  1  0  0  0  0
108220  1  0  0  0  0
109221  1  0  0  0  0
110222  1  0  0  0  0
112223  1  0  0  0  0
113224  1  0  0  0  0
115225  1  0  0  0  0
115226  1  0  0  0  0
115227  1  0  0  0  0
116228  1  0  0  0  0
117229  1  0  0  0  0
124230  1  0  0  0  0
125231  1  0  0  0  0
127232  1  0  0  0  0
127233  1  0  0  0  0
127234  1  0  0  0  0
128235  1  0  0  0  0
129236  1  0  0  0  0
131237  1  0  0  0  0
132238  1  0  0  0  0
134239  1  0  0  0  0
134240  1  0  0  0  0
134241  1  0  0  0  0
135242  1  0  0  0  0
136243  1  0  0  0  0
139244  1  0  0  0  0
145245  1  0  0  0  0
146246  1  0  0  0  0
M  END
