
  xtb     02072217083D
 energy: -405.327713953075 gnorm: 0.000269955163 xtb: 6.4.1 (unknown)
248272  0     0  0            999 V2000
   -1.9762    5.8530   10.3994 C   0  0  0  0  0  0  0  0  0  0  0  0
   -2.7283    6.7943   11.0340 C   0  0  0  0  0  0  0  0  0  0  0  0
   -3.0741    8.4023   10.4387 S   0  0  0  0  0  0  0  0  0  0  0  0
   -4.1651    8.6965   11.7712 C   0  0  0  0  0  0  0  0  0  0  0  0
   -4.9224    9.8429   11.7792 C   0  0  0  0  0  0  0  0  0  0  0  0
   -4.8373   10.7129   10.6733 C   0  0  0  0  0  0  0  0  0  0  0  0
   -4.7869   11.4048    9.7588 N   0  0  0  0  0  0  0  0  0  0  0  0
   -5.8291   10.2452   12.7720 C   0  0  0  0  0  0  0  0  0  0  0  0
   -6.5848   10.6322   13.5464 N   0  0  0  0  0  0  0  0  0  0  0  0
   -4.1553    7.6743   12.6601 N   0  0  0  0  0  0  0  0  0  0  0  0
   -4.9049    7.6425   13.9006 C   0  0  0  0  0  0  0  0  0  0  0  0
   -4.2098    8.4383   14.9988 C   0  0  0  0  0  0  0  0  0  0  0  0
   -3.3540    6.5818   12.3250 C   0  0  0  0  0  0  0  0  0  0  0  0
   -3.2693    5.5914   13.0178 O   0  0  0  0  0  0  0  0  0  0  0  0
   -1.5576    5.8895    9.0554 C   0  0  0  0  0  0  0  0  0  0  0  0
   -2.1648    6.4992    7.9494 C   0  0  0  0  0  0  0  0  0  0  0  0
   -3.4322    7.0398    7.9114 N   0  0  0  0  0  0  0  0  0  0  0  0
   -3.6648    8.1261    7.0445 C   0  0  0  0  0  0  0  0  0  0  0  0
   -4.8116    8.1833    6.2595 C   0  0  0  0  0  0  0  0  0  0  0  0
   -5.0490    9.2880    5.4670 C   0  0  0  0  0  0  0  0  0  0  0  0
   -4.1534   10.3503    5.4266 C   0  0  0  0  0  0  0  0  0  0  0  0
   -4.4601   11.5789    4.6293 C   0  0  0  0  0  0  0  0  0  0  0  0
   -2.9914   10.2637    6.1825 C   0  0  0  0  0  0  0  0  0  0  0  0
   -2.7464    9.1697    6.9868 C   0  0  0  0  0  0  0  0  0  0  0  0
   -4.5023    6.4616    8.6131 C   0  0  0  0  0  0  0  0  0  0  0  0
   -5.5548    7.2566    9.0647 C   0  0  0  0  0  0  0  0  0  0  0  0
   -6.5741    6.7054    9.8155 C   0  0  0  0  0  0  0  0  0  0  0  0
   -6.5825    5.3532   10.1339 C   0  0  0  0  0  0  0  0  0  0  0  0
   -7.6596    4.7568   10.9856 C   0  0  0  0  0  0  0  0  0  0  0  0
   -5.5521    4.5587    9.6437 C   0  0  0  0  0  0  0  0  0  0  0  0
   -4.5291    5.0970    8.8901 C   0  0  0  0  0  0  0  0  0  0  0  0
   -1.3710    6.3387    6.7926 C   0  0  0  0  0  0  0  0  0  0  0  0
   -1.5531    6.8374    5.1457 S   0  0  0  0  0  0  0  0  0  0  0  0
   -0.1309    5.9095    4.6948 C   0  0  0  0  0  0  0  0  0  0  0  0
    0.4929    5.3245    5.7906 C   0  0  0  0  0  0  0  0  0  0  0  0
    1.6849    4.6155    5.7332 N   0  0  0  0  0  0  0  0  0  0  0  0
    2.7757    5.1330    5.0242 C   0  0  0  0  0  0  0  0  0  0  0  0
    2.9538    6.5081    4.8933 C   0  0  0  0  0  0  0  0  0  0  0  0
    4.0164    7.0059    4.1664 C   0  0  0  0  0  0  0  0  0  0  0  0
    4.9273    6.1571    3.5484 C   0  0  0  0  0  0  0  0  0  0  0  0
    6.0580    6.7141    2.7387 C   0  0  0  0  0  0  0  0  0  0  0  0
    4.7474    4.7867    3.6895 C   0  0  0  0  0  0  0  0  0  0  0  0
    3.6896    4.2752    4.4146 C   0  0  0  0  0  0  0  0  0  0  0  0
    1.8124    3.4668    6.5274 C   0  0  0  0  0  0  0  0  0  0  0  0
    0.7361    2.5921    6.6550 C   0  0  0  0  0  0  0  0  0  0  0  0
    0.8421    1.4708    7.4529 C   0  0  0  0  0  0  0  0  0  0  0  0
    2.0185    1.1844    8.1345 C   0  0  0  0  0  0  0  0  0  0  0  0
    2.1196   -0.0222    9.0164 C   0  0  0  0  0  0  0  0  0  0  0  0
    3.0896    2.0594    7.9961 C   0  0  0  0  0  0  0  0  0  0  0  0
    2.9937    3.1895    7.2095 C   0  0  0  0  0  0  0  0  0  0  0  0
   -0.2342    5.5642    6.9776 C   0  0  0  0  0  0  0  0  0  0  0  0
   -0.0854    5.0190    8.6093 S   0  0  0  0  0  0  0  0  0  0  0  0
    0.1707    5.6762    3.3228 C   0  0  0  0  0  0  0  0  0  0  0  0
   -0.1623    6.4287    2.2158 C   0  0  0  0  0  0  0  0  0  0  0  0
   -0.7694    7.7716    2.2562 C   0  0  0  0  0  0  0  0  0  0  0  0
   -2.1481    7.8920    2.3602 C   0  0  0  0  0  0  0  0  0  0  0  0
   -2.7402    9.1410    2.3756 C   0  0  0  0  0  0  0  0  0  0  0  0
   -1.9476   10.2688    2.2790 C   0  0  0  0  0  0  0  0  0  0  0  0
   -0.5728   10.1503    2.1645 C   0  0  0  0  0  0  0  0  0  0  0  0
    0.0402    8.9065    2.1471 C   0  0  0  0  0  0  0  0  0  0  0  0
    1.5269    8.7214    1.9882 C   0  0  0  0  0  0  0  0  0  0  0  0
    2.3639    9.9851    2.1365 C   0  0  0  0  0  0  0  0  0  0  0  0
    0.1527    5.7586    1.0202 C   0  0  0  0  0  0  0  0  0  0  0  0
   -0.1036    6.1553   -0.6644 S   0  0  0  0  0  0  0  0  0  0  0  0
    0.4934    4.5849   -1.0990 C   0  0  0  0  0  0  0  0  0  0  0  0
    0.5906    3.7503   -2.2239 C   0  0  0  0  0  0  0  0  0  0  0  0
    0.1602    3.9570   -3.5521 C   0  0  0  0  0  0  0  0  0  0  0  0
    0.1476    2.8438   -4.4553 C   0  0  0  0  0  0  0  0  0  0  0  0
   -0.3441    3.1599   -5.6431 N   0  0  0  0  0  0  0  0  0  0  0  0
   -0.7493    4.7282   -5.6277 S   0  0  0  0  0  0  0  0  0  0  0  0
   -0.3188    5.0616   -4.1024 N   0  0  0  0  0  0  0  0  0  0  0  0
    0.6517    1.6022   -4.0134 C   0  0  0  0  0  0  0  0  0  0  0  0
    0.7468    0.3661   -4.6712 C   0  0  0  0  0  0  0  0  0  0  0  0
    0.2690   -0.3688   -6.1651 S   0  0  0  0  0  0  0  0  0  0  0  0
    0.9092   -1.8945   -5.5950 C   0  0  0  0  0  0  0  0  0  0  0  0
    0.9238   -3.1938   -6.1343 C   0  0  0  0  0  0  0  0  0  0  0  0
    0.3614   -3.6228   -7.4236 C   0  0  0  0  0  0  0  0  0  0  0  0
   -1.0106   -3.5830   -7.6881 C   0  0  0  0  0  0  0  0  0  0  0  0
   -2.0050   -3.0724   -6.6835 C   0  0  0  0  0  0  0  0  0  0  0  0
   -2.1178   -3.9862   -5.4632 C   0  0  0  0  0  0  0  0  0  0  0  0
   -1.4576   -4.0685   -8.9098 C   0  0  0  0  0  0  0  0  0  0  0  0
   -0.5835   -4.5748   -9.8533 C   0  0  0  0  0  0  0  0  0  0  0  0
    0.7749   -4.5968   -9.5911 C   0  0  0  0  0  0  0  0  0  0  0  0
    1.2399   -4.1239   -8.3803 C   0  0  0  0  0  0  0  0  0  0  0  0
    1.5831   -4.0785   -5.3011 C   0  0  0  0  0  0  0  0  0  0  0  0
    2.1584   -3.3125   -3.8273 S   0  0  0  0  0  0  0  0  0  0  0  0
    1.5100   -1.7976   -4.3371 C   0  0  0  0  0  0  0  0  0  0  0  0
    1.3930   -0.5100   -3.7991 C   0  0  0  0  0  0  0  0  0  0  0  0
    1.6943    0.1326   -2.6287 N   0  0  0  0  0  0  0  0  0  0  0  0
    1.2107    1.4284   -2.7139 C   0  0  0  0  0  0  0  0  0  0  0  0
    1.0969    2.4932   -1.7765 C   0  0  0  0  0  0  0  0  0  0  0  0
    1.2843    2.5784   -0.4084 N   0  0  0  0  0  0  0  0  0  0  0  0
    0.9106    3.8282   -0.0041 C   0  0  0  0  0  0  0  0  0  0  0  0
    0.7121    4.4949    1.2101 C   0  0  0  0  0  0  0  0  0  0  0  0
    0.8916    4.1277    2.8853 S   0  0  0  0  0  0  0  0  0  0  0  0
    1.6756    1.6274    0.6029 C   0  0  0  0  0  0  0  0  0  0  0  0
    3.1171    1.8524    1.0598 C   0  0  0  0  0  0  0  0  0  0  0  0
    2.5944   -0.4971   -1.6904 C   0  0  0  0  0  0  0  0  0  0  0  0
    1.8977   -1.5626   -0.8410 C   0  0  0  0  0  0  0  0  0  0  0  0
    1.6756   -5.4949   -5.4124 C   0  0  0  0  0  0  0  0  0  0  0  0
    2.6336   -6.3173   -4.8293 C   0  0  0  0  0  0  0  0  0  0  0  0
    3.8057   -5.8660   -4.2432 N   0  0  0  0  0  0  0  0  0  0  0  0
    4.2960   -6.5367   -3.1130 C   0  0  0  0  0  0  0  0  0  0  0  0
    3.4143   -6.9783   -2.1303 C   0  0  0  0  0  0  0  0  0  0  0  0
    3.8890   -7.6585   -1.0264 C   0  0  0  0  0  0  0  0  0  0  0  0
    5.2462   -7.9064   -0.8661 C   0  0  0  0  0  0  0  0  0  0  0  0
    5.7563   -8.6650    0.3205 C   0  0  0  0  0  0  0  0  0  0  0  0
    6.1198   -7.4543   -1.8486 C   0  0  0  0  0  0  0  0  0  0  0  0
    5.6580   -6.7824   -2.9618 C   0  0  0  0  0  0  0  0  0  0  0  0
    4.5460   -4.8466   -4.8559 C   0  0  0  0  0  0  0  0  0  0  0  0
    5.2653   -3.9364   -4.0848 C   0  0  0  0  0  0  0  0  0  0  0  0
    5.9555   -2.9043   -4.6900 C   0  0  0  0  0  0  0  0  0  0  0  0
    5.9449   -2.7425   -6.0693 C   0  0  0  0  0  0  0  0  0  0  0  0
    6.6652   -1.6063   -6.7281 C   0  0  0  0  0  0  0  0  0  0  0  0
    5.2347   -3.6624   -6.8330 C   0  0  0  0  0  0  0  0  0  0  0  0
    4.5493   -4.7035   -6.2419 C   0  0  0  0  0  0  0  0  0  0  0  0
    2.2800   -7.6770   -4.9608 C   0  0  0  0  0  0  0  0  0  0  0  0
    3.0238   -9.1522   -4.4696 S   0  0  0  0  0  0  0  0  0  0  0  0
    1.6749  -10.0824   -5.1500 C   0  0  0  0  0  0  0  0  0  0  0  0
    0.7637   -9.2521   -5.8474 C   0  0  0  0  0  0  0  0  0  0  0  0
   -0.2342   -9.6527   -6.6787 N   0  0  0  0  0  0  0  0  0  0  0  0
   -1.2886   -8.7558   -6.9854 C   0  0  0  0  0  0  0  0  0  0  0  0
   -1.5674   -8.4504   -8.3113 C   0  0  0  0  0  0  0  0  0  0  0  0
   -2.6111   -7.5968   -8.6152 C   0  0  0  0  0  0  0  0  0  0  0  0
   -3.4030   -7.0517   -7.6135 C   0  0  0  0  0  0  0  0  0  0  0  0
   -4.5539   -6.1495   -7.9351 C   0  0  0  0  0  0  0  0  0  0  0  0
   -3.1197   -7.3772   -6.2901 C   0  0  0  0  0  0  0  0  0  0  0  0
   -2.0683   -8.2123   -5.9703 C   0  0  0  0  0  0  0  0  0  0  0  0
   -0.2894  -10.9211   -7.2742 C   0  0  0  0  0  0  0  0  0  0  0  0
    0.8535  -11.5377   -7.7818 C   0  0  0  0  0  0  0  0  0  0  0  0
    0.7749  -12.8037   -8.3216 C   0  0  0  0  0  0  0  0  0  0  0  0
   -0.4349  -13.4937   -8.3729 C   0  0  0  0  0  0  0  0  0  0  0  0
   -0.4873  -14.8891   -8.9092 C   0  0  0  0  0  0  0  0  0  0  0  0
   -1.5760  -12.8522   -7.9116 C   0  0  0  0  0  0  0  0  0  0  0  0
   -1.5124  -11.5804   -7.3732 C   0  0  0  0  0  0  0  0  0  0  0  0
    1.1035   -7.8934   -5.6677 C   0  0  0  0  0  0  0  0  0  0  0  0
    0.4048   -6.4025   -6.2123 S   0  0  0  0  0  0  0  0  0  0  0  0
    1.6760  -11.4537   -4.9177 C   0  0  0  0  0  0  0  0  0  0  0  0
    0.5622  -12.2764   -4.9374 C   0  0  0  0  0  0  0  0  0  0  0  0
   -0.7958  -11.8084   -4.6347 C   0  0  0  0  0  0  0  0  0  0  0  0
   -1.1505  -10.6739   -4.3676 O   0  0  0  0  0  0  0  0  0  0  0  0
   -1.6328  -13.0276   -4.5866 C   0  0  0  0  0  0  0  0  0  0  0  0
   -2.9836  -13.1470   -4.3339 C   0  0  0  0  0  0  0  0  0  0  0  0
   -3.5547  -14.4114   -4.3595 C   0  0  0  0  0  0  0  0  0  0  0  0
   -2.7624  -15.5195   -4.6249 C   0  0  0  0  0  0  0  0  0  0  0  0
   -3.4891  -17.0841   -4.6491 Cl  0  0  0  0  0  0  0  0  0  0  0  0
   -1.3962  -15.4137   -4.8723 C   0  0  0  0  0  0  0  0  0  0  0  0
   -0.8338  -14.1513   -4.8540 C   0  0  0  0  0  0  0  0  0  0  0  0
    0.5385  -13.6991   -5.0923 C   0  0  0  0  0  0  0  0  0  0  0  0
    1.5754  -14.4808   -5.5435 C   0  0  0  0  0  0  0  0  0  0  0  0
    1.4754  -15.8616   -5.7885 C   0  0  0  0  0  0  0  0  0  0  0  0
    1.4484  -16.9865   -6.0226 N   0  0  0  0  0  0  0  0  0  0  0  0
    2.8428  -13.9761   -5.8930 C   0  0  0  0  0  0  0  0  0  0  0  0
    3.8861  -13.6276   -6.2252 N   0  0  0  0  0  0  0  0  0  0  0  0
   -1.6659    5.0076   11.0020 H   0  0  0  0  0  0  0  0  0  0  0  0
   -4.9578    6.5875   14.1843 H   0  0  0  0  0  0  0  0  0  0  0  0
   -5.9130    8.0217   13.7226 H   0  0  0  0  0  0  0  0  0  0  0  0
   -4.1376    9.4905   14.7335 H   0  0  0  0  0  0  0  0  0  0  0  0
   -4.7818    8.3570   15.9181 H   0  0  0  0  0  0  0  0  0  0  0  0
   -3.2106    8.0448   15.1712 H   0  0  0  0  0  0  0  0  0  0  0  0
   -5.5168    7.3654    6.2831 H   0  0  0  0  0  0  0  0  0  0  0  0
   -5.9512    9.3283    4.8736 H   0  0  0  0  0  0  0  0  0  0  0  0
   -5.0098   11.3333    3.7234 H   0  0  0  0  0  0  0  0  0  0  0  0
   -3.5480   12.1066    4.3636 H   0  0  0  0  0  0  0  0  0  0  0  0
   -5.0778   12.2525    5.2244 H   0  0  0  0  0  0  0  0  0  0  0  0
   -2.2785   11.0741    6.1601 H   0  0  0  0  0  0  0  0  0  0  0  0
   -1.8553    9.1272    7.5962 H   0  0  0  0  0  0  0  0  0  0  0  0
   -5.5581    8.3137    8.8407 H   0  0  0  0  0  0  0  0  0  0  0  0
   -7.3706    7.3447   10.1695 H   0  0  0  0  0  0  0  0  0  0  0  0
   -8.1169    3.9058   10.4831 H   0  0  0  0  0  0  0  0  0  0  0  0
   -8.4321    5.4884   11.2077 H   0  0  0  0  0  0  0  0  0  0  0  0
   -7.2387    4.3993   11.9253 H   0  0  0  0  0  0  0  0  0  0  0  0
   -5.5498    3.5003    9.8587 H   0  0  0  0  0  0  0  0  0  0  0  0
   -3.7444    4.4565    8.5167 H   0  0  0  0  0  0  0  0  0  0  0  0
    2.2609    7.1859    5.3708 H   0  0  0  0  0  0  0  0  0  0  0  0
    4.1465    8.0754    4.0852 H   0  0  0  0  0  0  0  0  0  0  0  0
    5.7021    7.0068    1.7500 H   0  0  0  0  0  0  0  0  0  0  0  0
    6.8461    5.9763    2.6108 H   0  0  0  0  0  0  0  0  0  0  0  0
    6.4763    7.5973    3.2171 H   0  0  0  0  0  0  0  0  0  0  0  0
    5.4429    4.1060    3.2191 H   0  0  0  0  0  0  0  0  0  0  0  0
    3.5566    3.2077    4.5078 H   0  0  0  0  0  0  0  0  0  0  0  0
   -0.1797    2.7954    6.1186 H   0  0  0  0  0  0  0  0  0  0  0  0
   -0.0021    0.8024    7.5431 H   0  0  0  0  0  0  0  0  0  0  0  0
    1.5023   -0.8334    8.6371 H   0  0  0  0  0  0  0  0  0  0  0  0
    1.7732    0.2219   10.0212 H   0  0  0  0  0  0  0  0  0  0  0  0
    3.1489   -0.3652    9.0899 H   0  0  0  0  0  0  0  0  0  0  0  0
    4.0118    1.8588    8.5221 H   0  0  0  0  0  0  0  0  0  0  0  0
    3.8305    3.8669    7.1249 H   0  0  0  0  0  0  0  0  0  0  0  0
   -2.7546    7.0001    2.4226 H   0  0  0  0  0  0  0  0  0  0  0  0
   -3.8122    9.2271    2.4597 H   0  0  0  0  0  0  0  0  0  0  0  0
   -2.3991   11.2494    2.2805 H   0  0  0  0  0  0  0  0  0  0  0  0
    0.0229   11.0455    2.0821 H   0  0  0  0  0  0  0  0  0  0  0  0
    1.8650    7.9815    2.7201 H   0  0  0  0  0  0  0  0  0  0  0  0
    1.7083    8.2892    0.9982 H   0  0  0  0  0  0  0  0  0  0  0  0
    2.1408   10.6993    1.3477 H   0  0  0  0  0  0  0  0  0  0  0  0
    2.1844   10.4564    3.1005 H   0  0  0  0  0  0  0  0  0  0  0  0
    3.4201    9.7323    2.0693 H   0  0  0  0  0  0  0  0  0  0  0  0
   -2.9820   -3.0003   -7.1658 H   0  0  0  0  0  0  0  0  0  0  0  0
   -1.7254   -2.0691   -6.3582 H   0  0  0  0  0  0  0  0  0  0  0  0
   -1.2002   -3.9731   -4.8815 H   0  0  0  0  0  0  0  0  0  0  0  0
   -2.9322   -3.6558   -4.8221 H   0  0  0  0  0  0  0  0  0  0  0  0
   -2.3049   -5.0106   -5.7756 H   0  0  0  0  0  0  0  0  0  0  0  0
   -2.5163   -4.0480   -9.1238 H   0  0  0  0  0  0  0  0  0  0  0  0
   -0.9607   -4.9478  -10.7940 H   0  0  0  0  0  0  0  0  0  0  0  0
    1.4680   -4.9818  -10.3243 H   0  0  0  0  0  0  0  0  0  0  0  0
    2.2980   -4.1323   -8.1605 H   0  0  0  0  0  0  0  0  0  0  0  0
    1.0132    1.7791    1.4624 H   0  0  0  0  0  0  0  0  0  0  0  0
    1.5209    0.6173    0.2419 H   0  0  0  0  0  0  0  0  0  0  0  0
    3.2096    2.8265    1.5338 H   0  0  0  0  0  0  0  0  0  0  0  0
    3.8094    1.8164    0.2209 H   0  0  0  0  0  0  0  0  0  0  0  0
    3.3978    1.0900    1.7813 H   0  0  0  0  0  0  0  0  0  0  0  0
    3.0627    0.2690   -1.0765 H   0  0  0  0  0  0  0  0  0  0  0  0
    3.3858   -0.9837   -2.2722 H   0  0  0  0  0  0  0  0  0  0  0  0
    2.5503   -1.8725   -0.0294 H   0  0  0  0  0  0  0  0  0  0  0  0
    1.6684   -2.4343   -1.4468 H   0  0  0  0  0  0  0  0  0  0  0  0
    0.9620   -1.1956   -0.4244 H   0  0  0  0  0  0  0  0  0  0  0  0
    2.3571   -6.7816   -2.2356 H   0  0  0  0  0  0  0  0  0  0  0  0
    3.1918   -7.9979   -0.2741 H   0  0  0  0  0  0  0  0  0  0  0  0
    5.0816   -8.5629    1.1673 H   0  0  0  0  0  0  0  0  0  0  0  0
    5.8347   -9.7251    0.0772 H   0  0  0  0  0  0  0  0  0  0  0  0
    6.7443   -8.3143    0.6103 H   0  0  0  0  0  0  0  0  0  0  0  0
    7.1789   -7.6419   -1.7458 H   0  0  0  0  0  0  0  0  0  0  0  0
    6.3478   -6.4509   -3.7238 H   0  0  0  0  0  0  0  0  0  0  0  0
    5.2686   -4.0394   -3.0097 H   0  0  0  0  0  0  0  0  0  0  0  0
    6.5047   -2.2052   -4.0752 H   0  0  0  0  0  0  0  0  0  0  0  0
    5.9496   -0.8696   -7.0946 H   0  0  0  0  0  0  0  0  0  0  0  0
    7.2422   -1.9603   -7.5805 H   0  0  0  0  0  0  0  0  0  0  0  0
    7.3372   -1.1132   -6.0302 H   0  0  0  0  0  0  0  0  0  0  0  0
    5.2264   -3.5638   -7.9092 H   0  0  0  0  0  0  0  0  0  0  0  0
    4.0169   -5.4189   -6.8520 H   0  0  0  0  0  0  0  0  0  0  0  0
   -0.9637   -8.8812   -9.0965 H   0  0  0  0  0  0  0  0  0  0  0  0
   -2.8148   -7.3567   -9.6483 H   0  0  0  0  0  0  0  0  0  0  0  0
   -4.4850   -5.2260   -7.3631 H   0  0  0  0  0  0  0  0  0  0  0  0
   -5.4949   -6.6322   -7.6715 H   0  0  0  0  0  0  0  0  0  0  0  0
   -4.5770   -5.9089   -8.9947 H   0  0  0  0  0  0  0  0  0  0  0  0
   -3.7432   -6.9823   -5.5007 H   0  0  0  0  0  0  0  0  0  0  0  0
   -1.8584   -8.4827   -4.9474 H   0  0  0  0  0  0  0  0  0  0  0  0
    1.8034  -11.0259   -7.7458 H   0  0  0  0  0  0  0  0  0  0  0  0
    1.6707  -13.2728   -8.7016 H   0  0  0  0  0  0  0  0  0  0  0  0
   -1.5072  -15.2642   -8.9198 H   0  0  0  0  0  0  0  0  0  0  0  0
    0.1188  -15.5548   -8.2947 H   0  0  0  0  0  0  0  0  0  0  0  0
   -0.0887  -14.9243   -9.9220 H   0  0  0  0  0  0  0  0  0  0  0  0
   -2.5292  -13.3586   -7.9563 H   0  0  0  0  0  0  0  0  0  0  0  0
   -2.4062  -11.0976   -7.0078 H   0  0  0  0  0  0  0  0  0  0  0  0
    2.6319  -11.8865   -4.6478 H   0  0  0  0  0  0  0  0  0  0  0  0
   -3.5783  -12.2704   -4.1282 H   0  0  0  0  0  0  0  0  0  0  0  0
   -4.6093  -14.5419   -4.1745 H   0  0  0  0  0  0  0  0  0  0  0  0
   -0.8145  -16.3002   -5.0645 H   0  0  0  0  0  0  0  0  0  0  0  0
  1  2  2  0  0  0  0
  2  3  1  0  0  0  0
  3  4  1  0  0  0  0
  4  5  2  0  0  0  0
  5  6  1  0  0  0  0
  6  7  3  0  0  0  0
  5  8  1  0  0  0  0
  8  9  3  0  0  0  0
  4 10  1  0  0  0  0
 10 11  1  0  0  0  0
 11 12  1  0  0  0  0
 10 13  1  0  0  0  0
 13 14  2  0  0  0  0
  1 15  1  0  0  0  0
 15 16  2  0  0  0  0
 16 17  1  0  0  0  0
 17 18  1  0  0  0  0
 18 19  2  0  0  0  0
 19 20  1  0  0  0  0
 20 21  2  0  0  0  0
 21 22  1  0  0  0  0
 21 23  1  0  0  0  0
 23 24  2  0  0  0  0
 17 25  1  0  0  0  0
 25 26  2  0  0  0  0
 26 27  1  0  0  0  0
 27 28  2  0  0  0  0
 28 29  1  0  0  0  0
 28 30  1  0  0  0  0
 30 31  2  0  0  0  0
 16 32  1  0  0  0  0
 32 33  1  0  0  0  0
 33 34  1  0  0  0  0
 34 35  2  0  0  0  0
 35 36  1  0  0  0  0
 36 37  1  0  0  0  0
 37 38  2  0  0  0  0
 38 39  1  0  0  0  0
 39 40  2  0  0  0  0
 40 41  1  0  0  0  0
 40 42  1  0  0  0  0
 42 43  2  0  0  0  0
 36 44  1  0  0  0  0
 44 45  2  0  0  0  0
 45 46  1  0  0  0  0
 46 47  2  0  0  0  0
 47 48  1  0  0  0  0
 47 49  1  0  0  0  0
 49 50  2  0  0  0  0
 35 51  1  0  0  0  0
 51 52  1  0  0  0  0
 34 53  1  0  0  0  0
 53 54  2  0  0  0  0
 54 55  1  0  0  0  0
 55 56  2  0  0  0  0
 56 57  1  0  0  0  0
 57 58  2  0  0  0  0
 58 59  1  0  0  0  0
 59 60  2  0  0  0  0
 60 61  1  0  0  0  0
 61 62  1  0  0  0  0
 54 63  1  0  0  0  0
 63 64  1  0  0  0  0
 64 65  1  0  0  0  0
 65 66  1  0  0  0  0
 66 67  1  0  0  0  0
 67 68  1  0  0  0  0
 68 69  2  0  0  0  0
 69 70  1  0  0  0  0
 70 71  1  0  0  0  0
 68 72  1  0  0  0  0
 72 73  1  0  0  0  0
 73 74  1  0  0  0  0
 74 75  1  0  0  0  0
 75 76  1  0  0  0  0
 76 77  1  0  0  0  0
 77 78  2  0  0  0  0
 78 79  1  0  0  0  0
 79 80  1  0  0  0  0
 78 81  1  0  0  0  0
 81 82  2  0  0  0  0
 82 83  1  0  0  0  0
 83 84  2  0  0  0  0
 76 85  2  0  0  0  0
 85 86  1  0  0  0  0
 86 87  1  0  0  0  0
 87 88  1  0  0  0  0
 88 89  1  0  0  0  0
 89 90  1  0  0  0  0
 90 91  1  0  0  0  0
 91 92  1  0  0  0  0
 92 93  1  0  0  0  0
 93 94  1  0  0  0  0
 94 95  1  0  0  0  0
 92 96  1  0  0  0  0
 96 97  1  0  0  0  0
 89 98  1  0  0  0  0
 98 99  1  0  0  0  0
 85100  1  0  0  0  0
100101  2  0  0  0  0
101102  1  0  0  0  0
102103  1  0  0  0  0
103104  2  0  0  0  0
104105  1  0  0  0  0
105106  2  0  0  0  0
106107  1  0  0  0  0
106108  1  0  0  0  0
108109  2  0  0  0  0
102110  1  0  0  0  0
110111  2  0  0  0  0
111112  1  0  0  0  0
112113  2  0  0  0  0
113114  1  0  0  0  0
113115  1  0  0  0  0
115116  2  0  0  0  0
101117  1  0  0  0  0
117118  1  0  0  0  0
118119  1  0  0  0  0
119120  2  0  0  0  0
120121  1  0  0  0  0
121122  1  0  0  0  0
122123  2  0  0  0  0
123124  1  0  0  0  0
124125  2  0  0  0  0
125126  1  0  0  0  0
125127  1  0  0  0  0
127128  2  0  0  0  0
121129  1  0  0  0  0
129130  2  0  0  0  0
130131  1  0  0  0  0
131132  2  0  0  0  0
132133  1  0  0  0  0
132134  1  0  0  0  0
134135  2  0  0  0  0
120136  1  0  0  0  0
136137  1  0  0  0  0
119138  1  0  0  0  0
138139  2  0  0  0  0
139140  1  0  0  0  0
140141  2  0  0  0  0
140142  1  0  0  0  0
142143  2  0  0  0  0
143144  1  0  0  0  0
144145  2  0  0  0  0
145146  1  0  0  0  0
145147  1  0  0  0  0
147148  2  0  0  0  0
148149  1  0  0  0  0
149150  2  0  0  0  0
150151  1  0  0  0  0
151152  3  0  0  0  0
150153  1  0  0  0  0
153154  3  0  0  0  0
 13  2  1  0  0  0  0
 52 15  1  0  0  0  0
 95 53  1  0  0  0  0
137100  1  0  0  0  0
149139  1  0  0  0  0
 24 18  1  0  0  0  0
 31 25  1  0  0  0  0
 51 32  2  0  0  0  0
 60 55  1  0  0  0  0
 94 63  2  0  0  0  0
109103  1  0  0  0  0
116110  1  0  0  0  0
136117  2  0  0  0  0
148142  1  0  0  0  0
 43 37  1  0  0  0  0
 50 44  1  0  0  0  0
 93 65  2  0  0  0  0
128122  1  0  0  0  0
135129  1  0  0  0  0
 91 66  2  0  0  0  0
 71 67  2  0  0  0  0
 90 72  2  0  0  0  0
 88 73  2  0  0  0  0
 87 75  2  0  0  0  0
 84 77  1  0  0  0  0
  1155  1  0  0  0  0
 11156  1  0  0  0  0
 11157  1  0  0  0  0
 12158  1  0  0  0  0
 12159  1  0  0  0  0
 12160  1  0  0  0  0
 19161  1  0  0  0  0
 20162  1  0  0  0  0
 22163  1  0  0  0  0
 22164  1  0  0  0  0
 22165  1  0  0  0  0
 23166  1  0  0  0  0
 24167  1  0  0  0  0
 26168  1  0  0  0  0
 27169  1  0  0  0  0
 29170  1  0  0  0  0
 29171  1  0  0  0  0
 29172  1  0  0  0  0
 30173  1  0  0  0  0
 31174  1  0  0  0  0
 38175  1  0  0  0  0
 39176  1  0  0  0  0
 41177  1  0  0  0  0
 41178  1  0  0  0  0
 41179  1  0  0  0  0
 42180  1  0  0  0  0
 43181  1  0  0  0  0
 45182  1  0  0  0  0
 46183  1  0  0  0  0
 48184  1  0  0  0  0
 48185  1  0  0  0  0
 48186  1  0  0  0  0
 49187  1  0  0  0  0
 50188  1  0  0  0  0
 56189  1  0  0  0  0
 57190  1  0  0  0  0
 58191  1  0  0  0  0
 59192  1  0  0  0  0
 61193  1  0  0  0  0
 61194  1  0  0  0  0
 62195  1  0  0  0  0
 62196  1  0  0  0  0
 62197  1  0  0  0  0
 79198  1  0  0  0  0
 79199  1  0  0  0  0
 80200  1  0  0  0  0
 80201  1  0  0  0  0
 80202  1  0  0  0  0
 81203  1  0  0  0  0
 82204  1  0  0  0  0
 83205  1  0  0  0  0
 84206  1  0  0  0  0
 96207  1  0  0  0  0
 96208  1  0  0  0  0
 97209  1  0  0  0  0
 97210  1  0  0  0  0
 97211  1  0  0  0  0
 98212  1  0  0  0  0
 98213  1  0  0  0  0
 99214  1  0  0  0  0
 99215  1  0  0  0  0
 99216  1  0  0  0  0
104217  1  0  0  0  0
105218  1  0  0  0  0
107219  1  0  0  0  0
107220  1  0  0  0  0
107221  1  0  0  0  0
108222  1  0  0  0  0
109223  1  0  0  0  0
111224  1  0  0  0  0
112225  1  0  0  0  0
114226  1  0  0  0  0
114227  1  0  0  0  0
114228  1  0  0  0  0
115229  1  0  0  0  0
116230  1  0  0  0  0
123231  1  0  0  0  0
124232  1  0  0  0  0
126233  1  0  0  0  0
126234  1  0  0  0  0
126235  1  0  0  0  0
127236  1  0  0  0  0
128237  1  0  0  0  0
130238  1  0  0  0  0
131239  1  0  0  0  0
133240  1  0  0  0  0
133241  1  0  0  0  0
133242  1  0  0  0  0
134243  1  0  0  0  0
135244  1  0  0  0  0
138245  1  0  0  0  0
143246  1  0  0  0  0
144247  1  0  0  0  0
147248  1  0  0  0  0
M  END
