248

C         -1.97620        5.85300       10.39940
C         -2.72830        6.79430       11.03400
S         -3.07410        8.40230       10.43870
C         -4.16510        8.69650       11.77120
C         -4.92240        9.84290       11.77920
C         -4.83730       10.71290       10.67330
N         -4.78690       11.40480        9.75880
C         -5.82910       10.24520       12.77200
N         -6.58480       10.63220       13.54640
N         -4.15530        7.67430       12.66010
C         -4.90490        7.64250       13.90060
C         -4.20980        8.43830       14.99880
C         -3.35400        6.58180       12.32500
O         -3.26930        5.59140       13.01780
C         -1.55760        5.88950        9.05540
C         -2.16480        6.49920        7.94940
N         -3.43220        7.03980        7.91140
C         -3.66480        8.12610        7.04450
C         -4.81160        8.18330        6.25950
C         -5.04900        9.28800        5.46700
C         -4.15340       10.35030        5.42660
C         -4.46010       11.57890        4.62930
C         -2.99140       10.26370        6.18250
C         -2.74640        9.16970        6.98680
C         -4.50230        6.46160        8.61310
C         -5.55480        7.25660        9.06470
C         -6.57410        6.70540        9.81550
C         -6.58250        5.35320       10.13390
C         -7.65960        4.75680       10.98560
C         -5.55210        4.55870        9.64370
C         -4.52910        5.09700        8.89010
C         -1.37100        6.33870        6.79260
S         -1.55310        6.83740        5.14570
C         -0.13090        5.90950        4.69480
C          0.49290        5.32450        5.79060
N          1.68490        4.61550        5.73320
C          2.77570        5.13300        5.02420
C          2.95380        6.50810        4.89330
C          4.01640        7.00590        4.16640
C          4.92730        6.15710        3.54840
C          6.05800        6.71410        2.73870
C          4.74740        4.78670        3.68950
C          3.68960        4.27520        4.41460
C          1.81240        3.46680        6.52740
C          0.73610        2.59210        6.65500
C          0.84210        1.47080        7.45290
C          2.01850        1.18440        8.13450
C          2.11960       -0.02220        9.01640
C          3.08960        2.05940        7.99610
C          2.99370        3.18950        7.20950
C         -0.23420        5.56420        6.97760
S         -0.08540        5.01900        8.60930
C          0.17070        5.67620        3.32280
C         -0.16230        6.42870        2.21580
C         -0.76940        7.77160        2.25620
C         -2.14810        7.89200        2.36020
C         -2.74020        9.14100        2.37560
C         -1.94760       10.26880        2.27900
C         -0.57280       10.15030        2.16450
C          0.04020        8.90650        2.14710
C          1.52690        8.72140        1.98820
C          2.36390        9.98510        2.13650
C          0.15270        5.75860        1.02020
S         -0.10360        6.15530       -0.66440
C          0.49340        4.58490       -1.09900
C          0.59060        3.75030       -2.22390
C          0.16020        3.95700       -3.55210
C          0.14760        2.84380       -4.45530
N         -0.34410        3.15990       -5.64310
S         -0.74930        4.72820       -5.62770
N         -0.31880        5.06160       -4.10240
C          0.65170        1.60220       -4.01340
C          0.74680        0.36610       -4.67120
S          0.26900       -0.36880       -6.16510
C          0.90920       -1.89450       -5.59500
C          0.92380       -3.19380       -6.13430
C          0.36140       -3.62280       -7.42360
C         -1.01060       -3.58300       -7.68810
C         -2.00500       -3.07240       -6.68350
C         -2.11780       -3.98620       -5.46320
C         -1.45760       -4.06850       -8.90980
C         -0.58350       -4.57480       -9.85330
C          0.77490       -4.59680       -9.59110
C          1.23990       -4.12390       -8.38030
C          1.58310       -4.07850       -5.30110
S          2.15840       -3.31250       -3.82730
C          1.51000       -1.79760       -4.33710
C          1.39300       -0.51000       -3.79910
N          1.69430        0.13260       -2.62870
C          1.21070        1.42840       -2.71390
C          1.09690        2.49320       -1.77650
N          1.28430        2.57840       -0.40840
C          0.91060        3.82820       -0.00410
C          0.71210        4.49490        1.21010
S          0.89160        4.12770        2.88530
C          1.67560        1.62740        0.60290
C          3.11710        1.85240        1.05980
C          2.59440       -0.49710       -1.69040
C          1.89770       -1.56260       -0.84100
C          1.67560       -5.49490       -5.41240
C          2.63360       -6.31730       -4.82930
N          3.80570       -5.86600       -4.24320
C          4.29600       -6.53670       -3.11300
C          3.41430       -6.97830       -2.13030
C          3.88900       -7.65850       -1.02640
C          5.24620       -7.90640       -0.86610
C          5.75630       -8.66500        0.32050
C          6.11980       -7.45430       -1.84860
C          5.65800       -6.78240       -2.96180
C          4.54600       -4.84660       -4.85590
C          5.26530       -3.93640       -4.08480
C          5.95550       -2.90430       -4.69000
C          5.94490       -2.74250       -6.06930
C          6.66520       -1.60630       -6.72810
C          5.23470       -3.66240       -6.83300
C          4.54930       -4.70350       -6.24190
C          2.28000       -7.67700       -4.96080
S          3.02380       -9.15220       -4.46960
C          1.67490      -10.08240       -5.15000
C          0.76370       -9.25210       -5.84740
N         -0.23420       -9.65270       -6.67870
C         -1.28860       -8.75580       -6.98540
C         -1.56740       -8.45040       -8.31130
C         -2.61110       -7.59680       -8.61520
C         -3.40300       -7.05170       -7.61350
C         -4.55390       -6.14950       -7.93510
C         -3.11970       -7.37720       -6.29010
C         -2.06830       -8.21230       -5.97030
C         -0.28940      -10.92110       -7.27420
C          0.85350      -11.53770       -7.78180
C          0.77490      -12.80370       -8.32160
C         -0.43490      -13.49370       -8.37290
C         -0.48730      -14.88910       -8.90920
C         -1.57600      -12.85220       -7.91160
C         -1.51240      -11.58040       -7.37320
C          1.10350       -7.89340       -5.66770
S          0.40480       -6.40250       -6.21230
C          1.67600      -11.45370       -4.91770
C          0.56220      -12.27640       -4.93740
C         -0.79580      -11.80840       -4.63470
O         -1.15050      -10.67390       -4.36760
C         -1.63280      -13.02760       -4.58660
C         -2.98360      -13.14700       -4.33390
C         -3.55470      -14.41140       -4.35950
C         -2.76240      -15.51950       -4.62490
Cl        -3.48910      -17.08410       -4.64910
C         -1.39620      -15.41370       -4.87230
C         -0.83380      -14.15130       -4.85400
C          0.53850      -13.69910       -5.09230
C          1.57540      -14.48080       -5.54350
C          1.47540      -15.86160       -5.78850
N          1.44840      -16.98650       -6.02260
C          2.84280      -13.97610       -5.89300
N          3.88610      -13.62760       -6.22520
H         -1.66590        5.00760       11.00200
H         -4.95780        6.58750       14.18430
H         -5.91300        8.02170       13.72260
H         -4.13760        9.49050       14.73350
H         -4.78180        8.35700       15.91810
H         -3.21060        8.04480       15.17120
H         -5.51680        7.36540        6.28310
H         -5.95120        9.32830        4.87360
H         -5.00980       11.33330        3.72340
H         -3.54800       12.10660        4.36360
H         -5.07780       12.25250        5.22440
H         -2.27850       11.07410        6.16010
H         -1.85530        9.12720        7.59620
H         -5.55810        8.31370        8.84070
H         -7.37060        7.34470       10.16950
H         -8.11690        3.90580       10.48310
H         -8.43210        5.48840       11.20770
H         -7.23870        4.39930       11.92530
H         -5.54980        3.50030        9.85870
H         -3.74440        4.45650        8.51670
H          2.26090        7.18590        5.37080
H          4.14650        8.07540        4.08520
H          5.70210        7.00680        1.75000
H          6.84610        5.97630        2.61080
H          6.47630        7.59730        3.21710
H          5.44290        4.10600        3.21910
H          3.55660        3.20770        4.50780
H         -0.17970        2.79540        6.11860
H         -0.00210        0.80240        7.54310
H          1.50230       -0.83340        8.63710
H          1.77320        0.22190       10.02120
H          3.14890       -0.36520        9.08990
H          4.01180        1.85880        8.52210
H          3.83050        3.86690        7.12490
H         -2.75460        7.00010        2.42260
H         -3.81220        9.22710        2.45970
H         -2.39910       11.24940        2.28050
H          0.02290       11.04550        2.08210
H          1.86500        7.98150        2.72010
H          1.70830        8.28920        0.99820
H          2.14080       10.69930        1.34770
H          2.18440       10.45640        3.10050
H          3.42010        9.73230        2.06930
H         -2.98200       -3.00030       -7.16580
H         -1.72540       -2.06910       -6.35820
H         -1.20020       -3.97310       -4.88150
H         -2.93220       -3.65580       -4.82210
H         -2.30490       -5.01060       -5.77560
H         -2.51630       -4.04800       -9.12380
H         -0.96070       -4.94780      -10.79400
H          1.46800       -4.98180      -10.32430
H          2.29800       -4.13230       -8.16050
H          1.01320        1.77910        1.46240
H          1.52090        0.61730        0.24190
H          3.20960        2.82650        1.53380
H          3.80940        1.81640        0.22090
H          3.39780        1.09000        1.78130
H          3.06270        0.26900       -1.07650
H          3.38580       -0.98370       -2.27220
H          2.55030       -1.87250       -0.02940
H          1.66840       -2.43430       -1.44680
H          0.96200       -1.19560       -0.42440
H          2.35710       -6.78160       -2.23560
H          3.19180       -7.99790       -0.27410
H          5.08160       -8.56290        1.16730
H          5.83470       -9.72510        0.07720
H          6.74430       -8.31430        0.61030
H          7.17890       -7.64190       -1.74580
H          6.34780       -6.45090       -3.72380
H          5.26860       -4.03940       -3.00970
H          6.50470       -2.20520       -4.07520
H          5.94960       -0.86960       -7.09460
H          7.24220       -1.96030       -7.58050
H          7.33720       -1.11320       -6.03020
H          5.22640       -3.56380       -7.90920
H          4.01690       -5.41890       -6.85200
H         -0.96370       -8.88120       -9.09650
H         -2.81480       -7.35670       -9.64830
H         -4.48500       -5.22600       -7.36310
H         -5.49490       -6.63220       -7.67150
H         -4.57700       -5.90890       -8.99470
H         -3.74320       -6.98230       -5.50070
H         -1.85840       -8.48270       -4.94740
H          1.80340      -11.02590       -7.74580
H          1.67070      -13.27280       -8.70160
H         -1.50720      -15.26420       -8.91980
H          0.11880      -15.55480       -8.29470
H         -0.08870      -14.92430       -9.92200
H         -2.52920      -13.35860       -7.95630
H         -2.40620      -11.09760       -7.00780
H          2.63190      -11.88650       -4.64780
H         -3.57830      -12.27040       -4.12820
H         -4.60930      -14.54190       -4.17450
H         -0.81450      -16.30020       -5.06450
