149

C         -9.67410       -1.81090       -6.19420
C         -9.12060       -3.01670       -5.90240
S         -7.59320       -3.28640       -5.09450
C         -7.79980       -5.02480       -5.20690
C         -6.83210       -5.85200       -4.69350
C         -5.68760       -5.27920       -4.10050
N         -4.75110       -4.81930       -3.62300
C         -6.83940       -7.25680       -4.69160
N         -6.77910       -8.40350       -4.65860
N         -8.96640       -5.35230       -5.81530
C         -9.40890       -6.70630       -6.09390
C         -8.75990       -7.26020       -7.35660
C         -9.75420       -4.28550       -6.24080
O        -10.81740       -4.42990       -6.80000
C         -9.14050       -0.54400       -5.88560
C         -9.65450        0.69350       -6.22150
C         -8.88450        1.77520       -5.77920
S         -9.34780        3.41860       -6.21510
C         -7.76590        4.13070       -6.79340
C         -7.14770        3.32390       -7.91710
C         -7.76880        1.38420       -5.04870
S         -7.65400       -0.35550       -4.99420
C         -6.74250        2.09850       -4.36780
C         -6.76490        3.28130       -3.64660
C         -7.94190        4.10610       -3.37520
C         -9.16050        3.52560       -3.03400
C        -10.24500        4.32850       -2.73980
C        -10.12690        5.70680       -2.78220
C         -8.91770        6.30270       -3.11660
C         -8.75810        7.79520       -3.11030
C         -8.15750        8.25610       -1.78060
C         -7.83150        5.49230       -3.40670
C         -5.50290        3.54960       -3.07530
S         -4.94040        4.81350       -2.00550
C         -3.42410        3.99070       -1.86590
C         -2.19320        4.12870       -1.20480
C         -1.68250        5.16530       -0.39460
C         -0.34590        5.05270        0.11480
N          0.01650        6.11190        0.82160
S         -1.21770        7.15850        0.84740
N         -2.26450        6.30150       -0.04300
C          0.37650        3.86310       -0.12140
C          1.60140        3.41160        0.40020
S          2.83880        3.93160        1.49530
C          3.57910        2.35070        1.38090
C          4.70060        1.75760        2.00790
C          5.58030        2.44990        2.95000
C          5.04670        3.31170        3.90390
C          5.88330        3.95410        4.79720
C          7.24980        3.74750        4.74710
C          7.80150        2.89750        3.79520
C          9.28910        2.71150        3.70940
C          9.91940        3.82060        2.86500
C          6.95930        2.26050        2.89890
C          4.87470        0.45630        1.58770
S          3.68130       -0.03910        0.40040
C          2.90830        1.49970        0.50360
C          1.77110        2.10280       -0.04920
N          0.72480        1.73160       -0.85270
C         -0.15850        2.80100       -0.90370
C         -1.41340        2.98550       -1.54220
N         -2.13490        2.21560       -2.43700
C         -3.35380        2.81410       -2.61520
C         -4.53970        2.56700       -3.31570
S         -5.16570        1.31280       -4.32070
C         -1.69350        1.20250       -3.37000
C         -2.26790       -0.17840       -3.05420
C          0.47240        0.31450       -1.00330
C         -0.37640       -0.21310        0.15170
C          5.77670       -0.56790        2.07350
C          6.04470       -0.68250        3.44760
C          6.78010       -1.75760        3.88390
C          7.09830       -2.16710        5.27830
O          6.86070       -1.57310        6.30090
C          7.77950       -3.48470        5.12620
C          7.93060       -3.77490        3.75460
C          7.28960       -2.71910        2.98640
C          7.05930       -2.58730        1.63030
C          6.29250       -1.51940        1.19030
C          8.57510       -4.93550        3.36310
C          9.01430       -5.81050        4.34110
C          8.79660       -5.57070        5.70630
C          8.18990       -4.36410        6.09750
C          9.17400       -6.59660        6.63950
C          8.74060       -6.79940        7.90170
S          7.57690       -5.87500        8.82670
C          7.62230       -7.04720       10.13260
C          6.82900       -6.86900       11.23500
C          5.96890       -5.75090       11.29940
N          5.26100       -4.85130       11.36310
C          6.75270       -7.70730       12.36140
N          6.63510       -8.34930       13.30630
N          8.50850       -8.04640        9.87950
C          8.74160       -9.19250       10.74020
C          7.68330      -10.26970       10.53490
C          9.17160       -7.97810        8.66470
O          9.98380       -8.79680        8.30220
H        -10.62520       -1.83430       -6.71160
H         -9.19110       -7.34050       -5.23290
H        -10.49160       -6.64110       -6.23320
H         -8.99860       -6.62810       -8.20900
H         -9.13950       -8.25980       -7.54510
H         -7.67950       -7.32040       -7.24850
H        -10.55600        0.82210       -6.79280
H         -8.04900        5.12720       -7.13040
H         -7.09390        4.22170       -5.94200
H         -6.86630        2.33080       -7.57170
H         -6.25410        3.82700       -8.28100
H         -7.84940        3.21760       -8.74100
H         -9.24830        2.45050       -2.98380
H        -11.18890        3.87580       -2.47510
H        -10.98140        6.32660       -2.55240
H         -9.72810        8.27380       -3.25640
H         -8.09930        8.10030       -3.92610
H         -7.18630        7.79270       -1.62250
H         -8.03380        9.33640       -1.77340
H         -8.80810        7.97520       -0.95540
H         -6.88820        5.94540       -3.67720
H          3.97920        3.46090        3.95780
H          5.46430        4.61600        5.54050
H          7.89700        4.24750        5.45290
H          9.51540        1.74160        3.26140
H          9.72060        2.73310        4.71220
H          9.50960        3.80780        1.85740
H          9.71390        4.79410        3.30440
H         10.99710        3.68740        2.80400
H          7.37780        1.61010        2.14340
H         -0.60270        1.20270       -3.39440
H         -2.03900        1.50190       -4.36650
H         -1.81400       -0.92390       -3.70120
H         -2.09760       -0.45750       -2.01900
H         -3.33980       -0.18870       -3.22970
H          1.44720       -0.18000       -0.99800
H         -0.00250        0.09690       -1.95330
H         -0.55150       -1.27840        0.02870
H          0.13500       -0.05320        1.09820
H         -1.33400        0.30260        0.18940
H          5.64310        0.03040        4.15070
H          7.44170       -3.30920        0.92490
H          6.07530       -1.42020        0.13610
H          8.72660       -5.16340        2.31900
H          9.50810       -6.72620        4.04970
H          8.05400       -4.11270        7.13800
H          9.85320       -7.35910        6.27320
H          8.76860       -8.86340       11.78000
H          9.72370       -9.58100       10.45680
H          6.69310       -9.90260       10.79450
H          7.68040      -10.60020        9.49850
H          7.90880      -11.11940       11.17200
