
  xtb     02052213433D
 energy: -257.793023179376 gnorm: 0.000252388330 xtb: 6.4.1 (unknown)
149164  0     0  0            999 V2000
   -9.6741   -1.8109   -6.1942 C   0  0  0  0  0  0  0  0  0  0  0  0
   -9.1206   -3.0167   -5.9024 C   0  0  0  0  0  0  0  0  0  0  0  0
   -7.5932   -3.2864   -5.0945 S   0  0  0  0  0  0  0  0  0  0  0  0
   -7.7998   -5.0248   -5.2069 C   0  0  0  0  0  0  0  0  0  0  0  0
   -6.8321   -5.8520   -4.6935 C   0  0  0  0  0  0  0  0  0  0  0  0
   -5.6876   -5.2792   -4.1005 C   0  0  0  0  0  0  0  0  0  0  0  0
   -4.7511   -4.8193   -3.6230 N   0  0  0  0  0  0  0  0  0  0  0  0
   -6.8394   -7.2568   -4.6916 C   0  0  0  0  0  0  0  0  0  0  0  0
   -6.7791   -8.4035   -4.6586 N   0  0  0  0  0  0  0  0  0  0  0  0
   -8.9664   -5.3523   -5.8153 N   0  0  0  0  0  0  0  0  0  0  0  0
   -9.4089   -6.7063   -6.0939 C   0  0  0  0  0  0  0  0  0  0  0  0
   -8.7599   -7.2602   -7.3566 C   0  0  0  0  0  0  0  0  0  0  0  0
   -9.7542   -4.2855   -6.2408 C   0  0  0  0  0  0  0  0  0  0  0  0
  -10.8174   -4.4299   -6.8000 O   0  0  0  0  0  0  0  0  0  0  0  0
   -9.1405   -0.5440   -5.8856 C   0  0  0  0  0  0  0  0  0  0  0  0
   -9.6545    0.6935   -6.2215 C   0  0  0  0  0  0  0  0  0  0  0  0
   -8.8845    1.7752   -5.7792 C   0  0  0  0  0  0  0  0  0  0  0  0
   -9.3478    3.4186   -6.2151 S   0  0  0  0  0  0  0  0  0  0  0  0
   -7.7659    4.1307   -6.7934 C   0  0  0  0  0  0  0  0  0  0  0  0
   -7.1477    3.3239   -7.9171 C   0  0  0  0  0  0  0  0  0  0  0  0
   -7.7688    1.3842   -5.0487 C   0  0  0  0  0  0  0  0  0  0  0  0
   -7.6540   -0.3555   -4.9942 S   0  0  0  0  0  0  0  0  0  0  0  0
   -6.7425    2.0985   -4.3678 C   0  0  0  0  0  0  0  0  0  0  0  0
   -6.7649    3.2813   -3.6466 C   0  0  0  0  0  0  0  0  0  0  0  0
   -7.9419    4.1061   -3.3752 C   0  0  0  0  0  0  0  0  0  0  0  0
   -9.1605    3.5256   -3.0340 C   0  0  0  0  0  0  0  0  0  0  0  0
  -10.2450    4.3285   -2.7398 C   0  0  0  0  0  0  0  0  0  0  0  0
  -10.1269    5.7068   -2.7822 C   0  0  0  0  0  0  0  0  0  0  0  0
   -8.9177    6.3027   -3.1166 C   0  0  0  0  0  0  0  0  0  0  0  0
   -8.7581    7.7952   -3.1103 C   0  0  0  0  0  0  0  0  0  0  0  0
   -8.1575    8.2561   -1.7806 C   0  0  0  0  0  0  0  0  0  0  0  0
   -7.8315    5.4923   -3.4067 C   0  0  0  0  0  0  0  0  0  0  0  0
   -5.5029    3.5496   -3.0753 C   0  0  0  0  0  0  0  0  0  0  0  0
   -4.9404    4.8135   -2.0055 S   0  0  0  0  0  0  0  0  0  0  0  0
   -3.4241    3.9907   -1.8659 C   0  0  0  0  0  0  0  0  0  0  0  0
   -2.1932    4.1287   -1.2048 C   0  0  0  0  0  0  0  0  0  0  0  0
   -1.6825    5.1653   -0.3946 C   0  0  0  0  0  0  0  0  0  0  0  0
   -0.3459    5.0527    0.1148 C   0  0  0  0  0  0  0  0  0  0  0  0
    0.0165    6.1119    0.8216 N   0  0  0  0  0  0  0  0  0  0  0  0
   -1.2177    7.1585    0.8474 S   0  0  0  0  0  0  0  0  0  0  0  0
   -2.2645    6.3015   -0.0430 N   0  0  0  0  0  0  0  0  0  0  0  0
    0.3765    3.8631   -0.1214 C   0  0  0  0  0  0  0  0  0  0  0  0
    1.6014    3.4116    0.4002 C   0  0  0  0  0  0  0  0  0  0  0  0
    2.8388    3.9316    1.4953 S   0  0  0  0  0  0  0  0  0  0  0  0
    3.5791    2.3507    1.3809 C   0  0  0  0  0  0  0  0  0  0  0  0
    4.7006    1.7576    2.0079 C   0  0  0  0  0  0  0  0  0  0  0  0
    5.5803    2.4499    2.9500 C   0  0  0  0  0  0  0  0  0  0  0  0
    5.0467    3.3117    3.9039 C   0  0  0  0  0  0  0  0  0  0  0  0
    5.8833    3.9541    4.7972 C   0  0  0  0  0  0  0  0  0  0  0  0
    7.2498    3.7475    4.7471 C   0  0  0  0  0  0  0  0  0  0  0  0
    7.8015    2.8975    3.7952 C   0  0  0  0  0  0  0  0  0  0  0  0
    9.2891    2.7115    3.7094 C   0  0  0  0  0  0  0  0  0  0  0  0
    9.9194    3.8206    2.8650 C   0  0  0  0  0  0  0  0  0  0  0  0
    6.9593    2.2605    2.8989 C   0  0  0  0  0  0  0  0  0  0  0  0
    4.8747    0.4563    1.5877 C   0  0  0  0  0  0  0  0  0  0  0  0
    3.6813   -0.0391    0.4004 S   0  0  0  0  0  0  0  0  0  0  0  0
    2.9083    1.4997    0.5036 C   0  0  0  0  0  0  0  0  0  0  0  0
    1.7711    2.1028   -0.0492 C   0  0  0  0  0  0  0  0  0  0  0  0
    0.7248    1.7316   -0.8527 N   0  0  0  0  0  0  0  0  0  0  0  0
   -0.1585    2.8010   -0.9037 C   0  0  0  0  0  0  0  0  0  0  0  0
   -1.4134    2.9855   -1.5422 C   0  0  0  0  0  0  0  0  0  0  0  0
   -2.1349    2.2156   -2.4370 N   0  0  0  0  0  0  0  0  0  0  0  0
   -3.3538    2.8141   -2.6152 C   0  0  0  0  0  0  0  0  0  0  0  0
   -4.5397    2.5670   -3.3157 C   0  0  0  0  0  0  0  0  0  0  0  0
   -5.1657    1.3128   -4.3207 S   0  0  0  0  0  0  0  0  0  0  0  0
   -1.6935    1.2025   -3.3700 C   0  0  0  0  0  0  0  0  0  0  0  0
   -2.2679   -0.1784   -3.0542 C   0  0  0  0  0  0  0  0  0  0  0  0
    0.4724    0.3145   -1.0033 C   0  0  0  0  0  0  0  0  0  0  0  0
   -0.3764   -0.2131    0.1517 C   0  0  0  0  0  0  0  0  0  0  0  0
    5.7767   -0.5679    2.0735 C   0  0  0  0  0  0  0  0  0  0  0  0
    6.0447   -0.6825    3.4476 C   0  0  0  0  0  0  0  0  0  0  0  0
    6.7801   -1.7576    3.8839 C   0  0  0  0  0  0  0  0  0  0  0  0
    7.0983   -2.1671    5.2783 C   0  0  0  0  0  0  0  0  0  0  0  0
    6.8607   -1.5731    6.3009 O   0  0  0  0  0  0  0  0  0  0  0  0
    7.7795   -3.4847    5.1262 C   0  0  0  0  0  0  0  0  0  0  0  0
    7.9306   -3.7749    3.7546 C   0  0  0  0  0  0  0  0  0  0  0  0
    7.2896   -2.7191    2.9864 C   0  0  0  0  0  0  0  0  0  0  0  0
    7.0593   -2.5873    1.6303 C   0  0  0  0  0  0  0  0  0  0  0  0
    6.2925   -1.5194    1.1903 C   0  0  0  0  0  0  0  0  0  0  0  0
    8.5751   -4.9355    3.3631 C   0  0  0  0  0  0  0  0  0  0  0  0
    9.0143   -5.8105    4.3411 C   0  0  0  0  0  0  0  0  0  0  0  0
    8.7966   -5.5707    5.7063 C   0  0  0  0  0  0  0  0  0  0  0  0
    8.1899   -4.3641    6.0975 C   0  0  0  0  0  0  0  0  0  0  0  0
    9.1740   -6.5966    6.6395 C   0  0  0  0  0  0  0  0  0  0  0  0
    8.7406   -6.7994    7.9017 C   0  0  0  0  0  0  0  0  0  0  0  0
    7.5769   -5.8750    8.8267 S   0  0  0  0  0  0  0  0  0  0  0  0
    7.6223   -7.0472   10.1326 C   0  0  0  0  0  0  0  0  0  0  0  0
    6.8290   -6.8690   11.2350 C   0  0  0  0  0  0  0  0  0  0  0  0
    5.9689   -5.7509   11.2994 C   0  0  0  0  0  0  0  0  0  0  0  0
    5.2610   -4.8513   11.3631 N   0  0  0  0  0  0  0  0  0  0  0  0
    6.7527   -7.7073   12.3614 C   0  0  0  0  0  0  0  0  0  0  0  0
    6.6351   -8.3493   13.3063 N   0  0  0  0  0  0  0  0  0  0  0  0
    8.5085   -8.0464    9.8795 N   0  0  0  0  0  0  0  0  0  0  0  0
    8.7416   -9.1925   10.7402 C   0  0  0  0  0  0  0  0  0  0  0  0
    7.6833  -10.2697   10.5349 C   0  0  0  0  0  0  0  0  0  0  0  0
    9.1716   -7.9781    8.6647 C   0  0  0  0  0  0  0  0  0  0  0  0
    9.9838   -8.7968    8.3022 O   0  0  0  0  0  0  0  0  0  0  0  0
  -10.6252   -1.8343   -6.7116 H   0  0  0  0  0  0  0  0  0  0  0  0
   -9.1911   -7.3405   -5.2329 H   0  0  0  0  0  0  0  0  0  0  0  0
  -10.4916   -6.6411   -6.2332 H   0  0  0  0  0  0  0  0  0  0  0  0
   -8.9986   -6.6281   -8.2090 H   0  0  0  0  0  0  0  0  0  0  0  0
   -9.1395   -8.2598   -7.5451 H   0  0  0  0  0  0  0  0  0  0  0  0
   -7.6795   -7.3204   -7.2485 H   0  0  0  0  0  0  0  0  0  0  0  0
  -10.5560    0.8221   -6.7928 H   0  0  0  0  0  0  0  0  0  0  0  0
   -8.0490    5.1272   -7.1304 H   0  0  0  0  0  0  0  0  0  0  0  0
   -7.0939    4.2217   -5.9420 H   0  0  0  0  0  0  0  0  0  0  0  0
   -6.8663    2.3308   -7.5717 H   0  0  0  0  0  0  0  0  0  0  0  0
   -6.2541    3.8270   -8.2810 H   0  0  0  0  0  0  0  0  0  0  0  0
   -7.8494    3.2176   -8.7410 H   0  0  0  0  0  0  0  0  0  0  0  0
   -9.2483    2.4505   -2.9838 H   0  0  0  0  0  0  0  0  0  0  0  0
  -11.1889    3.8758   -2.4751 H   0  0  0  0  0  0  0  0  0  0  0  0
  -10.9814    6.3266   -2.5524 H   0  0  0  0  0  0  0  0  0  0  0  0
   -9.7281    8.2738   -3.2564 H   0  0  0  0  0  0  0  0  0  0  0  0
   -8.0993    8.1003   -3.9261 H   0  0  0  0  0  0  0  0  0  0  0  0
   -7.1863    7.7927   -1.6225 H   0  0  0  0  0  0  0  0  0  0  0  0
   -8.0338    9.3364   -1.7734 H   0  0  0  0  0  0  0  0  0  0  0  0
   -8.8081    7.9752   -0.9554 H   0  0  0  0  0  0  0  0  0  0  0  0
   -6.8882    5.9454   -3.6772 H   0  0  0  0  0  0  0  0  0  0  0  0
    3.9792    3.4609    3.9578 H   0  0  0  0  0  0  0  0  0  0  0  0
    5.4643    4.6160    5.5405 H   0  0  0  0  0  0  0  0  0  0  0  0
    7.8970    4.2475    5.4529 H   0  0  0  0  0  0  0  0  0  0  0  0
    9.5154    1.7416    3.2614 H   0  0  0  0  0  0  0  0  0  0  0  0
    9.7206    2.7331    4.7122 H   0  0  0  0  0  0  0  0  0  0  0  0
    9.5096    3.8078    1.8574 H   0  0  0  0  0  0  0  0  0  0  0  0
    9.7139    4.7941    3.3044 H   0  0  0  0  0  0  0  0  0  0  0  0
   10.9971    3.6874    2.8040 H   0  0  0  0  0  0  0  0  0  0  0  0
    7.3778    1.6101    2.1434 H   0  0  0  0  0  0  0  0  0  0  0  0
   -0.6027    1.2027   -3.3944 H   0  0  0  0  0  0  0  0  0  0  0  0
   -2.0390    1.5019   -4.3665 H   0  0  0  0  0  0  0  0  0  0  0  0
   -1.8140   -0.9239   -3.7012 H   0  0  0  0  0  0  0  0  0  0  0  0
   -2.0976   -0.4575   -2.0190 H   0  0  0  0  0  0  0  0  0  0  0  0
   -3.3398   -0.1887   -3.2297 H   0  0  0  0  0  0  0  0  0  0  0  0
    1.4472   -0.1800   -0.9980 H   0  0  0  0  0  0  0  0  0  0  0  0
   -0.0025    0.0969   -1.9533 H   0  0  0  0  0  0  0  0  0  0  0  0
   -0.5515   -1.2784    0.0287 H   0  0  0  0  0  0  0  0  0  0  0  0
    0.1350   -0.0532    1.0982 H   0  0  0  0  0  0  0  0  0  0  0  0
   -1.3340    0.3026    0.1894 H   0  0  0  0  0  0  0  0  0  0  0  0
    5.6431    0.0304    4.1507 H   0  0  0  0  0  0  0  0  0  0  0  0
    7.4417   -3.3092    0.9249 H   0  0  0  0  0  0  0  0  0  0  0  0
    6.0753   -1.4202    0.1361 H   0  0  0  0  0  0  0  0  0  0  0  0
    8.7266   -5.1634    2.3190 H   0  0  0  0  0  0  0  0  0  0  0  0
    9.5081   -6.7262    4.0497 H   0  0  0  0  0  0  0  0  0  0  0  0
    8.0540   -4.1127    7.1380 H   0  0  0  0  0  0  0  0  0  0  0  0
    9.8532   -7.3591    6.2732 H   0  0  0  0  0  0  0  0  0  0  0  0
    8.7686   -8.8634   11.7800 H   0  0  0  0  0  0  0  0  0  0  0  0
    9.7237   -9.5810   10.4568 H   0  0  0  0  0  0  0  0  0  0  0  0
    6.6931   -9.9026   10.7945 H   0  0  0  0  0  0  0  0  0  0  0  0
    7.6804  -10.6002    9.4985 H   0  0  0  0  0  0  0  0  0  0  0  0
    7.9088  -11.1194   11.1720 H   0  0  0  0  0  0  0  0  0  0  0  0
  1  2  2  0  0  0  0
  2  3  1  0  0  0  0
  3  4  1  0  0  0  0
  4  5  2  0  0  0  0
  5  6  1  0  0  0  0
  6  7  3  0  0  0  0
  5  8  1  0  0  0  0
  8  9  3  0  0  0  0
  4 10  1  0  0  0  0
 10 11  1  0  0  0  0
 11 12  1  0  0  0  0
 10 13  1  0  0  0  0
 13 14  2  0  0  0  0
  1 15  1  0  0  0  0
 15 16  2  0  0  0  0
 16 17  1  0  0  0  0
 17 18  1  0  0  0  0
 18 19  1  0  0  0  0
 19 20  1  0  0  0  0
 17 21  2  0  0  0  0
 21 22  1  0  0  0  0
 21 23  1  0  0  0  0
 23 24  2  0  0  0  0
 24 25  1  0  0  0  0
 25 26  2  0  0  0  0
 26 27  1  0  0  0  0
 27 28  2  0  0  0  0
 28 29  1  0  0  0  0
 29 30  1  0  0  0  0
 30 31  1  0  0  0  0
 29 32  2  0  0  0  0
 24 33  1  0  0  0  0
 33 34  1  0  0  0  0
 34 35  1  0  0  0  0
 35 36  1  0  0  0  0
 36 37  1  0  0  0  0
 37 38  1  0  0  0  0
 38 39  2  0  0  0  0
 39 40  1  0  0  0  0
 40 41  1  0  0  0  0
 38 42  1  0  0  0  0
 42 43  1  0  0  0  0
 43 44  1  0  0  0  0
 44 45  1  0  0  0  0
 45 46  1  0  0  0  0
 46 47  1  0  0  0  0
 47 48  2  0  0  0  0
 48 49  1  0  0  0  0
 49 50  2  0  0  0  0
 50 51  1  0  0  0  0
 51 52  1  0  0  0  0
 52 53  1  0  0  0  0
 51 54  2  0  0  0  0
 46 55  2  0  0  0  0
 55 56  1  0  0  0  0
 56 57  1  0  0  0  0
 57 58  1  0  0  0  0
 58 59  1  0  0  0  0
 59 60  1  0  0  0  0
 60 61  1  0  0  0  0
 61 62  1  0  0  0  0
 62 63  1  0  0  0  0
 63 64  1  0  0  0  0
 64 65  1  0  0  0  0
 62 66  1  0  0  0  0
 66 67  1  0  0  0  0
 59 68  1  0  0  0  0
 68 69  1  0  0  0  0
 55 70  1  0  0  0  0
 70 71  2  0  0  0  0
 71 72  1  0  0  0  0
 72 73  1  0  0  0  0
 73 74  2  0  0  0  0
 73 75  1  0  0  0  0
 75 76  2  0  0  0  0
 76 77  1  0  0  0  0
 77 78  1  0  0  0  0
 78 79  2  0  0  0  0
 76 80  1  0  0  0  0
 80 81  2  0  0  0  0
 81 82  1  0  0  0  0
 82 83  2  0  0  0  0
 82 84  1  0  0  0  0
 84 85  2  0  0  0  0
 85 86  1  0  0  0  0
 86 87  1  0  0  0  0
 87 88  2  0  0  0  0
 88 89  1  0  0  0  0
 89 90  3  0  0  0  0
 88 91  1  0  0  0  0
 91 92  3  0  0  0  0
 87 93  1  0  0  0  0
 93 94  1  0  0  0  0
 94 95  1  0  0  0  0
 93 96  1  0  0  0  0
 96 97  2  0  0  0  0
 13  2  1  0  0  0  0
 22 15  1  0  0  0  0
 65 23  1  0  0  0  0
 79 70  1  0  0  0  0
 96 85  1  0  0  0  0
 32 25  1  0  0  0  0
 64 33  2  0  0  0  0
 77 72  2  0  0  0  0
 63 35  2  0  0  0  0
 83 75  1  0  0  0  0
 61 36  2  0  0  0  0
 41 37  2  0  0  0  0
 60 42  2  0  0  0  0
 58 43  2  0  0  0  0
 57 45  2  0  0  0  0
 54 47  1  0  0  0  0
  1 98  1  0  0  0  0
 11 99  1  0  0  0  0
 11100  1  0  0  0  0
 12101  1  0  0  0  0
 12102  1  0  0  0  0
 12103  1  0  0  0  0
 16104  1  0  0  0  0
 19105  1  0  0  0  0
 19106  1  0  0  0  0
 20107  1  0  0  0  0
 20108  1  0  0  0  0
 20109  1  0  0  0  0
 26110  1  0  0  0  0
 27111  1  0  0  0  0
 28112  1  0  0  0  0
 30113  1  0  0  0  0
 30114  1  0  0  0  0
 31115  1  0  0  0  0
 31116  1  0  0  0  0
 31117  1  0  0  0  0
 32118  1  0  0  0  0
 48119  1  0  0  0  0
 49120  1  0  0  0  0
 50121  1  0  0  0  0
 52122  1  0  0  0  0
 52123  1  0  0  0  0
 53124  1  0  0  0  0
 53125  1  0  0  0  0
 53126  1  0  0  0  0
 54127  1  0  0  0  0
 66128  1  0  0  0  0
 66129  1  0  0  0  0
 67130  1  0  0  0  0
 67131  1  0  0  0  0
 67132  1  0  0  0  0
 68133  1  0  0  0  0
 68134  1  0  0  0  0
 69135  1  0  0  0  0
 69136  1  0  0  0  0
 69137  1  0  0  0  0
 71138  1  0  0  0  0
 78139  1  0  0  0  0
 79140  1  0  0  0  0
 80141  1  0  0  0  0
 81142  1  0  0  0  0
 83143  1  0  0  0  0
 84144  1  0  0  0  0
 94145  1  0  0  0  0
 94146  1  0  0  0  0
 95147  1  0  0  0  0
 95148  1  0  0  0  0
 95149  1  0  0  0  0
M  END
