149

C         -7.42740       -6.59880        7.88520
C         -7.20510       -6.57540        9.22420
C         -5.89180       -6.10870        9.74390
O         -5.13150       -5.43330        9.08260
N         -5.59500       -6.44030       11.04810
C         -4.24270       -6.16020       11.52140
C         -3.32440       -7.34510       11.25280
C         -6.47840       -7.00590       11.95170
O         -6.12280       -7.32530       13.06400
C         -7.86670       -7.13980       11.47300
C         -8.22660       -6.93660       10.17800
C         -9.63880       -7.13750        9.72970
C         -8.80950       -7.52910       12.45010
N         -9.58640       -7.83230       13.23690
C         -6.42350       -6.42960        6.85500
C         -5.19120       -7.09250        6.88750
F         -4.94040       -7.96270        7.88660
C         -4.23530       -6.93100        5.91530
C         -4.47660       -6.06150        4.84680
C         -5.70940       -5.40570        4.78570
C         -6.66790       -5.60740        5.75290
C         -3.45970       -5.80420        3.85250
C         -2.46350       -6.63170        3.37500
C         -2.33700       -8.06210        3.66320
C         -1.08850       -8.61300        3.93470
C         -0.97540       -9.96570        4.19840
C         -2.09660      -10.77530        4.18760
C         -3.35020      -10.24380        3.90560
C         -4.55890      -11.13260        3.84320
C         -4.68180      -11.77100        2.45830
C         -3.45750       -8.88860        3.63940
C         -1.60020       -5.93930        2.49740
S         -0.19270       -6.42450        1.58180
C         -0.06390       -4.81330        0.96070
C          0.78530       -4.05040        0.13620
C          2.02460       -4.31640       -0.48970
C          2.73460       -3.23960       -1.13320
N          3.91080       -3.62400       -1.60230
S          4.10920       -5.19660       -1.27690
N          2.70260       -5.45270       -0.51910
C          2.11290       -1.97550       -1.25230
C          2.46760       -0.78100       -1.90700
S          3.80570       -0.10770       -2.77550
C          2.88160        1.35490       -3.01940
C          3.18020        2.57050       -3.65710
C          4.47380        2.84900       -4.28940
C          4.94870        2.01360       -5.29330
C          6.16830        2.28120       -5.88640
C          6.91940        3.36760       -5.47730
C          6.46780        4.19980       -4.46040
C          7.30690        5.34690       -3.97740
C          8.24440        4.89110       -2.85740
C          5.24580        3.92620       -3.86790
C          2.11300        3.45240       -3.59200
S          0.74550        2.77770       -2.70170
C          1.60580        1.30390       -2.44920
C          1.36990        0.08330       -1.81130
N          0.35370       -0.51590       -1.10690
C          0.81160       -1.76510       -0.72910
C          0.22800       -2.74720        0.09760
N         -0.88800       -2.69370        0.91390
C         -1.06300       -3.95460        1.42930
C         -1.94300       -4.60070        2.30550
S         -3.35760       -4.17790        3.19750
C         -1.35080       -1.53620        1.65390
C         -0.75110       -1.50000        3.05940
C         -1.02720       -0.15530       -1.36140
C         -1.37430       -0.29540       -2.84340
C          1.95620        4.72270       -4.20130
C          0.84910        5.54590       -4.05450
C          0.92310        6.69100       -4.83140
S         -0.34190        7.90500       -4.95070
C         -0.52860        8.37090       -3.19080
C          0.71670        9.07040       -2.68480
C          2.10180        6.77720       -5.59320
S          3.09580        5.36130       -5.34690
C          2.44460        7.91590       -6.32120
C          3.53760        8.15290       -7.11860
C          4.50180        7.14730       -7.57170
O          4.62680        6.00100       -7.17460
C          5.28740        7.79760       -8.63770
C          6.26020        7.26570       -9.43240
C          6.85970        8.07670      -10.42290
C          7.86250        7.57620      -11.27760
C          8.42760        8.36630      -12.24010
C          7.99490        9.69270      -12.36730
F          8.56130       10.45520      -13.32140
C          7.02790       10.22890      -11.56300
C          6.43540        9.42940      -10.56680
C          5.43170        9.95660       -9.71960
C          4.86690        9.15260       -8.76770
C          3.83330        9.40880       -7.76810
C          3.31830       10.63780       -7.43840
C          3.65020       11.83250       -8.10730
N          3.88090       12.83180       -8.62410
C          2.45860       10.87700       -6.34680
N          1.80050       11.15670       -5.44720
H         -8.43170       -6.77050        7.51980
H         -3.89120       -5.27310       10.99140
H         -4.30410       -5.95970       12.59240
H         -3.67110       -8.21880       11.79940
H         -2.31500       -7.10720       11.57620
H         -3.30960       -7.57520       10.18990
H        -10.29140       -7.28600       10.58620
H         -9.98720       -6.27320        9.16610
H         -9.71100       -8.01660        9.08950
H         -3.30000       -7.45950        6.00260
H         -5.91160       -4.73680        3.96200
H         -7.61250       -5.08800        5.69010
H         -0.21460       -7.97980        3.95690
H         -0.00610      -10.38880        4.41620
H         -2.00170      -11.83030        4.40000
H         -5.45810      -10.55010        4.05440
H         -4.47680      -11.91920        4.59600
H         -3.79860      -12.36530        2.23590
H         -4.77700      -11.00220        1.69470
H         -5.55560      -12.41670        2.41300
H         -4.42380       -8.46330        3.40620
H          4.35410        1.17240       -5.61730
H          6.53200        1.63890       -6.67470
H          7.86790        3.57540       -5.95120
H          6.66140        6.14560       -3.60690
H          7.89790        5.74370       -4.80490
H          7.67110        4.50050       -2.01960
H          8.90570        4.10460       -3.21380
H          8.85100        5.72260       -2.50590
H          4.88400        4.55670       -3.06740
H         -2.44300       -1.57690        1.71600
H         -1.04820       -0.63170        1.13020
H          0.33540       -1.50460        3.00270
H         -1.07120       -0.59480        3.56750
H         -1.07340       -2.35580        3.64550
H         -1.67760       -0.81880       -0.79420
H         -1.18470        0.87940       -1.03980
H         -1.17940       -1.31160       -3.17940
H         -0.78990        0.39100       -3.44920
H         -2.42750       -0.07400       -2.99140
H          0.01770        5.30170       -3.41590
H         -1.38920        9.03820       -3.18180
H         -0.76030        7.47320       -2.61910
H          0.96010        9.91710       -3.32340
H          0.55300        9.43040       -1.67120
H          1.56450        8.38700       -2.67860
H          1.71360        8.71310       -6.23620
H          6.56510        6.23690       -9.31150
H          8.17830        6.55030      -11.16110
H          9.19430        7.99800      -12.90300
H          6.72020       11.25530      -11.68840
H          5.12900       10.98290       -9.85360
