
  xtb     02032218573D
 energy: -447.818249014262 gnorm: 0.000502101827 xtb: 6.4.1 (unknown)
280302  0     0  0            999 V2000
  -10.8457    0.9368  -12.2705 C   0  0  0  0  0  0  0  0  0  0  0  0
  -12.2004    0.6765  -12.2063 C   0  0  0  0  0  0  0  0  0  0  0  0
  -12.7971   -0.0027  -11.0545 C   0  0  0  0  0  0  0  0  0  0  0  0
  -12.1424   -0.4049  -10.1014 O   0  0  0  0  0  0  0  0  0  0  0  0
  -14.1599   -0.1818  -11.0448 N   0  0  0  0  0  0  0  0  0  0  0  0
  -14.7362   -0.8568   -9.8859 C   0  0  0  0  0  0  0  0  0  0  0  0
  -14.6495   -2.3704  -10.0316 C   0  0  0  0  0  0  0  0  0  0  0  0
  -15.0328    0.1907  -12.0590 C   0  0  0  0  0  0  0  0  0  0  0  0
  -16.2232   -0.0222  -11.9686 O   0  0  0  0  0  0  0  0  0  0  0  0
  -14.4019    0.8473  -13.2039 C   0  0  0  0  0  0  0  0  0  0  0  0
  -13.0586    1.0833  -13.2836 C   0  0  0  0  0  0  0  0  0  0  0  0
  -12.4999    1.7610  -14.4974 C   0  0  0  0  0  0  0  0  0  0  0  0
  -15.2824    1.2285  -14.2392 C   0  0  0  0  0  0  0  0  0  0  0  0
  -15.9937    1.5432  -15.0823 N   0  0  0  0  0  0  0  0  0  0  0  0
   -9.7617    0.6717  -11.4166 C   0  0  0  0  0  0  0  0  0  0  0  0
   -8.4803    1.0942  -11.7493 C   0  0  0  0  0  0  0  0  0  0  0  0
   -7.4967    0.7575  -10.8123 C   0  0  0  0  0  0  0  0  0  0  0  0
   -6.1142    1.0586  -10.8565 C   0  0  0  0  0  0  0  0  0  0  0  0
   -5.5132    1.7478  -12.0055 C   0  0  0  0  0  0  0  0  0  0  0  0
   -4.6902    2.8526  -11.7890 C   0  0  0  0  0  0  0  0  0  0  0  0
   -4.1022    3.4945  -12.8679 C   0  0  0  0  0  0  0  0  0  0  0  0
   -3.2650    4.5619  -12.7903 O   0  0  0  0  0  0  0  0  0  0  0  0
   -2.9376    5.1100  -11.5282 C   0  0  0  0  0  0  0  0  0  0  0  0
   -4.0290    6.0274  -10.9835 C   0  0  0  0  0  0  0  0  0  0  0  0
   -4.3457    3.0393  -14.1665 C   0  0  0  0  0  0  0  0  0  0  0  0
   -5.1634    1.9420  -14.3820 C   0  0  0  0  0  0  0  0  0  0  0  0
   -5.4603    1.4229  -15.6005 O   0  0  0  0  0  0  0  0  0  0  0  0
   -4.8776    2.0016  -16.7527 C   0  0  0  0  0  0  0  0  0  0  0  0
   -5.3509    1.2061  -17.9590 C   0  0  0  0  0  0  0  0  0  0  0  0
   -5.7477    1.2937  -13.2922 C   0  0  0  0  0  0  0  0  0  0  0  0
   -5.3701    0.6626   -9.7638 C   0  0  0  0  0  0  0  0  0  0  0  0
   -5.9248   -0.0553   -8.6685 C   0  0  0  0  0  0  0  0  0  0  0  0
   -7.2926   -0.3710   -8.6325 C   0  0  0  0  0  0  0  0  0  0  0  0
   -7.8562   -1.0956   -7.4841 C   0  0  0  0  0  0  0  0  0  0  0  0
   -9.0074   -0.6163   -6.8611 C   0  0  0  0  0  0  0  0  0  0  0  0
   -9.4997   -1.2582   -5.7348 C   0  0  0  0  0  0  0  0  0  0  0  0
   -8.8167   -2.3546   -5.2009 C   0  0  0  0  0  0  0  0  0  0  0  0
   -7.6713   -2.8290   -5.8172 C   0  0  0  0  0  0  0  0  0  0  0  0
   -6.9123   -3.8622   -5.3620 O   0  0  0  0  0  0  0  0  0  0  0  0
   -7.2061   -4.4199   -4.0964 C   0  0  0  0  0  0  0  0  0  0  0  0
   -6.0850   -5.3883   -3.7500 C   0  0  0  0  0  0  0  0  0  0  0  0
   -7.2131   -2.2161   -6.9837 C   0  0  0  0  0  0  0  0  0  0  0  0
  -10.6054   -0.8888   -5.0373 O   0  0  0  0  0  0  0  0  0  0  0  0
  -11.4248    0.1630   -5.5108 C   0  0  0  0  0  0  0  0  0  0  0  0
  -12.3107   -0.2466   -6.6829 C   0  0  0  0  0  0  0  0  0  0  0  0
   -8.0589    0.0644   -9.7037 C   0  0  0  0  0  0  0  0  0  0  0  0
   -9.7744   -0.1701   -9.8809 S   0  0  0  0  0  0  0  0  0  0  0  0
   -4.9510   -0.3436   -7.6870 C   0  0  0  0  0  0  0  0  0  0  0  0
   -3.6956    0.0910   -8.0016 C   0  0  0  0  0  0  0  0  0  0  0  0
   -3.6516    0.9237   -9.5406 S   0  0  0  0  0  0  0  0  0  0  0  0
   -2.5614   -0.1030   -7.1579 C   0  0  0  0  0  0  0  0  0  0  0  0
   -1.2577    1.0547   -7.0187 S   0  0  0  0  0  0  0  0  0  0  0  0
   -0.6001    0.1609   -5.7051 C   0  0  0  0  0  0  0  0  0  0  0  0
    0.3972    0.3631   -4.6962 C   0  0  0  0  0  0  0  0  0  0  0  0
    0.2987   -0.6879   -3.7904 C   0  0  0  0  0  0  0  0  0  0  0  0
   -0.7222   -1.7170   -4.2569 C   0  0  0  0  0  0  0  0  0  0  0  0
   -1.3159   -0.9919   -5.4422 C   0  0  0  0  0  0  0  0  0  0  0  0
   -2.4333   -1.1419   -6.2573 C   0  0  0  0  0  0  0  0  0  0  0  0
   -0.0591   -2.9854   -4.7730 C   0  0  0  0  0  0  0  0  0  0  0  0
   -0.8399   -3.9543   -5.3904 C   0  0  0  0  0  0  0  0  0  0  0  0
   -0.2905   -5.1225   -5.8857 C   0  0  0  0  0  0  0  0  0  0  0  0
    1.0786   -5.3467   -5.7808 C   0  0  0  0  0  0  0  0  0  0  0  0
    1.7464   -6.4407   -6.2366 O   0  0  0  0  0  0  0  0  0  0  0  0
    1.0285   -7.5327   -6.7745 C   0  0  0  0  0  0  0  0  0  0  0  0
    0.3655   -8.3883   -5.6983 C   0  0  0  0  0  0  0  0  0  0  0  0
    1.8680   -4.3687   -5.1761 C   0  0  0  0  0  0  0  0  0  0  0  0
    1.3094   -3.2076   -4.6838 C   0  0  0  0  0  0  0  0  0  0  0  0
   -1.8048   -1.9943   -3.2293 C   0  0  0  0  0  0  0  0  0  0  0  0
   -2.6791   -0.9665   -2.8846 C   0  0  0  0  0  0  0  0  0  0  0  0
   -3.7190   -1.1844   -2.0097 C   0  0  0  0  0  0  0  0  0  0  0  0
   -3.9169   -2.4446   -1.4410 C   0  0  0  0  0  0  0  0  0  0  0  0
   -4.9894   -2.5637   -0.6159 O   0  0  0  0  0  0  0  0  0  0  0  0
   -5.2460   -3.8097    0.0008 C   0  0  0  0  0  0  0  0  0  0  0  0
   -6.5187   -3.6666    0.8203 C   0  0  0  0  0  0  0  0  0  0  0  0
   -3.0276   -3.4655   -1.7536 C   0  0  0  0  0  0  0  0  0  0  0  0
   -1.9873   -3.2348   -2.6395 C   0  0  0  0  0  0  0  0  0  0  0  0
    1.0578   -0.6828   -2.6028 C   0  0  0  0  0  0  0  0  0  0  0  0
    0.9669   -1.6740   -1.6251 C   0  0  0  0  0  0  0  0  0  0  0  0
    1.6515   -1.5796   -0.4206 C   0  0  0  0  0  0  0  0  0  0  0  0
    1.4908   -2.5708    0.5864 C   0  0  0  0  0  0  0  0  0  0  0  0
    2.0923   -2.4546    1.7995 C   0  0  0  0  0  0  0  0  0  0  0  0
    2.9002   -1.3256    2.0460 C   0  0  0  0  0  0  0  0  0  0  0  0
    3.5604   -0.9053    3.2430 C   0  0  0  0  0  0  0  0  0  0  0  0
    4.1926    0.3108    3.0508 C   0  0  0  0  0  0  0  0  0  0  0  0
    4.0241    0.7547    1.6139 C   0  0  0  0  0  0  0  0  0  0  0  0
    3.2792    2.0771    1.5352 C   0  0  0  0  0  0  0  0  0  0  0  0
    3.6771    3.1213    0.7166 C   0  0  0  0  0  0  0  0  0  0  0  0
    2.9453    4.2955    0.6413 C   0  0  0  0  0  0  0  0  0  0  0  0
    1.7859    4.4453    1.3923 C   0  0  0  0  0  0  0  0  0  0  0  0
    0.9909    5.5465    1.3971 O   0  0  0  0  0  0  0  0  0  0  0  0
    1.3310    6.6421    0.5708 C   0  0  0  0  0  0  0  0  0  0  0  0
    0.2702    7.7140    0.7653 C   0  0  0  0  0  0  0  0  0  0  0  0
    1.3800    3.3940    2.2171 C   0  0  0  0  0  0  0  0  0  0  0  0
    2.1143    2.2318    2.2823 C   0  0  0  0  0  0  0  0  0  0  0  0
    5.4025    0.7901    0.9815 C   0  0  0  0  0  0  0  0  0  0  0  0
    6.3281    1.7372    1.4166 C   0  0  0  0  0  0  0  0  0  0  0  0
    7.6035    1.7705    0.9018 C   0  0  0  0  0  0  0  0  0  0  0  0
    8.0024    0.8464   -0.0669 C   0  0  0  0  0  0  0  0  0  0  0  0
    9.2817    0.9644   -0.5075 O   0  0  0  0  0  0  0  0  0  0  0  0
    9.7660    0.0424   -1.4638 C   0  0  0  0  0  0  0  0  0  0  0  0
   11.2206    0.3869   -1.7418 C   0  0  0  0  0  0  0  0  0  0  0  0
    7.0865   -0.1042   -0.4998 C   0  0  0  0  0  0  0  0  0  0  0  0
    5.8044   -0.1286    0.0267 C   0  0  0  0  0  0  0  0  0  0  0  0
    3.1336   -0.3591    1.0751 C   0  0  0  0  0  0  0  0  0  0  0  0
    2.5092   -0.4507   -0.1867 C   0  0  0  0  0  0  0  0  0  0  0  0
    2.6578    0.5011   -1.1958 C   0  0  0  0  0  0  0  0  0  0  0  0
    1.9428    0.4272   -2.3848 C   0  0  0  0  0  0  0  0  0  0  0  0
    2.0554    1.4454   -3.3708 C   0  0  0  0  0  0  0  0  0  0  0  0
    1.2985    1.4291   -4.5005 C   0  0  0  0  0  0  0  0  0  0  0  0
    4.7859    0.8068    4.2086 C   0  0  0  0  0  0  0  0  0  0  0  0
    4.5971   -0.0354    5.2892 C   0  0  0  0  0  0  0  0  0  0  0  0
    3.6881   -1.4681    4.8571 S   0  0  0  0  0  0  0  0  0  0  0  0
    5.0012    0.1756    6.6365 C   0  0  0  0  0  0  0  0  0  0  0  0
    5.6512    1.2600    7.1594 C   0  0  0  0  0  0  0  0  0  0  0  0
    5.8453    1.1874    8.5583 C   0  0  0  0  0  0  0  0  0  0  0  0
    6.4506    2.1438    9.3933 C   0  0  0  0  0  0  0  0  0  0  0  0
    7.0737    3.3575    8.8456 C   0  0  0  0  0  0  0  0  0  0  0  0
    7.9945    3.2571    7.8173 C   0  0  0  0  0  0  0  0  0  0  0  0
    8.6068    4.4024    7.3036 C   0  0  0  0  0  0  0  0  0  0  0  0
    9.4738    4.1823    6.2801 O   0  0  0  0  0  0  0  0  0  0  0  0
   10.2452    5.2507    5.7674 C   0  0  0  0  0  0  0  0  0  0  0  0
   11.4004    5.6359    6.6863 C   0  0  0  0  0  0  0  0  0  0  0  0
    8.2866    5.6409    7.8356 C   0  0  0  0  0  0  0  0  0  0  0  0
    7.3603    5.7426    8.8759 C   0  0  0  0  0  0  0  0  0  0  0  0
    7.1295    7.0059    9.3168 O   0  0  0  0  0  0  0  0  0  0  0  0
    6.2500    7.1999   10.4082 C   0  0  0  0  0  0  0  0  0  0  0  0
    6.2310    8.6864   10.7272 C   0  0  0  0  0  0  0  0  0  0  0  0
    6.7514    4.6038    9.3806 C   0  0  0  0  0  0  0  0  0  0  0  0
    6.4399    1.8733   10.7515 C   0  0  0  0  0  0  0  0  0  0  0  0
    5.9043    0.6761   11.2980 C   0  0  0  0  0  0  0  0  0  0  0  0
    5.3280   -0.2998   10.4593 C   0  0  0  0  0  0  0  0  0  0  0  0
    4.7561   -1.5313   11.0193 C   0  0  0  0  0  0  0  0  0  0  0  0
    3.4687   -1.9175   10.6489 C   0  0  0  0  0  0  0  0  0  0  0  0
    2.9113   -3.0633   11.1967 C   0  0  0  0  0  0  0  0  0  0  0  0
    3.6229   -3.8019   12.1444 C   0  0  0  0  0  0  0  0  0  0  0  0
    4.9032   -3.4207   12.5149 C   0  0  0  0  0  0  0  0  0  0  0  0
    5.6939   -4.0666   13.4074 O   0  0  0  0  0  0  0  0  0  0  0  0
    5.1712   -5.1420   14.1670 C   0  0  0  0  0  0  0  0  0  0  0  0
    4.2545   -4.6771   15.2935 C   0  0  0  0  0  0  0  0  0  0  0  0
    5.4751   -2.2889   11.9286 C   0  0  0  0  0  0  0  0  0  0  0  0
    1.6718   -3.5450   10.9149 O   0  0  0  0  0  0  0  0  0  0  0  0
    0.9226   -2.9835    9.8549 C   0  0  0  0  0  0  0  0  0  0  0  0
    1.4608   -3.3700    8.4804 C   0  0  0  0  0  0  0  0  0  0  0  0
    5.2957   -0.0007    9.1104 C   0  0  0  0  0  0  0  0  0  0  0  0
    4.6073   -1.0089    7.8648 S   0  0  0  0  0  0  0  0  0  0  0  0
    5.9916    0.6487   12.7018 C   0  0  0  0  0  0  0  0  0  0  0  0
    6.5772    1.7636   13.2494 C   0  0  0  0  0  0  0  0  0  0  0  0
    7.0870    2.8997   12.0047 S   0  0  0  0  0  0  0  0  0  0  0  0
    6.8903    2.0097   14.6052 C   0  0  0  0  0  0  0  0  0  0  0  0
    6.3923    1.3857   15.7189 C   0  0  0  0  0  0  0  0  0  0  0  0
    7.2402    1.5356   16.9299 C   0  0  0  0  0  0  0  0  0  0  0  0
    8.0598    2.4233   17.0508 O   0  0  0  0  0  0  0  0  0  0  0  0
    7.0971    0.5601   17.8932 N   0  0  0  0  0  0  0  0  0  0  0  0
    8.0328    0.5780   19.0132 C   0  0  0  0  0  0  0  0  0  0  0  0
    9.3030   -0.1930   18.6788 C   0  0  0  0  0  0  0  0  0  0  0  0
    6.1634   -0.4676   17.8629 C   0  0  0  0  0  0  0  0  0  0  0  0
    6.1970   -1.3703   18.6709 O   0  0  0  0  0  0  0  0  0  0  0  0
    5.1122   -0.3049   16.8524 C   0  0  0  0  0  0  0  0  0  0  0  0
    5.1979    0.6024   15.8353 C   0  0  0  0  0  0  0  0  0  0  0  0
    3.9952    0.8529   14.9765 C   0  0  0  0  0  0  0  0  0  0  0  0
    3.9728   -1.1225   16.9866 C   0  0  0  0  0  0  0  0  0  0  0  0
    3.0410   -1.7877   17.0608 N   0  0  0  0  0  0  0  0  0  0  0  0
  -10.5202    1.4622  -13.1604 H   0  0  0  0  0  0  0  0  0  0  0  0
  -14.1831   -0.5304   -9.0035 H   0  0  0  0  0  0  0  0  0  0  0  0
  -15.7782   -0.5396   -9.8197 H   0  0  0  0  0  0  0  0  0  0  0  0
  -15.1825   -2.6936  -10.9229 H   0  0  0  0  0  0  0  0  0  0  0  0
  -15.0986   -2.8461   -9.1644 H   0  0  0  0  0  0  0  0  0  0  0  0
  -13.6098   -2.6810  -10.1024 H   0  0  0  0  0  0  0  0  0  0  0  0
  -11.7590    1.1284  -14.9849 H   0  0  0  0  0  0  0  0  0  0  0  0
  -12.0259    2.7041  -14.2268 H   0  0  0  0  0  0  0  0  0  0  0  0
  -13.2941    1.9705  -15.2093 H   0  0  0  0  0  0  0  0  0  0  0  0
   -8.2714    1.6488  -12.6473 H   0  0  0  0  0  0  0  0  0  0  0  0
   -4.5412    3.1962  -10.7793 H   0  0  0  0  0  0  0  0  0  0  0  0
   -2.6998    4.3140  -10.8124 H   0  0  0  0  0  0  0  0  0  0  0  0
   -2.0286    5.6897  -11.7132 H   0  0  0  0  0  0  0  0  0  0  0  0
   -3.7050    6.4608  -10.0414 H   0  0  0  0  0  0  0  0  0  0  0  0
   -4.2249    6.8280  -11.6924 H   0  0  0  0  0  0  0  0  0  0  0  0
   -4.9541    5.4801  -10.8207 H   0  0  0  0  0  0  0  0  0  0  0  0
   -3.8676    3.5698  -14.9728 H   0  0  0  0  0  0  0  0  0  0  0  0
   -5.1879    3.0518  -16.8441 H   0  0  0  0  0  0  0  0  0  0  0  0
   -3.7823    1.9644  -16.6785 H   0  0  0  0  0  0  0  0  0  0  0  0
   -4.9205    1.6198  -18.8664 H   0  0  0  0  0  0  0  0  0  0  0  0
   -6.4345    1.2442  -18.0281 H   0  0  0  0  0  0  0  0  0  0  0  0
   -5.0470    0.1676  -17.8604 H   0  0  0  0  0  0  0  0  0  0  0  0
   -6.3517    0.4194  -13.4734 H   0  0  0  0  0  0  0  0  0  0  0  0
   -9.4819    0.2667   -7.2537 H   0  0  0  0  0  0  0  0  0  0  0  0
   -9.2200   -2.8026   -4.3081 H   0  0  0  0  0  0  0  0  0  0  0  0
   -8.1690   -4.9483   -4.1308 H   0  0  0  0  0  0  0  0  0  0  0  0
   -7.2665   -3.6252   -3.3402 H   0  0  0  0  0  0  0  0  0  0  0  0
   -5.1431   -4.8514   -3.6628 H   0  0  0  0  0  0  0  0  0  0  0  0
   -6.3048   -5.8866   -2.8095 H   0  0  0  0  0  0  0  0  0  0  0  0
   -5.9881   -6.1355   -4.5330 H   0  0  0  0  0  0  0  0  0  0  0  0
   -6.3551   -2.6364   -7.4826 H   0  0  0  0  0  0  0  0  0  0  0  0
  -12.0483    0.4189   -4.6486 H   0  0  0  0  0  0  0  0  0  0  0  0
  -10.8181    1.0402   -5.7671 H   0  0  0  0  0  0  0  0  0  0  0  0
  -11.7248   -0.4865   -7.5665 H   0  0  0  0  0  0  0  0  0  0  0  0
  -12.9851    0.5720   -6.9219 H   0  0  0  0  0  0  0  0  0  0  0  0
  -12.8985   -1.1198   -6.4097 H   0  0  0  0  0  0  0  0  0  0  0  0
   -5.1799   -0.8164   -6.7506 H   0  0  0  0  0  0  0  0  0  0  0  0
   -3.1418   -1.9473   -6.2026 H   0  0  0  0  0  0  0  0  0  0  0  0
   -1.9055   -3.8058   -5.4773 H   0  0  0  0  0  0  0  0  0  0  0  0
   -0.9438   -5.8415   -6.3545 H   0  0  0  0  0  0  0  0  0  0  0  0
    1.7863   -8.1211   -7.2994 H   0  0  0  0  0  0  0  0  0  0  0  0
    0.2908   -7.1885   -7.5099 H   0  0  0  0  0  0  0  0  0  0  0  0
    1.1164   -8.7436   -4.9970 H   0  0  0  0  0  0  0  0  0  0  0  0
   -0.3752   -7.8145   -5.1466 H   0  0  0  0  0  0  0  0  0  0  0  0
   -0.1212   -9.2438   -6.1586 H   0  0  0  0  0  0  0  0  0  0  0  0
    2.9300   -4.5422   -5.1043 H   0  0  0  0  0  0  0  0  0  0  0  0
    1.9533   -2.4743   -4.2245 H   0  0  0  0  0  0  0  0  0  0  0  0
   -2.5450    0.0145   -3.3167 H   0  0  0  0  0  0  0  0  0  0  0  0
   -4.4047   -0.3928   -1.7521 H   0  0  0  0  0  0  0  0  0  0  0  0
   -5.3739   -4.5897   -0.7625 H   0  0  0  0  0  0  0  0  0  0  0  0
   -4.4046   -4.0883    0.6507 H   0  0  0  0  0  0  0  0  0  0  0  0
   -7.3462   -3.3864    0.1742 H   0  0  0  0  0  0  0  0  0  0  0  0
   -6.7511   -4.6074    1.3111 H   0  0  0  0  0  0  0  0  0  0  0  0
   -6.3906   -2.8931    1.5722 H   0  0  0  0  0  0  0  0  0  0  0  0
   -3.1325   -4.4486   -1.3214 H   0  0  0  0  0  0  0  0  0  0  0  0
   -1.3180   -4.0508   -2.8720 H   0  0  0  0  0  0  0  0  0  0  0  0
    0.3259   -2.5243   -1.7954 H   0  0  0  0  0  0  0  0  0  0  0  0
    0.8537   -3.4148    0.3654 H   0  0  0  0  0  0  0  0  0  0  0  0
    1.9575   -3.1914    2.5770 H   0  0  0  0  0  0  0  0  0  0  0  0
    4.5746    3.0350    0.1212 H   0  0  0  0  0  0  0  0  0  0  0  0
    3.2932    5.0823   -0.0098 H   0  0  0  0  0  0  0  0  0  0  0  0
    2.3200    7.0326    0.8495 H   0  0  0  0  0  0  0  0  0  0  0  0
    1.3616    6.3254   -0.4813 H   0  0  0  0  0  0  0  0  0  0  0  0
    0.2407    8.0214    1.8069 H   0  0  0  0  0  0  0  0  0  0  0  0
   -0.7058    7.3223    0.4925 H   0  0  0  0  0  0  0  0  0  0  0  0
    0.4964    8.5759    0.1441 H   0  0  0  0  0  0  0  0  0  0  0  0
    0.4779    3.5155    2.7955 H   0  0  0  0  0  0  0  0  0  0  0  0
    1.7788    1.4276    2.9207 H   0  0  0  0  0  0  0  0  0  0  0  0
    6.0398    2.4631    2.1617 H   0  0  0  0  0  0  0  0  0  0  0  0
    8.3200    2.5036    1.2372 H   0  0  0  0  0  0  0  0  0  0  0  0
    9.1756    0.1125   -2.3883 H   0  0  0  0  0  0  0  0  0  0  0  0
    9.6867   -0.9818   -1.0734 H   0  0  0  0  0  0  0  0  0  0  0  0
   11.2952    1.4017   -2.1228 H   0  0  0  0  0  0  0  0  0  0  0  0
   11.7991    0.3184   -0.8246 H   0  0  0  0  0  0  0  0  0  0  0  0
   11.6302   -0.3016   -2.4753 H   0  0  0  0  0  0  0  0  0  0  0  0
    7.3541   -0.8370   -1.2446 H   0  0  0  0  0  0  0  0  0  0  0  0
    5.1173   -0.8836   -0.3234 H   0  0  0  0  0  0  0  0  0  0  0  0
    3.3253    1.3334   -1.0406 H   0  0  0  0  0  0  0  0  0  0  0  0
    2.7475    2.2537   -3.1839 H   0  0  0  0  0  0  0  0  0  0  0  0
    1.3615    2.2144   -5.2389 H   0  0  0  0  0  0  0  0  0  0  0  0
    5.3163    1.7370    4.2872 H   0  0  0  0  0  0  0  0  0  0  0  0
    5.9631    2.1016    6.5697 H   0  0  0  0  0  0  0  0  0  0  0  0
    8.2744    2.2979    7.4127 H   0  0  0  0  0  0  0  0  0  0  0  0
   10.6358    4.8685    4.8200 H   0  0  0  0  0  0  0  0  0  0  0  0
    9.6097    6.1188    5.5537 H   0  0  0  0  0  0  0  0  0  0  0  0
   11.9914    6.4210    6.2226 H   0  0  0  0  0  0  0  0  0  0  0  0
   11.0313    5.9900    7.6455 H   0  0  0  0  0  0  0  0  0  0  0  0
   12.0355    4.7711    6.8611 H   0  0  0  0  0  0  0  0  0  0  0  0
    8.7253    6.5583    7.4803 H   0  0  0  0  0  0  0  0  0  0  0  0
    6.5996    6.6276   11.2783 H   0  0  0  0  0  0  0  0  0  0  0  0
    5.2402    6.8564   10.1434 H   0  0  0  0  0  0  0  0  0  0  0  0
    5.5622    8.8763   11.5617 H   0  0  0  0  0  0  0  0  0  0  0  0
    7.2307    9.0229   10.9871 H   0  0  0  0  0  0  0  0  0  0  0  0
    5.8908    9.2477    9.8612 H   0  0  0  0  0  0  0  0  0  0  0  0
    6.0153    4.6644   10.1648 H   0  0  0  0  0  0  0  0  0  0  0  0
    2.9158   -1.2977    9.9633 H   0  0  0  0  0  0  0  0  0  0  0  0
    3.1347   -4.6686   12.5571 H   0  0  0  0  0  0  0  0  0  0  0  0
    6.0571   -5.6286   14.5844 H   0  0  0  0  0  0  0  0  0  0  0  0
    4.6593   -5.8591   13.5141 H   0  0  0  0  0  0  0  0  0  0  0  0
    4.7898   -4.0094   15.9636 H   0  0  0  0  0  0  0  0  0  0  0  0
    3.9092   -5.5361   15.8612 H   0  0  0  0  0  0  0  0  0  0  0  0
    3.3912   -4.1439   14.9037 H   0  0  0  0  0  0  0  0  0  0  0  0
    6.4920   -2.0379   12.1841 H   0  0  0  0  0  0  0  0  0  0  0  0
   -0.0810   -3.3960    9.9917 H   0  0  0  0  0  0  0  0  0  0  0  0
    0.8617   -1.8930    9.9571 H   0  0  0  0  0  0  0  0  0  0  0  0
    1.4825   -4.4526    8.3851 H   0  0  0  0  0  0  0  0  0  0  0  0
    2.4693   -2.9914    8.3345 H   0  0  0  0  0  0  0  0  0  0  0  0
    0.8174   -2.9597    7.7071 H   0  0  0  0  0  0  0  0  0  0  0  0
    5.6718   -0.1890   13.2905 H   0  0  0  0  0  0  0  0  0  0  0  0
    7.6995    2.7084   14.7898 H   0  0  0  0  0  0  0  0  0  0  0  0
    7.5271    0.1232   19.8668 H   0  0  0  0  0  0  0  0  0  0  0  0
    8.2652    1.6233   19.2248 H   0  0  0  0  0  0  0  0  0  0  0  0
    9.9799   -0.1677   19.5280 H   0  0  0  0  0  0  0  0  0  0  0  0
    9.7992    0.2556   17.8212 H   0  0  0  0  0  0  0  0  0  0  0  0
    9.0631   -1.2292   18.4525 H   0  0  0  0  0  0  0  0  0  0  0  0
    4.1689    1.6496   14.2610 H   0  0  0  0  0  0  0  0  0  0  0  0
    3.1635    1.1366   15.6230 H   0  0  0  0  0  0  0  0  0  0  0  0
    3.6865   -0.0483   14.4483 H   0  0  0  0  0  0  0  0  0  0  0  0
  1  2  2  0  0  0  0
  2  3  1  0  0  0  0
  3  4  2  0  0  0  0
  3  5  1  0  0  0  0
  5  6  1  0  0  0  0
  6  7  1  0  0  0  0
  5  8  1  0  0  0  0
  8  9  2  0  0  0  0
  8 10  1  0  0  0  0
 10 11  2  0  0  0  0
 11 12  1  0  0  0  0
 10 13  1  0  0  0  0
 13 14  3  0  0  0  0
  1 15  1  0  0  0  0
 15 16  2  0  0  0  0
 16 17  1  0  0  0  0
 17 18  2  0  0  0  0
 18 19  1  0  0  0  0
 19 20  2  0  0  0  0
 20 21  1  0  0  0  0
 21 22  1  0  0  0  0
 22 23  1  0  0  0  0
 23 24  1  0  0  0  0
 21 25  2  0  0  0  0
 25 26  1  0  0  0  0
 26 27  1  0  0  0  0
 27 28  1  0  0  0  0
 28 29  1  0  0  0  0
 26 30  2  0  0  0  0
 18 31  1  0  0  0  0
 31 32  2  0  0  0  0
 32 33  1  0  0  0  0
 33 34  1  0  0  0  0
 34 35  2  0  0  0  0
 35 36  1  0  0  0  0
 36 37  2  0  0  0  0
 37 38  1  0  0  0  0
 38 39  1  0  0  0  0
 39 40  1  0  0  0  0
 40 41  1  0  0  0  0
 38 42  2  0  0  0  0
 36 43  1  0  0  0  0
 43 44  1  0  0  0  0
 44 45  1  0  0  0  0
 33 46  2  0  0  0  0
 46 47  1  0  0  0  0
 32 48  1  0  0  0  0
 48 49  2  0  0  0  0
 49 50  1  0  0  0  0
 49 51  1  0  0  0  0
 51 52  1  0  0  0  0
 52 53  1  0  0  0  0
 53 54  1  0  0  0  0
 54 55  2  0  0  0  0
 55 56  1  0  0  0  0
 56 57  1  0  0  0  0
 57 58  1  0  0  0  0
 56 59  1  0  0  0  0
 59 60  2  0  0  0  0
 60 61  1  0  0  0  0
 61 62  2  0  0  0  0
 62 63  1  0  0  0  0
 63 64  1  0  0  0  0
 64 65  1  0  0  0  0
 62 66  1  0  0  0  0
 66 67  2  0  0  0  0
 56 68  1  0  0  0  0
 68 69  2  0  0  0  0
 69 70  1  0  0  0  0
 70 71  2  0  0  0  0
 71 72  1  0  0  0  0
 72 73  1  0  0  0  0
 73 74  1  0  0  0  0
 71 75  1  0  0  0  0
 75 76  2  0  0  0  0
 55 77  1  0  0  0  0
 77 78  2  0  0  0  0
 78 79  1  0  0  0  0
 79 80  2  0  0  0  0
 80 81  1  0  0  0  0
 81 82  2  0  0  0  0
 82 83  1  0  0  0  0
 83 84  2  0  0  0  0
 84 85  1  0  0  0  0
 85 86  1  0  0  0  0
 86 87  2  0  0  0  0
 87 88  1  0  0  0  0
 88 89  2  0  0  0  0
 89 90  1  0  0  0  0
 90 91  1  0  0  0  0
 91 92  1  0  0  0  0
 89 93  1  0  0  0  0
 93 94  2  0  0  0  0
 85 95  1  0  0  0  0
 95 96  2  0  0  0  0
 96 97  1  0  0  0  0
 97 98  2  0  0  0  0
 98 99  1  0  0  0  0
 99100  1  0  0  0  0
100101  1  0  0  0  0
 98102  1  0  0  0  0
102103  2  0  0  0  0
 85104  1  0  0  0  0
104105  2  0  0  0  0
105106  1  0  0  0  0
106107  2  0  0  0  0
107108  1  0  0  0  0
108109  2  0  0  0  0
 84110  1  0  0  0  0
110111  2  0  0  0  0
111112  1  0  0  0  0
111113  1  0  0  0  0
113114  2  0  0  0  0
114115  1  0  0  0  0
115116  2  0  0  0  0
116117  1  0  0  0  0
117118  2  0  0  0  0
118119  1  0  0  0  0
119120  1  0  0  0  0
120121  1  0  0  0  0
121122  1  0  0  0  0
119123  2  0  0  0  0
123124  1  0  0  0  0
124125  1  0  0  0  0
125126  1  0  0  0  0
126127  1  0  0  0  0
124128  2  0  0  0  0
116129  1  0  0  0  0
129130  2  0  0  0  0
130131  1  0  0  0  0
131132  1  0  0  0  0
132133  2  0  0  0  0
133134  1  0  0  0  0
134135  2  0  0  0  0
135136  1  0  0  0  0
136137  1  0  0  0  0
137138  1  0  0  0  0
138139  1  0  0  0  0
136140  2  0  0  0  0
134141  1  0  0  0  0
141142  1  0  0  0  0
142143  1  0  0  0  0
131144  2  0  0  0  0
144145  1  0  0  0  0
130146  1  0  0  0  0
146147  2  0  0  0  0
147148  1  0  0  0  0
147149  1  0  0  0  0
149150  2  0  0  0  0
150151  1  0  0  0  0
151152  2  0  0  0  0
151153  1  0  0  0  0
153154  1  0  0  0  0
154155  1  0  0  0  0
153156  1  0  0  0  0
156157  2  0  0  0  0
156158  1  0  0  0  0
158159  2  0  0  0  0
159160  1  0  0  0  0
158161  1  0  0  0  0
161162  3  0  0  0  0
 11  2  1  0  0  0  0
 47 15  1  0  0  0  0
 58 51  2  0  0  0  0
 67 59  1  0  0  0  0
 76 68  1  0  0  0  0
107 77  1  0  0  0  0
145113  1  0  0  0  0
159150  1  0  0  0  0
 46 17  1  0  0  0  0
 57 53  2  0  0  0  0
105 79  1  0  0  0  0
144115  1  0  0  0  0
 30 19  1  0  0  0  0
 50 31  1  0  0  0  0
109 54  1  0  0  0  0
128117  1  0  0  0  0
148129  1  0  0  0  0
 42 34  1  0  0  0  0
104 82  1  0  0  0  0
140132  1  0  0  0  0
112 83  1  0  0  0  0
 94 86  1  0  0  0  0
103 95  1  0  0  0  0
  1163  1  0  0  0  0
  6164  1  0  0  0  0
  6165  1  0  0  0  0
  7166  1  0  0  0  0
  7167  1  0  0  0  0
  7168  1  0  0  0  0
 12169  1  0  0  0  0
 12170  1  0  0  0  0
 12171  1  0  0  0  0
 16172  1  0  0  0  0
 20173  1  0  0  0  0
 23174  1  0  0  0  0
 23175  1  0  0  0  0
 24176  1  0  0  0  0
 24177  1  0  0  0  0
 24178  1  0  0  0  0
 25179  1  0  0  0  0
 28180  1  0  0  0  0
 28181  1  0  0  0  0
 29182  1  0  0  0  0
 29183  1  0  0  0  0
 29184  1  0  0  0  0
 30185  1  0  0  0  0
 35186  1  0  0  0  0
 37187  1  0  0  0  0
 40188  1  0  0  0  0
 40189  1  0  0  0  0
 41190  1  0  0  0  0
 41191  1  0  0  0  0
 41192  1  0  0  0  0
 42193  1  0  0  0  0
 44194  1  0  0  0  0
 44195  1  0  0  0  0
 45196  1  0  0  0  0
 45197  1  0  0  0  0
 45198  1  0  0  0  0
 48199  1  0  0  0  0
 58200  1  0  0  0  0
 60201  1  0  0  0  0
 61202  1  0  0  0  0
 64203  1  0  0  0  0
 64204  1  0  0  0  0
 65205  1  0  0  0  0
 65206  1  0  0  0  0
 65207  1  0  0  0  0
 66208  1  0  0  0  0
 67209  1  0  0  0  0
 69210  1  0  0  0  0
 70211  1  0  0  0  0
 73212  1  0  0  0  0
 73213  1  0  0  0  0
 74214  1  0  0  0  0
 74215  1  0  0  0  0
 74216  1  0  0  0  0
 75217  1  0  0  0  0
 76218  1  0  0  0  0
 78219  1  0  0  0  0
 80220  1  0  0  0  0
 81221  1  0  0  0  0
 87222  1  0  0  0  0
 88223  1  0  0  0  0
 91224  1  0  0  0  0
 91225  1  0  0  0  0
 92226  1  0  0  0  0
 92227  1  0  0  0  0
 92228  1  0  0  0  0
 93229  1  0  0  0  0
 94230  1  0  0  0  0
 96231  1  0  0  0  0
 97232  1  0  0  0  0
100233  1  0  0  0  0
100234  1  0  0  0  0
101235  1  0  0  0  0
101236  1  0  0  0  0
101237  1  0  0  0  0
102238  1  0  0  0  0
103239  1  0  0  0  0
106240  1  0  0  0  0
108241  1  0  0  0  0
109242  1  0  0  0  0
110243  1  0  0  0  0
114244  1  0  0  0  0
118245  1  0  0  0  0
121246  1  0  0  0  0
121247  1  0  0  0  0
122248  1  0  0  0  0
122249  1  0  0  0  0
122250  1  0  0  0  0
123251  1  0  0  0  0
126252  1  0  0  0  0
126253  1  0  0  0  0
127254  1  0  0  0  0
127255  1  0  0  0  0
127256  1  0  0  0  0
128257  1  0  0  0  0
133258  1  0  0  0  0
135259  1  0  0  0  0
138260  1  0  0  0  0
138261  1  0  0  0  0
139262  1  0  0  0  0
139263  1  0  0  0  0
139264  1  0  0  0  0
140265  1  0  0  0  0
142266  1  0  0  0  0
142267  1  0  0  0  0
143268  1  0  0  0  0
143269  1  0  0  0  0
143270  1  0  0  0  0
146271  1  0  0  0  0
149272  1  0  0  0  0
154273  1  0  0  0  0
154274  1  0  0  0  0
155275  1  0  0  0  0
155276  1  0  0  0  0
155277  1  0  0  0  0
160278  1  0  0  0  0
160279  1  0  0  0  0
160280  1  0  0  0  0
M  END
