
  xtb     02072209553D
 energy: -404.720529597597 gnorm: 0.002271561299 xtb: 6.4.1 (unknown)
257280  0     0  0            999 V2000
   -5.5522   -9.7116    4.8775 C   0  0  0  0  0  0  0  0  0  0  0  0
   -6.6512  -10.4466    5.1154 C   0  0  0  0  0  0  0  0  0  0  0  0
   -6.5230  -11.8737    4.7471 C   0  0  0  0  0  0  0  0  0  0  0  0
   -5.5650  -12.3125    4.1474 O   0  0  0  0  0  0  0  0  0  0  0  0
   -7.5847  -12.7244    5.0649 N   0  0  0  0  0  0  0  0  0  0  0  0
   -7.6004  -14.0404    4.4316 C   0  0  0  0  0  0  0  0  0  0  0  0
   -8.2888  -13.9828    3.0747 C   0  0  0  0  0  0  0  0  0  0  0  0
   -8.5937  -12.4271    5.9371 C   0  0  0  0  0  0  0  0  0  0  0  0
   -9.5385  -13.1517    6.1274 O   0  0  0  0  0  0  0  0  0  0  0  0
   -8.4000  -11.1139    6.6868 C   0  0  0  0  0  0  0  0  0  0  0  0
   -7.3911  -11.3295    7.6960 C   0  0  0  0  0  0  0  0  0  0  0  0
   -6.5817  -11.5057    8.4830 N   0  0  0  0  0  0  0  0  0  0  0  0
   -7.9553   -9.9986    5.7220 C   0  0  0  0  0  0  0  0  0  0  0  0
   -7.8968   -8.6770    6.4823 C   0  0  0  0  0  0  0  0  0  0  0  0
   -5.3299   -8.2916    5.0294 C   0  0  0  0  0  0  0  0  0  0  0  0
   -4.4716   -7.6690    5.9127 C   0  0  0  0  0  0  0  0  0  0  0  0
   -3.7856   -8.3149    6.9254 N   0  0  0  0  0  0  0  0  0  0  0  0
   -3.3082   -9.6144    6.6718 C   0  0  0  0  0  0  0  0  0  0  0  0
   -2.5505   -9.8538    5.5280 C   0  0  0  0  0  0  0  0  0  0  0  0
   -2.1171  -11.1325    5.2382 C   0  0  0  0  0  0  0  0  0  0  0  0
   -2.4265  -12.1984    6.0743 C   0  0  0  0  0  0  0  0  0  0  0  0
   -2.0013  -13.5885    5.7177 C   0  0  0  0  0  0  0  0  0  0  0  0
   -3.1692  -11.9455    7.2213 C   0  0  0  0  0  0  0  0  0  0  0  0
   -3.6063  -10.6717    7.5245 C   0  0  0  0  0  0  0  0  0  0  0  0
   -3.7909   -7.8088    8.2290 C   0  0  0  0  0  0  0  0  0  0  0  0
   -2.7548   -8.1412    9.1001 C   0  0  0  0  0  0  0  0  0  0  0  0
   -2.7634   -7.6796   10.3991 C   0  0  0  0  0  0  0  0  0  0  0  0
   -3.7890   -6.8662   10.8684 C   0  0  0  0  0  0  0  0  0  0  0  0
   -3.8027   -6.4098   12.2954 C   0  0  0  0  0  0  0  0  0  0  0  0
   -4.8042   -6.5184    9.9882 C   0  0  0  0  0  0  0  0  0  0  0  0
   -4.8139   -6.9832    8.6871 C   0  0  0  0  0  0  0  0  0  0  0  0
   -4.4260   -6.2688    5.6777 C   0  0  0  0  0  0  0  0  0  0  0  0
   -3.5714   -4.9570    6.4041 S   0  0  0  0  0  0  0  0  0  0  0  0
   -4.2360   -3.8407    5.2231 C   0  0  0  0  0  0  0  0  0  0  0  0
   -5.1140   -4.4601    4.3510 C   0  0  0  0  0  0  0  0  0  0  0  0
   -5.8431   -3.7950    3.3770 N   0  0  0  0  0  0  0  0  0  0  0  0
   -6.0647   -4.4009    2.1367 C   0  0  0  0  0  0  0  0  0  0  0  0
   -7.2583   -4.1859    1.4516 C   0  0  0  0  0  0  0  0  0  0  0  0
   -7.4784   -4.7951    0.2329 C   0  0  0  0  0  0  0  0  0  0  0  0
   -6.5293   -5.6381   -0.3325 C   0  0  0  0  0  0  0  0  0  0  0  0
   -6.7855   -6.3244   -1.6398 C   0  0  0  0  0  0  0  0  0  0  0  0
   -5.3393   -5.8443    0.3551 C   0  0  0  0  0  0  0  0  0  0  0  0
   -5.1009   -5.2322    1.5690 C   0  0  0  0  0  0  0  0  0  0  0  0
   -6.3269   -2.5017    3.6386 C   0  0  0  0  0  0  0  0  0  0  0  0
   -6.8777   -2.1924    4.8778 C   0  0  0  0  0  0  0  0  0  0  0  0
   -7.2947   -0.9049    5.1518 C   0  0  0  0  0  0  0  0  0  0  0  0
   -7.1557    0.1093    4.2133 C   0  0  0  0  0  0  0  0  0  0  0  0
   -7.5263    1.5231    4.5407 C   0  0  0  0  0  0  0  0  0  0  0  0
   -6.6309   -0.2146    2.9669 C   0  0  0  0  0  0  0  0  0  0  0  0
   -6.2308   -1.5019    2.6730 C   0  0  0  0  0  0  0  0  0  0  0  0
   -5.2098   -5.8481    4.6192 C   0  0  0  0  0  0  0  0  0  0  0  0
   -6.0520   -7.1688    3.8824 S   0  0  0  0  0  0  0  0  0  0  0  0
   -3.8061   -2.4740    5.0741 C   0  0  0  0  0  0  0  0  0  0  0  0
   -3.9184   -1.3700    5.8854 C   0  0  0  0  0  0  0  0  0  0  0  0
   -4.3550   -1.3539    7.2823 C   0  0  0  0  0  0  0  0  0  0  0  0
   -5.2565   -0.3844    7.7152 C   0  0  0  0  0  0  0  0  0  0  0  0
   -5.6445   -0.3459    9.0400 C   0  0  0  0  0  0  0  0  0  0  0  0
   -5.1298   -1.2569    9.9461 C   0  0  0  0  0  0  0  0  0  0  0  0
   -4.2105   -2.2140    9.5373 C   0  0  0  0  0  0  0  0  0  0  0  0
   -3.5874   -3.1578   10.5241 C   0  0  0  0  0  0  0  0  0  0  0  0
   -2.2676   -2.5910   11.0476 C   0  0  0  0  0  0  0  0  0  0  0  0
   -3.8289   -2.2500    8.2046 C   0  0  0  0  0  0  0  0  0  0  0  0
   -3.5563   -0.1889    5.1939 C   0  0  0  0  0  0  0  0  0  0  0  0
   -3.5430    1.4936    5.6641 S   0  0  0  0  0  0  0  0  0  0  0  0
   -2.9347    1.9052    4.0958 C   0  0  0  0  0  0  0  0  0  0  0  0
   -2.4857    3.0324    3.3873 C   0  0  0  0  0  0  0  0  0  0  0  0
   -2.3213    4.3724    3.7974 C   0  0  0  0  0  0  0  0  0  0  0  0
   -1.6624    5.2899    2.9126 C   0  0  0  0  0  0  0  0  0  0  0  0
   -1.5154    6.4920    3.4469 N   0  0  0  0  0  0  0  0  0  0  0  0
   -2.1607    6.4742    4.9333 S   0  0  0  0  0  0  0  0  0  0  0  0
   -2.6478    4.9284    4.9533 N   0  0  0  0  0  0  0  0  0  0  0  0
   -1.2950    4.8491    1.6236 C   0  0  0  0  0  0  0  0  0  0  0  0
   -0.6949    5.5336    0.5529 C   0  0  0  0  0  0  0  0  0  0  0  0
    0.0188    7.0740    0.2098 S   0  0  0  0  0  0  0  0  0  0  0  0
    0.4239    6.5025   -1.3904 C   0  0  0  0  0  0  0  0  0  0  0  0
    1.1901    7.0673   -2.4345 C   0  0  0  0  0  0  0  0  0  0  0  0
    1.7714    8.4091   -2.3533 C   0  0  0  0  0  0  0  0  0  0  0  0
    2.4858    8.7877   -1.2205 C   0  0  0  0  0  0  0  0  0  0  0  0
    3.0200   10.0587   -1.1349 C   0  0  0  0  0  0  0  0  0  0  0  0
    2.8509   10.9578   -2.1730 C   0  0  0  0  0  0  0  0  0  0  0  0
    2.1279   10.6019   -3.3044 C   0  0  0  0  0  0  0  0  0  0  0  0
    1.9926   11.5567   -4.4544 C   0  0  0  0  0  0  0  0  0  0  0  0
    3.2291   11.4655   -5.3497 C   0  0  0  0  0  0  0  0  0  0  0  0
    1.5834    9.3289   -3.3785 C   0  0  0  0  0  0  0  0  0  0  0  0
    1.3674    6.1692   -3.4649 C   0  0  0  0  0  0  0  0  0  0  0  0
    0.4611    4.6760   -3.2092 S   0  0  0  0  0  0  0  0  0  0  0  0
   -0.0132    5.2041   -1.6372 C   0  0  0  0  0  0  0  0  0  0  0  0
   -0.6455    4.6439   -0.5197 C   0  0  0  0  0  0  0  0  0  0  0  0
   -1.1679    3.4333   -0.1536 N   0  0  0  0  0  0  0  0  0  0  0  0
   -1.5593    3.5247    1.1742 C   0  0  0  0  0  0  0  0  0  0  0  0
   -2.0685    2.5785    2.1049 C   0  0  0  0  0  0  0  0  0  0  0  0
   -2.2553    1.2051    2.0516 N   0  0  0  0  0  0  0  0  0  0  0  0
   -2.7625    0.8046    3.2585 C   0  0  0  0  0  0  0  0  0  0  0  0
   -3.1239   -0.3951    3.8882 C   0  0  0  0  0  0  0  0  0  0  0  0
   -3.1748   -2.0679    3.4745 S   0  0  0  0  0  0  0  0  0  0  0  0
   -1.6690    0.2211    1.1710 C   0  0  0  0  0  0  0  0  0  0  0  0
   -0.1441    0.2923    1.1963 C   0  0  0  0  0  0  0  0  0  0  0  0
   -1.5464    2.4886   -1.1796 C   0  0  0  0  0  0  0  0  0  0  0  0
   -3.0638    2.3673   -1.2971 C   0  0  0  0  0  0  0  0  0  0  0  0
    2.3032    6.1715   -4.5519 C   0  0  0  0  0  0  0  0  0  0  0  0
    3.1963    5.1457   -4.8285 C   0  0  0  0  0  0  0  0  0  0  0  0
    3.3977    4.0041   -4.0689 N   0  0  0  0  0  0  0  0  0  0  0  0
    3.7628    2.8262   -4.7452 C   0  0  0  0  0  0  0  0  0  0  0  0
    4.7957    2.0261   -4.2651 C   0  0  0  0  0  0  0  0  0  0  0  0
    5.1744    0.8968   -4.9602 C   0  0  0  0  0  0  0  0  0  0  0  0
    4.5428    0.5358   -6.1455 C   0  0  0  0  0  0  0  0  0  0  0  0
    4.9689   -0.6944   -6.8875 C   0  0  0  0  0  0  0  0  0  0  0  0
    3.5036    1.3308   -6.6084 C   0  0  0  0  0  0  0  0  0  0  0  0
    3.1107    2.4612   -5.9187 C   0  0  0  0  0  0  0  0  0  0  0  0
    3.2991    4.0021   -2.6742 C   0  0  0  0  0  0  0  0  0  0  0  0
    3.6434    5.1205   -1.9174 C   0  0  0  0  0  0  0  0  0  0  0  0
    3.4466    5.1201   -0.5508 C   0  0  0  0  0  0  0  0  0  0  0  0
    2.9108    4.0179    0.1040 C   0  0  0  0  0  0  0  0  0  0  0  0
    2.6346    4.0615    1.5756 C   0  0  0  0  0  0  0  0  0  0  0  0
    2.6192    2.8885   -0.6508 C   0  0  0  0  0  0  0  0  0  0  0  0
    2.8087    2.8734   -2.0171 C   0  0  0  0  0  0  0  0  0  0  0  0
    3.9391    5.4092   -6.0063 C   0  0  0  0  0  0  0  0  0  0  0  0
    5.1991    4.5617   -6.8255 S   0  0  0  0  0  0  0  0  0  0  0  0
    5.2676    5.8269   -8.0439 C   0  0  0  0  0  0  0  0  0  0  0  0
    4.4044    6.8997   -7.7445 C   0  0  0  0  0  0  0  0  0  0  0  0
    4.3437    8.0733   -8.4676 N   0  0  0  0  0  0  0  0  0  0  0  0
    3.1248    8.7551   -8.5839 C   0  0  0  0  0  0  0  0  0  0  0  0
    3.0821   10.1463   -8.5776 C   0  0  0  0  0  0  0  0  0  0  0  0
    1.8727   10.8040   -8.6883 C   0  0  0  0  0  0  0  0  0  0  0  0
    0.6795   10.1029   -8.7993 C   0  0  0  0  0  0  0  0  0  0  0  0
   -0.6364   10.8123   -8.8954 C   0  0  0  0  0  0  0  0  0  0  0  0
    0.7317    8.7134   -8.8160 C   0  0  0  0  0  0  0  0  0  0  0  0
    1.9334    8.0435   -8.7182 C   0  0  0  0  0  0  0  0  0  0  0  0
    5.5257    8.6473   -8.9775 C   0  0  0  0  0  0  0  0  0  0  0  0
    5.5348    9.2447  -10.2339 C   0  0  0  0  0  0  0  0  0  0  0  0
    6.7133    9.7508  -10.7512 C   0  0  0  0  0  0  0  0  0  0  0  0
    7.9019    9.6721  -10.0382 C   0  0  0  0  0  0  0  0  0  0  0  0
    9.1917   10.1811  -10.6009 C   0  0  0  0  0  0  0  0  0  0  0  0
    7.8762    9.0989   -8.7704 C   0  0  0  0  0  0  0  0  0  0  0  0
    6.7069    8.5982   -8.2399 C   0  0  0  0  0  0  0  0  0  0  0  0
    3.6404    6.6297   -6.5959 C   0  0  0  0  0  0  0  0  0  0  0  0
    2.4381    7.4979   -5.6986 S   0  0  0  0  0  0  0  0  0  0  0  0
    5.9882    5.7503   -9.2500 C   0  0  0  0  0  0  0  0  0  0  0  0
    6.9697    4.9142   -9.6963 C   0  0  0  0  0  0  0  0  0  0  0  0
    7.5461    3.8575   -8.9031 C   0  0  0  0  0  0  0  0  0  0  0  0
    7.1079    3.4769   -7.8286 O   0  0  0  0  0  0  0  0  0  0  0  0
    8.6761    3.1989   -9.4216 N   0  0  0  0  0  0  0  0  0  0  0  0
    9.0867    1.9801   -8.7303 C   0  0  0  0  0  0  0  0  0  0  0  0
    8.1989    0.8050   -9.1192 C   0  0  0  0  0  0  0  0  0  0  0  0
    9.4373    3.6286  -10.4692 C   0  0  0  0  0  0  0  0  0  0  0  0
   10.3853    3.0133  -10.8943 O   0  0  0  0  0  0  0  0  0  0  0  0
    9.0182    4.9752  -11.0597 C   0  0  0  0  0  0  0  0  0  0  0  0
    9.5780    6.0189  -10.2369 C   0  0  0  0  0  0  0  0  0  0  0  0
   10.0104    6.8506   -9.5830 N   0  0  0  0  0  0  0  0  0  0  0  0
    7.4904    5.0922  -11.0998 C   0  0  0  0  0  0  0  0  0  0  0  0
    6.8934    4.0483  -12.0480 C   0  0  0  0  0  0  0  0  0  0  0  0
   -4.7015  -10.2767    4.5036 H   0  0  0  0  0  0  0  0  0  0  0  0
   -6.5622  -14.3578    4.3212 H   0  0  0  0  0  0  0  0  0  0  0  0
   -8.1312  -14.7188    5.1014 H   0  0  0  0  0  0  0  0  0  0  0  0
   -7.7631  -13.2953    2.4156 H   0  0  0  0  0  0  0  0  0  0  0  0
   -9.3189  -13.6525    3.1881 H   0  0  0  0  0  0  0  0  0  0  0  0
   -8.2872  -14.9703    2.6222 H   0  0  0  0  0  0  0  0  0  0  0  0
   -9.3446  -10.8631    7.1815 H   0  0  0  0  0  0  0  0  0  0  0  0
   -8.7101   -9.9199    4.9269 H   0  0  0  0  0  0  0  0  0  0  0  0
   -8.8358   -8.5159    7.0095 H   0  0  0  0  0  0  0  0  0  0  0  0
   -7.7472   -7.8433    5.8048 H   0  0  0  0  0  0  0  0  0  0  0  0
   -7.0909   -8.6958    7.2128 H   0  0  0  0  0  0  0  0  0  0  0  0
   -2.3104   -9.0309    4.8693 H   0  0  0  0  0  0  0  0  0  0  0  0
   -1.5370  -11.3085    4.3440 H   0  0  0  0  0  0  0  0  0  0  0  0
   -0.9999  -13.5920    5.2908 H   0  0  0  0  0  0  0  0  0  0  0  0
   -2.0188  -14.2389    6.5893 H   0  0  0  0  0  0  0  0  0  0  0  0
   -2.6863  -13.9948    4.9726 H   0  0  0  0  0  0  0  0  0  0  0  0
   -3.4273  -12.7593    7.8825 H   0  0  0  0  0  0  0  0  0  0  0  0
   -4.1994  -10.4971    8.4087 H   0  0  0  0  0  0  0  0  0  0  0  0
   -1.9505   -8.7709    8.7505 H   0  0  0  0  0  0  0  0  0  0  0  0
   -1.9578   -7.9548   11.0644 H   0  0  0  0  0  0  0  0  0  0  0  0
   -4.4873   -5.5780   12.4329 H   0  0  0  0  0  0  0  0  0  0  0  0
   -4.1254   -7.2256   12.9431 H   0  0  0  0  0  0  0  0  0  0  0  0
   -2.8084   -6.1058   12.6136 H   0  0  0  0  0  0  0  0  0  0  0  0
   -5.6114   -5.8840   10.3255 H   0  0  0  0  0  0  0  0  0  0  0  0
   -5.6292   -6.7162    8.0307 H   0  0  0  0  0  0  0  0  0  0  0  0
   -8.0102   -3.5415    1.8831 H   0  0  0  0  0  0  0  0  0  0  0  0
   -8.4109   -4.6193   -0.2844 H   0  0  0  0  0  0  0  0  0  0  0  0
   -7.5589   -5.8094   -2.2045 H   0  0  0  0  0  0  0  0  0  0  0  0
   -5.8787   -6.3662   -2.2398 H   0  0  0  0  0  0  0  0  0  0  0  0
   -7.1178   -7.3483   -1.4648 H   0  0  0  0  0  0  0  0  0  0  0  0
   -4.5832   -6.4879   -0.0712 H   0  0  0  0  0  0  0  0  0  0  0  0
   -4.1605   -5.3840    2.0787 H   0  0  0  0  0  0  0  0  0  0  0  0
   -6.9682   -2.9627    5.6299 H   0  0  0  0  0  0  0  0  0  0  0  0
   -7.7297   -0.6886    6.1165 H   0  0  0  0  0  0  0  0  0  0  0  0
   -8.2056    1.5612    5.3888 H   0  0  0  0  0  0  0  0  0  0  0  0
   -6.6305    2.0912    4.7965 H   0  0  0  0  0  0  0  0  0  0  0  0
   -7.9962    2.0098    3.6887 H   0  0  0  0  0  0  0  0  0  0  0  0
   -6.5215    0.5585    2.2196 H   0  0  0  0  0  0  0  0  0  0  0  0
   -5.8170   -1.7395    1.7037 H   0  0  0  0  0  0  0  0  0  0  0  0
   -5.6550    0.3274    7.0099 H   0  0  0  0  0  0  0  0  0  0  0  0
   -6.3499    0.4028    9.3702 H   0  0  0  0  0  0  0  0  0  0  0  0
   -5.4346   -1.2172   10.9823 H   0  0  0  0  0  0  0  0  0  0  0  0
   -4.2679   -3.3126   11.3632 H   0  0  0  0  0  0  0  0  0  0  0  0
   -3.4018   -4.1222   10.0478 H   0  0  0  0  0  0  0  0  0  0  0  0
   -1.5701   -2.4414   10.2266 H   0  0  0  0  0  0  0  0  0  0  0  0
   -2.4323   -1.6333   11.5361 H   0  0  0  0  0  0  0  0  0  0  0  0
   -1.8194   -3.2756   11.7640 H   0  0  0  0  0  0  0  0  0  0  0  0
   -3.0873   -2.9676    7.8867 H   0  0  0  0  0  0  0  0  0  0  0  0
    2.6240    8.0829   -0.4157 H   0  0  0  0  0  0  0  0  0  0  0  0
    3.5733   10.3492   -0.2538 H   0  0  0  0  0  0  0  0  0  0  0  0
    3.2756   11.9490   -2.1018 H   0  0  0  0  0  0  0  0  0  0  0  0
    1.1068   11.3109   -5.0427 H   0  0  0  0  0  0  0  0  0  0  0  0
    1.8889   12.5779   -4.0813 H   0  0  0  0  0  0  0  0  0  0  0  0
    3.3258   10.4583   -5.7488 H   0  0  0  0  0  0  0  0  0  0  0  0
    3.1495   12.1613   -6.1810 H   0  0  0  0  0  0  0  0  0  0  0  0
    4.1271   11.7007   -4.7824 H   0  0  0  0  0  0  0  0  0  0  0  0
    0.9824    9.0557   -4.2339 H   0  0  0  0  0  0  0  0  0  0  0  0
   -1.9921   -0.7562    1.5386 H   0  0  0  0  0  0  0  0  0  0  0  0
   -2.0600    0.3278    0.1590 H   0  0  0  0  0  0  0  0  0  0  0  0
    0.2016    1.2872    0.9249 H   0  0  0  0  0  0  0  0  0  0  0  0
    0.2756   -0.4321    0.5031 H   0  0  0  0  0  0  0  0  0  0  0  0
    0.2199    0.0673    2.1963 H   0  0  0  0  0  0  0  0  0  0  0  0
   -1.0774    1.5192   -1.0078 H   0  0  0  0  0  0  0  0  0  0  0  0
   -1.1408    2.8755   -2.1177 H   0  0  0  0  0  0  0  0  0  0  0  0
   -3.4921    3.3299   -1.5670 H   0  0  0  0  0  0  0  0  0  0  0  0
   -3.5073    2.0521   -0.3554 H   0  0  0  0  0  0  0  0  0  0  0  0
   -3.3207    1.6451   -2.0675 H   0  0  0  0  0  0  0  0  0  0  0  0
    5.3044    2.3064   -3.3545 H   0  0  0  0  0  0  0  0  0  0  0  0
    5.9869    0.2908   -4.5861 H   0  0  0  0  0  0  0  0  0  0  0  0
    4.6050   -0.6770   -7.9119 H   0  0  0  0  0  0  0  0  0  0  0  0
    4.5712   -1.5852   -6.3998 H   0  0  0  0  0  0  0  0  0  0  0  0
    6.0536   -0.7773   -6.8999 H   0  0  0  0  0  0  0  0  0  0  0  0
    2.9924    1.0642   -7.5226 H   0  0  0  0  0  0  0  0  0  0  0  0
    2.2992    3.0718   -6.2881 H   0  0  0  0  0  0  0  0  0  0  0  0
    4.0607    5.9899   -2.4039 H   0  0  0  0  0  0  0  0  0  0  0  0
    3.7162    5.9957    0.0216 H   0  0  0  0  0  0  0  0  0  0  0  0
    2.5754    3.0585    1.9924 H   0  0  0  0  0  0  0  0  0  0  0  0
    1.6834    4.5629    1.7627 H   0  0  0  0  0  0  0  0  0  0  0  0
    3.4101    4.6163    2.0991 H   0  0  0  0  0  0  0  0  0  0  0  0
    2.2266    2.0075   -0.1631 H   0  0  0  0  0  0  0  0  0  0  0  0
    2.5528    1.9964   -2.5931 H   0  0  0  0  0  0  0  0  0  0  0  0
    3.9995   10.7072   -8.4783 H   0  0  0  0  0  0  0  0  0  0  0  0
    1.8575   11.8843   -8.6791 H   0  0  0  0  0  0  0  0  0  0  0  0
   -0.4949   11.8869   -8.9771 H   0  0  0  0  0  0  0  0  0  0  0  0
   -1.1961   10.4662   -9.7631 H   0  0  0  0  0  0  0  0  0  0  0  0
   -1.2390   10.6097   -8.0101 H   0  0  0  0  0  0  0  0  0  0  0  0
   -0.1841    8.1485   -8.9142 H   0  0  0  0  0  0  0  0  0  0  0  0
    1.9577    6.9642   -8.7515 H   0  0  0  0  0  0  0  0  0  0  0  0
    4.6198    9.2962  -10.8066 H   0  0  0  0  0  0  0  0  0  0  0  0
    6.7066   10.2012  -11.7336 H   0  0  0  0  0  0  0  0  0  0  0  0
    9.9536    9.4063  -10.5330 H   0  0  0  0  0  0  0  0  0  0  0  0
    9.0773   10.4790  -11.6402 H   0  0  0  0  0  0  0  0  0  0  0  0
    9.5402   11.0414  -10.0303 H   0  0  0  0  0  0  0  0  0  0  0  0
    8.7894    9.0388   -8.1993 H   0  0  0  0  0  0  0  0  0  0  0  0
    6.7022    8.1526   -7.2565 H   0  0  0  0  0  0  0  0  0  0  0  0
    5.6952    6.5151   -9.9618 H   0  0  0  0  0  0  0  0  0  0  0  0
    9.0109    2.1674   -7.6571 H   0  0  0  0  0  0  0  0  0  0  0  0
   10.1249    1.7879   -9.0047 H   0  0  0  0  0  0  0  0  0  0  0  0
    7.1673    1.0088   -8.8411 H   0  0  0  0  0  0  0  0  0  0  0  0
    8.5314   -0.0893   -8.5996 H   0  0  0  0  0  0  0  0  0  0  0  0
    8.2546    0.6242  -10.1908 H   0  0  0  0  0  0  0  0  0  0  0  0
    9.4574    5.0525  -12.0608 H   0  0  0  0  0  0  0  0  0  0  0  0
    7.2221    6.0915  -11.4613 H   0  0  0  0  0  0  0  0  0  0  0  0
    7.1402    3.0401  -11.7222 H   0  0  0  0  0  0  0  0  0  0  0  0
    5.8106    4.1470  -12.0669 H   0  0  0  0  0  0  0  0  0  0  0  0
    7.2728    4.1878  -13.0581 H   0  0  0  0  0  0  0  0  0  0  0  0
  1  2  2  0  0  0  0
  2  3  1  0  0  0  0
  3  4  2  0  0  0  0
  3  5  1  0  0  0  0
  5  6  1  0  0  0  0
  6  7  1  0  0  0  0
  5  8  1  0  0  0  0
  8  9  2  0  0  0  0
  8 10  1  0  0  0  0
 10 11  1  0  0  0  0
 11 12  3  0  0  0  0
 10 13  1  0  0  0  0
 13 14  1  0  0  0  0
  1 15  1  0  0  0  0
 15 16  2  0  0  0  0
 16 17  1  0  0  0  0
 17 18  1  0  0  0  0
 18 19  2  0  0  0  0
 19 20  1  0  0  0  0
 20 21  2  0  0  0  0
 21 22  1  0  0  0  0
 21 23  1  0  0  0  0
 23 24  2  0  0  0  0
 17 25  1  0  0  0  0
 25 26  2  0  0  0  0
 26 27  1  0  0  0  0
 27 28  2  0  0  0  0
 28 29  1  0  0  0  0
 28 30  1  0  0  0  0
 30 31  2  0  0  0  0
 16 32  1  0  0  0  0
 32 33  1  0  0  0  0
 33 34  1  0  0  0  0
 34 35  2  0  0  0  0
 35 36  1  0  0  0  0
 36 37  1  0  0  0  0
 37 38  2  0  0  0  0
 38 39  1  0  0  0  0
 39 40  2  0  0  0  0
 40 41  1  0  0  0  0
 40 42  1  0  0  0  0
 42 43  2  0  0  0  0
 36 44  1  0  0  0  0
 44 45  2  0  0  0  0
 45 46  1  0  0  0  0
 46 47  2  0  0  0  0
 47 48  1  0  0  0  0
 47 49  1  0  0  0  0
 49 50  2  0  0  0  0
 35 51  1  0  0  0  0
 51 52  1  0  0  0  0
 34 53  1  0  0  0  0
 53 54  2  0  0  0  0
 54 55  1  0  0  0  0
 55 56  2  0  0  0  0
 56 57  1  0  0  0  0
 57 58  2  0  0  0  0
 58 59  1  0  0  0  0
 59 60  1  0  0  0  0
 60 61  1  0  0  0  0
 59 62  2  0  0  0  0
 54 63  1  0  0  0  0
 63 64  1  0  0  0  0
 64 65  1  0  0  0  0
 65 66  1  0  0  0  0
 66 67  1  0  0  0  0
 67 68  1  0  0  0  0
 68 69  2  0  0  0  0
 69 70  1  0  0  0  0
 70 71  1  0  0  0  0
 68 72  1  0  0  0  0
 72 73  1  0  0  0  0
 73 74  1  0  0  0  0
 74 75  1  0  0  0  0
 75 76  1  0  0  0  0
 76 77  1  0  0  0  0
 77 78  2  0  0  0  0
 78 79  1  0  0  0  0
 79 80  2  0  0  0  0
 80 81  1  0  0  0  0
 81 82  1  0  0  0  0
 82 83  1  0  0  0  0
 81 84  2  0  0  0  0
 76 85  2  0  0  0  0
 85 86  1  0  0  0  0
 86 87  1  0  0  0  0
 87 88  1  0  0  0  0
 88 89  1  0  0  0  0
 89 90  1  0  0  0  0
 90 91  1  0  0  0  0
 91 92  1  0  0  0  0
 92 93  1  0  0  0  0
 93 94  1  0  0  0  0
 94 95  1  0  0  0  0
 92 96  1  0  0  0  0
 96 97  1  0  0  0  0
 89 98  1  0  0  0  0
 98 99  1  0  0  0  0
 85100  1  0  0  0  0
100101  2  0  0  0  0
101102  1  0  0  0  0
102103  1  0  0  0  0
103104  2  0  0  0  0
104105  1  0  0  0  0
105106  2  0  0  0  0
106107  1  0  0  0  0
106108  1  0  0  0  0
108109  2  0  0  0  0
102110  1  0  0  0  0
110111  2  0  0  0  0
111112  1  0  0  0  0
112113  2  0  0  0  0
113114  1  0  0  0  0
113115  1  0  0  0  0
115116  2  0  0  0  0
101117  1  0  0  0  0
117118  1  0  0  0  0
118119  1  0  0  0  0
119120  2  0  0  0  0
120121  1  0  0  0  0
121122  1  0  0  0  0
122123  2  0  0  0  0
123124  1  0  0  0  0
124125  2  0  0  0  0
125126  1  0  0  0  0
125127  1  0  0  0  0
127128  2  0  0  0  0
121129  1  0  0  0  0
129130  2  0  0  0  0
130131  1  0  0  0  0
131132  2  0  0  0  0
132133  1  0  0  0  0
132134  1  0  0  0  0
134135  2  0  0  0  0
120136  1  0  0  0  0
136137  1  0  0  0  0
119138  1  0  0  0  0
138139  2  0  0  0  0
139140  1  0  0  0  0
140141  2  0  0  0  0
140142  1  0  0  0  0
142143  1  0  0  0  0
143144  1  0  0  0  0
142145  1  0  0  0  0
145146  2  0  0  0  0
145147  1  0  0  0  0
147148  1  0  0  0  0
148149  3  0  0  0  0
147150  1  0  0  0  0
150151  1  0  0  0  0
 13  2  1  0  0  0  0
 52 15  1  0  0  0  0
 95 53  1  0  0  0  0
137100  1  0  0  0  0
150139  1  0  0  0  0
 24 18  1  0  0  0  0
 31 25  1  0  0  0  0
 51 32  2  0  0  0  0
 62 55  1  0  0  0  0
 94 63  2  0  0  0  0
109103  1  0  0  0  0
116110  1  0  0  0  0
136117  2  0  0  0  0
 43 37  1  0  0  0  0
 50 44  1  0  0  0  0
 93 65  2  0  0  0  0
128122  1  0  0  0  0
135129  1  0  0  0  0
 91 66  2  0  0  0  0
 71 67  2  0  0  0  0
 90 72  2  0  0  0  0
 88 73  2  0  0  0  0
 87 75  2  0  0  0  0
 84 77  1  0  0  0  0
  1152  1  0  0  0  0
  6153  1  0  0  0  0
  6154  1  0  0  0  0
  7155  1  0  0  0  0
  7156  1  0  0  0  0
  7157  1  0  0  0  0
 10158  1  0  0  0  0
 13159  1  0  0  0  0
 14160  1  0  0  0  0
 14161  1  0  0  0  0
 14162  1  0  0  0  0
 19163  1  0  0  0  0
 20164  1  0  0  0  0
 22165  1  0  0  0  0
 22166  1  0  0  0  0
 22167  1  0  0  0  0
 23168  1  0  0  0  0
 24169  1  0  0  0  0
 26170  1  0  0  0  0
 27171  1  0  0  0  0
 29172  1  0  0  0  0
 29173  1  0  0  0  0
 29174  1  0  0  0  0
 30175  1  0  0  0  0
 31176  1  0  0  0  0
 38177  1  0  0  0  0
 39178  1  0  0  0  0
 41179  1  0  0  0  0
 41180  1  0  0  0  0
 41181  1  0  0  0  0
 42182  1  0  0  0  0
 43183  1  0  0  0  0
 45184  1  0  0  0  0
 46185  1  0  0  0  0
 48186  1  0  0  0  0
 48187  1  0  0  0  0
 48188  1  0  0  0  0
 49189  1  0  0  0  0
 50190  1  0  0  0  0
 56191  1  0  0  0  0
 57192  1  0  0  0  0
 58193  1  0  0  0  0
 60194  1  0  0  0  0
 60195  1  0  0  0  0
 61196  1  0  0  0  0
 61197  1  0  0  0  0
 61198  1  0  0  0  0
 62199  1  0  0  0  0
 78200  1  0  0  0  0
 79201  1  0  0  0  0
 80202  1  0  0  0  0
 82203  1  0  0  0  0
 82204  1  0  0  0  0
 83205  1  0  0  0  0
 83206  1  0  0  0  0
 83207  1  0  0  0  0
 84208  1  0  0  0  0
 96209  1  0  0  0  0
 96210  1  0  0  0  0
 97211  1  0  0  0  0
 97212  1  0  0  0  0
 97213  1  0  0  0  0
 98214  1  0  0  0  0
 98215  1  0  0  0  0
 99216  1  0  0  0  0
 99217  1  0  0  0  0
 99218  1  0  0  0  0
104219  1  0  0  0  0
105220  1  0  0  0  0
107221  1  0  0  0  0
107222  1  0  0  0  0
107223  1  0  0  0  0
108224  1  0  0  0  0
109225  1  0  0  0  0
111226  1  0  0  0  0
112227  1  0  0  0  0
114228  1  0  0  0  0
114229  1  0  0  0  0
114230  1  0  0  0  0
115231  1  0  0  0  0
116232  1  0  0  0  0
123233  1  0  0  0  0
124234  1  0  0  0  0
126235  1  0  0  0  0
126236  1  0  0  0  0
126237  1  0  0  0  0
127238  1  0  0  0  0
128239  1  0  0  0  0
130240  1  0  0  0  0
131241  1  0  0  0  0
133242  1  0  0  0  0
133243  1  0  0  0  0
133244  1  0  0  0  0
134245  1  0  0  0  0
135246  1  0  0  0  0
138247  1  0  0  0  0
143248  1  0  0  0  0
143249  1  0  0  0  0
144250  1  0  0  0  0
144251  1  0  0  0  0
144252  1  0  0  0  0
147253  1  0  0  0  0
150254  1  0  0  0  0
151255  1  0  0  0  0
151256  1  0  0  0  0
151257  1  0  0  0  0
M  END
