116

C          2.06590        9.09820       -0.67220
C          3.39510        9.34230       -0.86200
C          4.37670        8.28720       -0.82880
O          4.13100        7.13260       -0.49000
N          5.69260        8.60390       -1.16820
C          6.71270        7.58980       -0.90820
C          6.84890        6.62000       -2.07430
C          6.07740        9.69950       -1.89930
O          7.21620        9.86620       -2.25740
C          4.94250       10.66580       -2.23570
C          5.49780       11.96570       -2.53710
N          5.91660       13.00530       -2.75570
C          3.93380       10.74020       -1.07300
C          2.87880       11.80880       -1.34560
C          1.32550        7.91780       -0.43540
C         -0.06520        7.96590       -0.35970
C         -0.72440        6.76840       -0.11970
C          0.10410        5.66680        0.01820
Se         1.90880        6.14540       -0.16920
C         -0.22550        4.30200        0.27700
C         -1.28410        3.73520        0.97000
C         -2.44720        4.54380        1.46000
C         -3.55240        4.61070        0.40070
C         -1.10940        2.33410        1.07710
C          0.03270        1.86750        0.41820
S          0.96030        3.12720       -0.28010
C          0.03680        0.47030        0.48460
C          0.82500       -0.49270       -0.17370
N          1.89360       -0.40370       -0.96810
N          2.11090       -1.63920       -1.34640
C          3.17000       -1.97220       -2.25400
C          2.69330       -1.86040       -3.69930
N          1.28680       -2.54830       -0.88770
C          0.43890       -1.85770       -0.12210
C         -0.64060       -2.23800        0.69710
C         -1.20370       -3.48980        0.98100
S         -1.06110       -5.11600        0.46770
C         -2.35230       -5.57910        1.57400
C         -2.85240       -4.51070        2.30930
C         -4.00250       -4.63610        3.26270
C         -3.54540       -4.98140        4.68440
C         -2.18190       -3.31820        1.96210
N         -2.26900       -1.97100        2.28830
C         -2.53520       -1.61690        3.67020
C         -1.24600       -1.58580        4.49120
C         -1.34600       -1.28810        1.48160
C         -1.08910        0.09410        1.26990
N         -1.77360        1.25140        1.61180
C         -3.02760        1.36910        2.30860
C         -2.83300        1.78840        3.76950
C         -2.76250       -6.94200        1.51080
C         -3.48020       -7.71520        2.40750
C         -3.69800       -9.03510        2.02290
C         -3.21700       -9.40040        0.77600
Se        -2.31340       -7.94480       -0.01470
C         -3.26940      -10.71160        0.25090
C         -3.06590      -11.13960       -1.02570
C         -2.68980      -12.56440       -1.27490
O         -2.75770      -13.48240       -0.48850
C         -2.18970      -12.54980       -2.64540
S         -1.47210      -13.67420       -3.71770
C         -1.37720      -12.45430       -4.96080
C         -0.79570      -12.79290       -6.28390
C         -1.88580      -11.25150       -4.55680
C         -2.34700      -11.29940       -3.22910
C         -3.02380      -10.42780       -2.28730
C         -3.73510       -9.30750       -2.64140
C         -4.67010       -8.67590       -1.79790
N         -5.48560       -8.17290       -1.16400
C         -3.67600       -8.77130       -3.94240
N         -3.62670       -8.31680       -4.99530
H          1.41920        9.96710       -0.71460
H          7.65320        8.11830       -0.74150
H          6.41510        7.05580       -0.00470
H          7.61940        5.88810       -1.85000
H          5.90880        6.09950       -2.24000
H          7.13020        7.15640       -2.97770
H          4.43810       10.29380       -3.13870
H          4.49100       11.03280       -0.17070
H          3.36730       12.75900       -1.55080
H          2.26950       11.54440       -2.20780
H          2.23580       11.94650       -0.48000
H         -0.60220        8.89200       -0.49490
H         -1.79830        6.72000       -0.09110
H         -2.85770        4.12020        2.37480
H         -2.10330        5.55220        1.69580
H         -3.93210        3.61660        0.17240
H         -3.17230        5.03490       -0.52550
H         -4.37880        5.22360        0.75430
H          3.99170       -1.27760       -2.06880
H          3.48150       -2.99470       -2.03200
H          2.36930       -0.84360       -3.90730
H          1.86090       -2.53830       -3.87200
H          3.50240       -2.11740       -4.37690
H         -4.57180       -3.70400        3.27080
H         -4.67230       -5.41660        2.89770
H         -2.95970       -5.89750        4.68740
H         -2.92070       -4.19610        5.10370
H         -4.40860       -5.11590        5.33260
H         -3.04360       -0.66130        3.73800
H         -3.20620       -2.36990        4.07510
H         -0.75270       -2.55500        4.45520
H         -0.55790       -0.84140        4.09550
H         -1.46790       -1.34490        5.52820
H         -3.55970        0.41990        2.22490
H         -3.63470        2.12020        1.79690
H         -3.78880        1.79580        4.28790
H         -2.15140        1.11980        4.28770
H         -2.40200        2.78480        3.82420
H         -3.81860       -7.35130        3.35950
H         -4.23580       -9.73430        2.64210
H         -3.41090      -11.50380        0.98140
H         -1.34100      -13.61710       -6.74230
H          0.24380      -13.10200       -6.17830
H         -0.84180      -11.92990       -6.94310
H         -1.91560      -10.38000       -5.18470
