257

C         -5.55220       -9.71160        4.87750
C         -6.65120      -10.44660        5.11540
C         -6.52300      -11.87370        4.74710
O         -5.56500      -12.31250        4.14740
N         -7.58470      -12.72440        5.06490
C         -7.60040      -14.04040        4.43160
C         -8.28880      -13.98280        3.07470
C         -8.59370      -12.42710        5.93710
O         -9.53850      -13.15170        6.12740
C         -8.40000      -11.11390        6.68680
C         -7.39110      -11.32950        7.69600
N         -6.58170      -11.50570        8.48300
C         -7.95530       -9.99860        5.72200
C         -7.89680       -8.67700        6.48230
C         -5.32990       -8.29160        5.02940
C         -4.47160       -7.66900        5.91270
N         -3.78560       -8.31490        6.92540
C         -3.30820       -9.61440        6.67180
C         -2.55050       -9.85380        5.52800
C         -2.11710      -11.13250        5.23820
C         -2.42650      -12.19840        6.07430
C         -2.00130      -13.58850        5.71770
C         -3.16920      -11.94550        7.22130
C         -3.60630      -10.67170        7.52450
C         -3.79090       -7.80880        8.22900
C         -2.75480       -8.14120        9.10010
C         -2.76340       -7.67960       10.39910
C         -3.78900       -6.86620       10.86840
C         -3.80270       -6.40980       12.29540
C         -4.80420       -6.51840        9.98820
C         -4.81390       -6.98320        8.68710
C         -4.42600       -6.26880        5.67770
S         -3.57140       -4.95700        6.40410
C         -4.23600       -3.84070        5.22310
C         -5.11400       -4.46010        4.35100
N         -5.84310       -3.79500        3.37700
C         -6.06470       -4.40090        2.13670
C         -7.25830       -4.18590        1.45160
C         -7.47840       -4.79510        0.23290
C         -6.52930       -5.63810       -0.33250
C         -6.78550       -6.32440       -1.63980
C         -5.33930       -5.84430        0.35510
C         -5.10090       -5.23220        1.56900
C         -6.32690       -2.50170        3.63860
C         -6.87770       -2.19240        4.87780
C         -7.29470       -0.90490        5.15180
C         -7.15570        0.10930        4.21330
C         -7.52630        1.52310        4.54070
C         -6.63090       -0.21460        2.96690
C         -6.23080       -1.50190        2.67300
C         -5.20980       -5.84810        4.61920
S         -6.05200       -7.16880        3.88240
C         -3.80610       -2.47400        5.07410
C         -3.91840       -1.37000        5.88540
C         -4.35500       -1.35390        7.28230
C         -5.25650       -0.38440        7.71520
C         -5.64450       -0.34590        9.04000
C         -5.12980       -1.25690        9.94610
C         -4.21050       -2.21400        9.53730
C         -3.58740       -3.15780       10.52410
C         -2.26760       -2.59100       11.04760
C         -3.82890       -2.25000        8.20460
C         -3.55630       -0.18890        5.19390
S         -3.54300        1.49360        5.66410
C         -2.93470        1.90520        4.09580
C         -2.48570        3.03240        3.38730
C         -2.32130        4.37240        3.79740
C         -1.66240        5.28990        2.91260
N         -1.51540        6.49200        3.44690
S         -2.16070        6.47420        4.93330
N         -2.64780        4.92840        4.95330
C         -1.29500        4.84910        1.62360
C         -0.69490        5.53360        0.55290
S          0.01880        7.07400        0.20980
C          0.42390        6.50250       -1.39040
C          1.19010        7.06730       -2.43450
C          1.77140        8.40910       -2.35330
C          2.48580        8.78770       -1.22050
C          3.02000       10.05870       -1.13490
C          2.85090       10.95780       -2.17300
C          2.12790       10.60190       -3.30440
C          1.99260       11.55670       -4.45440
C          3.22910       11.46550       -5.34970
C          1.58340        9.32890       -3.37850
C          1.36740        6.16920       -3.46490
S          0.46110        4.67600       -3.20920
C         -0.01320        5.20410       -1.63720
C         -0.64550        4.64390       -0.51970
N         -1.16790        3.43330       -0.15360
C         -1.55930        3.52470        1.17420
C         -2.06850        2.57850        2.10490
N         -2.25530        1.20510        2.05160
C         -2.76250        0.80460        3.25850
C         -3.12390       -0.39510        3.88820
S         -3.17480       -2.06790        3.47450
C         -1.66900        0.22110        1.17100
C         -0.14410        0.29230        1.19630
C         -1.54640        2.48860       -1.17960
C         -3.06380        2.36730       -1.29710
C          2.30320        6.17150       -4.55190
C          3.19630        5.14570       -4.82850
N          3.39770        4.00410       -4.06890
C          3.76280        2.82620       -4.74520
C          4.79570        2.02610       -4.26510
C          5.17440        0.89680       -4.96020
C          4.54280        0.53580       -6.14550
C          4.96890       -0.69440       -6.88750
C          3.50360        1.33080       -6.60840
C          3.11070        2.46120       -5.91870
C          3.29910        4.00210       -2.67420
C          3.64340        5.12050       -1.91740
C          3.44660        5.12010       -0.55080
C          2.91080        4.01790        0.10400
C          2.63460        4.06150        1.57560
C          2.61920        2.88850       -0.65080
C          2.80870        2.87340       -2.01710
C          3.93910        5.40920       -6.00630
S          5.19910        4.56170       -6.82550
C          5.26760        5.82690       -8.04390
C          4.40440        6.89970       -7.74450
N          4.34370        8.07330       -8.46760
C          3.12480        8.75510       -8.58390
C          3.08210       10.14630       -8.57760
C          1.87270       10.80400       -8.68830
C          0.67950       10.10290       -8.79930
C         -0.63640       10.81230       -8.89540
C          0.73170        8.71340       -8.81600
C          1.93340        8.04350       -8.71820
C          5.52570        8.64730       -8.97750
C          5.53480        9.24470      -10.23390
C          6.71330        9.75080      -10.75120
C          7.90190        9.67210      -10.03820
C          9.19170       10.18110      -10.60090
C          7.87620        9.09890       -8.77040
C          6.70690        8.59820       -8.23990
C          3.64040        6.62970       -6.59590
S          2.43810        7.49790       -5.69860
C          5.98820        5.75030       -9.25000
C          6.96970        4.91420       -9.69630
C          7.54610        3.85750       -8.90310
O          7.10790        3.47690       -7.82860
N          8.67610        3.19890       -9.42160
C          9.08670        1.98010       -8.73030
C          8.19890        0.80500       -9.11920
C          9.43730        3.62860      -10.46920
O         10.38530        3.01330      -10.89430
C          9.01820        4.97520      -11.05970
C          9.57800        6.01890      -10.23690
N         10.01040        6.85060       -9.58300
C          7.49040        5.09220      -11.09980
C          6.89340        4.04830      -12.04800
H         -4.70150      -10.27670        4.50360
H         -6.56220      -14.35780        4.32120
H         -8.13120      -14.71880        5.10140
H         -7.76310      -13.29530        2.41560
H         -9.31890      -13.65250        3.18810
H         -8.28720      -14.97030        2.62220
H         -9.34460      -10.86310        7.18150
H         -8.71010       -9.91990        4.92690
H         -8.83580       -8.51590        7.00950
H         -7.74720       -7.84330        5.80480
H         -7.09090       -8.69580        7.21280
H         -2.31040       -9.03090        4.86930
H         -1.53700      -11.30850        4.34400
H         -0.99990      -13.59200        5.29080
H         -2.01880      -14.23890        6.58930
H         -2.68630      -13.99480        4.97260
H         -3.42730      -12.75930        7.88250
H         -4.19940      -10.49710        8.40870
H         -1.95050       -8.77090        8.75050
H         -1.95780       -7.95480       11.06440
H         -4.48730       -5.57800       12.43290
H         -4.12540       -7.22560       12.94310
H         -2.80840       -6.10580       12.61360
H         -5.61140       -5.88400       10.32550
H         -5.62920       -6.71620        8.03070
H         -8.01020       -3.54150        1.88310
H         -8.41090       -4.61930       -0.28440
H         -7.55890       -5.80940       -2.20450
H         -5.87870       -6.36620       -2.23980
H         -7.11780       -7.34830       -1.46480
H         -4.58320       -6.48790       -0.07120
H         -4.16050       -5.38400        2.07870
H         -6.96820       -2.96270        5.62990
H         -7.72970       -0.68860        6.11650
H         -8.20560        1.56120        5.38880
H         -6.63050        2.09120        4.79650
H         -7.99620        2.00980        3.68870
H         -6.52150        0.55850        2.21960
H         -5.81700       -1.73950        1.70370
H         -5.65500        0.32740        7.00990
H         -6.34990        0.40280        9.37020
H         -5.43460       -1.21720       10.98230
H         -4.26790       -3.31260       11.36320
H         -3.40180       -4.12220       10.04780
H         -1.57010       -2.44140       10.22660
H         -2.43230       -1.63330       11.53610
H         -1.81940       -3.27560       11.76400
H         -3.08730       -2.96760        7.88670
H          2.62400        8.08290       -0.41570
H          3.57330       10.34920       -0.25380
H          3.27560       11.94900       -2.10180
H          1.10680       11.31090       -5.04270
H          1.88890       12.57790       -4.08130
H          3.32580       10.45830       -5.74880
H          3.14950       12.16130       -6.18100
H          4.12710       11.70070       -4.78240
H          0.98240        9.05570       -4.23390
H         -1.99210       -0.75620        1.53860
H         -2.06000        0.32780        0.15900
H          0.20160        1.28720        0.92490
H          0.27560       -0.43210        0.50310
H          0.21990        0.06730        2.19630
H         -1.07740        1.51920       -1.00780
H         -1.14080        2.87550       -2.11770
H         -3.49210        3.32990       -1.56700
H         -3.50730        2.05210       -0.35540
H         -3.32070        1.64510       -2.06750
H          5.30440        2.30640       -3.35450
H          5.98690        0.29080       -4.58610
H          4.60500       -0.67700       -7.91190
H          4.57120       -1.58520       -6.39980
H          6.05360       -0.77730       -6.89990
H          2.99240        1.06420       -7.52260
H          2.29920        3.07180       -6.28810
H          4.06070        5.98990       -2.40390
H          3.71620        5.99570        0.02160
H          2.57540        3.05850        1.99240
H          1.68340        4.56290        1.76270
H          3.41010        4.61630        2.09910
H          2.22660        2.00750       -0.16310
H          2.55280        1.99640       -2.59310
H          3.99950       10.70720       -8.47830
H          1.85750       11.88430       -8.67910
H         -0.49490       11.88690       -8.97710
H         -1.19610       10.46620       -9.76310
H         -1.23900       10.60970       -8.01010
H         -0.18410        8.14850       -8.91420
H          1.95770        6.96420       -8.75150
H          4.61980        9.29620      -10.80660
H          6.70660       10.20120      -11.73360
H          9.95360        9.40630      -10.53300
H          9.07730       10.47900      -11.64020
H          9.54020       11.04140      -10.03030
H          8.78940        9.03880       -8.19930
H          6.70220        8.15260       -7.25650
H          5.69520        6.51510       -9.96180
H          9.01090        2.16740       -7.65710
H         10.12490        1.78790       -9.00470
H          7.16730        1.00880       -8.84110
H          8.53140       -0.08930       -8.59960
H          8.25460        0.62420      -10.19080
H          9.45740        5.05250      -12.06080
H          7.22210        6.09150      -11.46130
H          7.14020        3.04010      -11.72220
H          5.81060        4.14700      -12.06690
H          7.27280        4.18780      -13.05810
