
  xtb     02142220183D
 energy: -339.453088944495 gnorm: 0.000585274610 xtb: 6.4.1 (unknown)
209228  0     0  0            999 V2000
  -10.3991    6.1962    3.9786 C   0  0  0  0  0  0  0  0  0  0  0  0
  -11.5569    5.9820    3.3312 C   0  0  0  0  0  0  0  0  0  0  0  0
  -11.7062    4.8476    2.3838 C   0  0  0  0  0  0  0  0  0  0  0  0
  -10.7726    4.3955    1.7596 O   0  0  0  0  0  0  0  0  0  0  0  0
  -13.0016    4.4150    2.1420 N   0  0  0  0  0  0  0  0  0  0  0  0
  -13.1923    3.3678    1.1394 C   0  0  0  0  0  0  0  0  0  0  0  0
  -13.4105    2.0085    1.7892 C   0  0  0  0  0  0  0  0  0  0  0  0
  -14.1261    4.8227    2.8200 C   0  0  0  0  0  0  0  0  0  0  0  0
  -15.2152    4.3687    2.5801 O   0  0  0  0  0  0  0  0  0  0  0  0
  -13.8947    5.9062    3.8743 C   0  0  0  0  0  0  0  0  0  0  0  0
  -15.1271    6.6223    4.1101 C   0  0  0  0  0  0  0  0  0  0  0  0
  -16.0812    7.2243    4.2873 N   0  0  0  0  0  0  0  0  0  0  0  0
  -12.7662    6.8661    3.4356 C   0  0  0  0  0  0  0  0  0  0  0  0
  -12.6207    8.0367    4.4011 C   0  0  0  0  0  0  0  0  0  0  0  0
   -9.3473    5.2237    4.0867 C   0  0  0  0  0  0  0  0  0  0  0  0
   -9.4674    3.8654    4.2917 C   0  0  0  0  0  0  0  0  0  0  0  0
   -8.1630    3.3164    4.4480 C   0  0  0  0  0  0  0  0  0  0  0  0
   -7.2096    4.3904    4.3313 C   0  0  0  0  0  0  0  0  0  0  0  0
   -5.9952    4.4288    4.3695 O   0  0  0  0  0  0  0  0  0  0  0  0
   -8.0139    5.5375    4.1409 N   0  0  0  0  0  0  0  0  0  0  0  0
   -7.4490    6.8384    3.9173 C   0  0  0  0  0  0  0  0  0  0  0  0
   -8.2938    1.9615    4.7147 C   0  0  0  0  0  0  0  0  0  0  0  0
   -9.6400    1.6610    4.7090 N   0  0  0  0  0  0  0  0  0  0  0  0
  -10.2380    0.3532    4.7278 C   0  0  0  0  0  0  0  0  0  0  0  0
  -10.4224    2.8025    4.4501 C   0  0  0  0  0  0  0  0  0  0  0  0
  -11.6384    2.7857    4.3895 O   0  0  0  0  0  0  0  0  0  0  0  0
   -7.2182    1.0473    4.8999 C   0  0  0  0  0  0  0  0  0  0  0  0
   -7.0905   -0.0927    5.6841 C   0  0  0  0  0  0  0  0  0  0  0  0
   -8.0399   -0.5227    6.7075 C   0  0  0  0  0  0  0  0  0  0  0  0
   -8.2867   -1.8758    6.9257 C   0  0  0  0  0  0  0  0  0  0  0  0
   -9.1642   -2.2636    7.9203 C   0  0  0  0  0  0  0  0  0  0  0  0
   -9.7955   -1.3150    8.7058 C   0  0  0  0  0  0  0  0  0  0  0  0
   -9.5544    0.0399    8.5093 C   0  0  0  0  0  0  0  0  0  0  0  0
  -10.1999    1.0714    9.3890 C   0  0  0  0  0  0  0  0  0  0  0  0
   -9.3151    1.3673   10.6014 C   0  0  0  0  0  0  0  0  0  0  0  0
   -8.6712    0.4237    7.5121 C   0  0  0  0  0  0  0  0  0  0  0  0
   -5.8384   -0.7027    5.4812 C   0  0  0  0  0  0  0  0  0  0  0  0
   -5.0947   -2.1420    6.1429 S   0  0  0  0  0  0  0  0  0  0  0  0
   -3.6770   -1.8160    5.2053 C   0  0  0  0  0  0  0  0  0  0  0  0
   -2.4464   -2.4165    4.8933 C   0  0  0  0  0  0  0  0  0  0  0  0
   -1.9166   -3.6914    5.1950 C   0  0  0  0  0  0  0  0  0  0  0  0
   -0.7419   -4.1418    4.4974 C   0  0  0  0  0  0  0  0  0  0  0  0
   -0.4170   -5.3862    4.8091 N   0  0  0  0  0  0  0  0  0  0  0  0
   -1.4837   -5.9414    5.8933 S   0  0  0  0  0  0  0  0  0  0  0  0
   -2.4100   -4.6171    6.0016 N   0  0  0  0  0  0  0  0  0  0  0  0
   -0.0682   -3.2462    3.6375 C   0  0  0  0  0  0  0  0  0  0  0  0
    1.0939   -3.3717    2.8534 C   0  0  0  0  0  0  0  0  0  0  0  0
    2.2006   -4.5942    2.3172 S   0  0  0  0  0  0  0  0  0  0  0  0
    2.9964   -3.4069    1.3105 C   0  0  0  0  0  0  0  0  0  0  0  0
    3.9545   -3.5200    0.2780 C   0  0  0  0  0  0  0  0  0  0  0  0
    4.5861   -4.7934   -0.0774 C   0  0  0  0  0  0  0  0  0  0  0  0
    5.0878   -5.6077    0.9348 C   0  0  0  0  0  0  0  0  0  0  0  0
    5.6479   -6.8318    0.6248 C   0  0  0  0  0  0  0  0  0  0  0  0
    5.6909   -7.2692   -0.6874 C   0  0  0  0  0  0  0  0  0  0  0  0
    5.1862   -6.4758   -1.7094 C   0  0  0  0  0  0  0  0  0  0  0  0
    5.1466   -6.9688   -3.1283 C   0  0  0  0  0  0  0  0  0  0  0  0
    3.7724   -7.5629   -3.4437 C   0  0  0  0  0  0  0  0  0  0  0  0
    4.6508   -5.2371   -1.3929 C   0  0  0  0  0  0  0  0  0  0  0  0
    4.1202   -2.3169   -0.3751 C   0  0  0  0  0  0  0  0  0  0  0  0
    3.2041   -1.0111    0.3673 S   0  0  0  0  0  0  0  0  0  0  0  0
    2.4490   -2.1323    1.4357 C   0  0  0  0  0  0  0  0  0  0  0  0
    1.3524   -2.1139    2.3043 C   0  0  0  0  0  0  0  0  0  0  0  0
    0.3925   -1.2195    2.6946 N   0  0  0  0  0  0  0  0  0  0  0  0
   -0.5169   -1.9066    3.4786 C   0  0  0  0  0  0  0  0  0  0  0  0
   -1.7897   -1.5432    3.9828 C   0  0  0  0  0  0  0  0  0  0  0  0
   -2.6208   -0.4739    3.7152 N   0  0  0  0  0  0  0  0  0  0  0  0
   -3.7644   -0.6428    4.4496 C   0  0  0  0  0  0  0  0  0  0  0  0
   -5.0059   -0.0120    4.5933 C   0  0  0  0  0  0  0  0  0  0  0  0
   -5.7693    1.4046    3.9779 S   0  0  0  0  0  0  0  0  0  0  0  0
   -2.5823    0.4794    2.6280 C   0  0  0  0  0  0  0  0  0  0  0  0
   -2.4103    1.9174    3.1181 C   0  0  0  0  0  0  0  0  0  0  0  0
    0.6813    0.1973    2.6885 C   0  0  0  0  0  0  0  0  0  0  0  0
    1.9400    0.5105    3.4974 C   0  0  0  0  0  0  0  0  0  0  0  0
    4.8722   -2.0341   -1.5597 C   0  0  0  0  0  0  0  0  0  0  0  0
    4.4366   -1.3445   -2.6820 C   0  0  0  0  0  0  0  0  0  0  0  0
    3.1816   -0.8019   -2.9020 N   0  0  0  0  0  0  0  0  0  0  0  0
    3.0896    0.3588   -3.6965 C   0  0  0  0  0  0  0  0  0  0  0  0
    2.0965    0.4644   -4.6641 C   0  0  0  0  0  0  0  0  0  0  0  0
    2.0196    1.5923   -5.4578 C   0  0  0  0  0  0  0  0  0  0  0  0
    2.9256    2.6364   -5.3158 C   0  0  0  0  0  0  0  0  0  0  0  0
    2.8490    3.8570   -6.1768 C   0  0  0  0  0  0  0  0  0  0  0  0
    3.9101    2.5242   -4.3395 C   0  0  0  0  0  0  0  0  0  0  0  0
    3.9925    1.4068   -3.5333 C   0  0  0  0  0  0  0  0  0  0  0  0
    2.0195   -1.3244   -2.3225 C   0  0  0  0  0  0  0  0  0  0  0  0
    1.0250   -0.4679   -1.8528 C   0  0  0  0  0  0  0  0  0  0  0  0
   -0.0651   -0.9737   -1.1720 C   0  0  0  0  0  0  0  0  0  0  0  0
   -0.1979   -2.3355   -0.9342 C   0  0  0  0  0  0  0  0  0  0  0  0
   -1.3424   -2.8849   -0.1389 C   0  0  0  0  0  0  0  0  0  0  0  0
    0.7663   -3.1892   -1.4598 C   0  0  0  0  0  0  0  0  0  0  0  0
    1.8503   -2.6976   -2.1570 C   0  0  0  0  0  0  0  0  0  0  0  0
    5.4711   -1.2808   -3.6501 C   0  0  0  0  0  0  0  0  0  0  0  0
    5.5871   -0.5518   -5.2054 S   0  0  0  0  0  0  0  0  0  0  0  0
    7.2542   -1.1028   -5.3757 C   0  0  0  0  0  0  0  0  0  0  0  0
    7.6876   -1.7974   -4.2413 C   0  0  0  0  0  0  0  0  0  0  0  0
    8.9663   -2.2595   -4.0428 N   0  0  0  0  0  0  0  0  0  0  0  0
    9.1696   -3.3639   -3.1968 C   0  0  0  0  0  0  0  0  0  0  0  0
    8.3377   -4.4774   -3.2888 C   0  0  0  0  0  0  0  0  0  0  0  0
    8.5158   -5.5460   -2.4356 C   0  0  0  0  0  0  0  0  0  0  0  0
    9.5216   -5.5391   -1.4762 C   0  0  0  0  0  0  0  0  0  0  0  0
    9.6714   -6.6991   -0.5415 C   0  0  0  0  0  0  0  0  0  0  0  0
   10.3643   -4.4373   -1.4109 C   0  0  0  0  0  0  0  0  0  0  0  0
   10.1958   -3.3590   -2.2577 C   0  0  0  0  0  0  0  0  0  0  0  0
   10.0856   -1.5677   -4.5451 C   0  0  0  0  0  0  0  0  0  0  0  0
   10.1319   -0.1769   -4.5326 C   0  0  0  0  0  0  0  0  0  0  0  0
   11.2251    0.4830   -5.0574 C   0  0  0  0  0  0  0  0  0  0  0  0
   12.2995   -0.2181   -5.5905 C   0  0  0  0  0  0  0  0  0  0  0  0
   13.4678    0.4967   -6.1954 C   0  0  0  0  0  0  0  0  0  0  0  0
   12.2572   -1.6074   -5.5683 C   0  0  0  0  0  0  0  0  0  0  0  0
   11.1676   -2.2798   -5.0537 C   0  0  0  0  0  0  0  0  0  0  0  0
    6.6535   -1.9017   -3.2799 C   0  0  0  0  0  0  0  0  0  0  0  0
    6.5268   -2.6154   -1.7076 S   0  0  0  0  0  0  0  0  0  0  0  0
    8.0091   -0.8903   -6.5519 C   0  0  0  0  0  0  0  0  0  0  0  0
    7.8226    0.0066   -7.5537 C   0  0  0  0  0  0  0  0  0  0  0  0
    8.7607   -0.0674   -8.6716 C   0  0  0  0  0  0  0  0  0  0  0  0
    9.6063   -0.9340   -8.7814 O   0  0  0  0  0  0  0  0  0  0  0  0
    8.6340    0.9092   -9.6725 N   0  0  0  0  0  0  0  0  0  0  0  0
    9.3144    0.6609  -10.9402 C   0  0  0  0  0  0  0  0  0  0  0  0
    8.3748   -0.0049  -11.9373 C   0  0  0  0  0  0  0  0  0  0  0  0
    7.9472    2.0883   -9.5563 C   0  0  0  0  0  0  0  0  0  0  0  0
    7.8483    2.8736  -10.4666 O   0  0  0  0  0  0  0  0  0  0  0  0
    7.3871    2.3390   -8.1576 C   0  0  0  0  0  0  0  0  0  0  0  0
    6.4299    3.4167   -8.1481 C   0  0  0  0  0  0  0  0  0  0  0  0
    5.6450    4.2451   -8.0896 N   0  0  0  0  0  0  0  0  0  0  0  0
    6.7504    1.0531   -7.6019 C   0  0  0  0  0  0  0  0  0  0  0  0
    5.5643    0.6084   -8.4623 C   0  0  0  0  0  0  0  0  0  0  0  0
  -10.2386    7.1238    4.5119 H   0  0  0  0  0  0  0  0  0  0  0  0
  -12.2929    3.3597    0.5220 H   0  0  0  0  0  0  0  0  0  0  0  0
  -14.0594    3.6435    0.5344 H   0  0  0  0  0  0  0  0  0  0  0  0
  -12.6320    1.8278    2.5255 H   0  0  0  0  0  0  0  0  0  0  0  0
  -13.3808    1.2294    1.0327 H   0  0  0  0  0  0  0  0  0  0  0  0
  -14.3744    1.9808    2.2899 H   0  0  0  0  0  0  0  0  0  0  0  0
  -13.6047    5.3995    4.8051 H   0  0  0  0  0  0  0  0  0  0  0  0
  -13.0211    7.2587    2.4419 H   0  0  0  0  0  0  0  0  0  0  0  0
  -12.3783    7.6862    5.4022 H   0  0  0  0  0  0  0  0  0  0  0  0
  -13.5550    8.5913    4.4500 H   0  0  0  0  0  0  0  0  0  0  0  0
  -11.8425    8.7160    4.0615 H   0  0  0  0  0  0  0  0  0  0  0  0
   -7.7236    7.5291    4.7184 H   0  0  0  0  0  0  0  0  0  0  0  0
   -7.7789    7.2460    2.9601 H   0  0  0  0  0  0  0  0  0  0  0  0
   -6.3656    6.7165    3.9078 H   0  0  0  0  0  0  0  0  0  0  0  0
  -11.1676    0.4102    4.1599 H   0  0  0  0  0  0  0  0  0  0  0  0
  -10.4739    0.0339    5.7446 H   0  0  0  0  0  0  0  0  0  0  0  0
   -9.5684   -0.3734    4.2697 H   0  0  0  0  0  0  0  0  0  0  0  0
   -7.8050   -2.6165    6.3063 H   0  0  0  0  0  0  0  0  0  0  0  0
   -9.3580   -3.3132    8.0831 H   0  0  0  0  0  0  0  0  0  0  0  0
  -10.4813   -1.6263    9.4803 H   0  0  0  0  0  0  0  0  0  0  0  0
  -10.3586    1.9924    8.8240 H   0  0  0  0  0  0  0  0  0  0  0  0
  -11.1712    0.7091    9.7314 H   0  0  0  0  0  0  0  0  0  0  0  0
   -9.7827    2.1126   11.2404 H   0  0  0  0  0  0  0  0  0  0  0  0
   -9.1551    0.4620   11.1826 H   0  0  0  0  0  0  0  0  0  0  0  0
   -8.3459    1.7426   10.2803 H   0  0  0  0  0  0  0  0  0  0  0  0
   -8.4595    1.4731    7.3614 H   0  0  0  0  0  0  0  0  0  0  0  0
    5.0452   -5.2734    1.9603 H   0  0  0  0  0  0  0  0  0  0  0  0
    6.0421   -7.4551    1.4143 H   0  0  0  0  0  0  0  0  0  0  0  0
    6.1134   -8.2367   -0.9199 H   0  0  0  0  0  0  0  0  0  0  0  0
    5.9089   -7.7353   -3.2827 H   0  0  0  0  0  0  0  0  0  0  0  0
    5.3470   -6.1427   -3.8145 H   0  0  0  0  0  0  0  0  0  0  0  0
    3.7388   -7.9220   -4.4697 H   0  0  0  0  0  0  0  0  0  0  0  0
    2.9948   -6.8138   -3.3120 H   0  0  0  0  0  0  0  0  0  0  0  0
    3.5596   -8.3954   -2.7766 H   0  0  0  0  0  0  0  0  0  0  0  0
    4.2581   -4.6187   -2.1862 H   0  0  0  0  0  0  0  0  0  0  0  0
   -3.5356    0.4089    2.0915 H   0  0  0  0  0  0  0  0  0  0  0  0
   -1.7891    0.1903    1.9376 H   0  0  0  0  0  0  0  0  0  0  0  0
   -1.5766    2.0094    3.8109 H   0  0  0  0  0  0  0  0  0  0  0  0
   -3.3065    2.2567    3.6297 H   0  0  0  0  0  0  0  0  0  0  0  0
   -2.2347    2.5736    2.2704 H   0  0  0  0  0  0  0  0  0  0  0  0
   -0.1513    0.7294    3.1354 H   0  0  0  0  0  0  0  0  0  0  0  0
    0.8176    0.5229    1.6516 H   0  0  0  0  0  0  0  0  0  0  0  0
    1.8303    0.1504    4.5183 H   0  0  0  0  0  0  0  0  0  0  0  0
    2.0971    1.5854    3.5203 H   0  0  0  0  0  0  0  0  0  0  0  0
    2.8157    0.0447    3.0549 H   0  0  0  0  0  0  0  0  0  0  0  0
    1.3896   -0.3430   -4.7890 H   0  0  0  0  0  0  0  0  0  0  0  0
    1.2448    1.6575   -6.2078 H   0  0  0  0  0  0  0  0  0  0  0  0
    1.9902    3.8114   -6.8413 H   0  0  0  0  0  0  0  0  0  0  0  0
    3.7505    3.9593   -6.7816 H   0  0  0  0  0  0  0  0  0  0  0  0
    2.7662    4.7513   -5.5605 H   0  0  0  0  0  0  0  0  0  0  0  0
    4.6175    3.3302   -4.2075 H   0  0  0  0  0  0  0  0  0  0  0  0
    4.7538    1.3386   -2.7689 H   0  0  0  0  0  0  0  0  0  0  0  0
    1.1315    0.5971   -1.9962 H   0  0  0  0  0  0  0  0  0  0  0  0
   -0.8171   -0.2908   -0.8012 H   0  0  0  0  0  0  0  0  0  0  0  0
   -2.0004   -2.0891    0.2025 H   0  0  0  0  0  0  0  0  0  0  0  0
   -1.9252   -3.5814   -0.7406 H   0  0  0  0  0  0  0  0  0  0  0  0
   -0.9746   -3.4285    0.7312 H   0  0  0  0  0  0  0  0  0  0  0  0
    0.6689   -4.2554   -1.3136 H   0  0  0  0  0  0  0  0  0  0  0  0
    2.5810   -3.3761   -2.5683 H   0  0  0  0  0  0  0  0  0  0  0  0
    7.5567   -4.4978   -4.0349 H   0  0  0  0  0  0  0  0  0  0  0  0
    7.8629   -6.4011   -2.5099 H   0  0  0  0  0  0  0  0  0  0  0  0
   10.5083   -6.5505    0.1357 H   0  0  0  0  0  0  0  0  0  0  0  0
    8.7619   -6.8212    0.0460 H   0  0  0  0  0  0  0  0  0  0  0  0
    9.8336   -7.6204   -1.0995 H   0  0  0  0  0  0  0  0  0  0  0  0
   11.1583   -4.4136   -0.6786 H   0  0  0  0  0  0  0  0  0  0  0  0
   10.8503   -2.5026   -2.1888 H   0  0  0  0  0  0  0  0  0  0  0  0
    9.3068    0.3822   -4.1157 H   0  0  0  0  0  0  0  0  0  0  0  0
   11.2466    1.5635   -5.0455 H   0  0  0  0  0  0  0  0  0  0  0  0
   14.4029    0.0162   -5.9150 H   0  0  0  0  0  0  0  0  0  0  0  0
   13.3923    0.4708   -7.2828 H   0  0  0  0  0  0  0  0  0  0  0  0
   13.4966    1.5368   -5.8799 H   0  0  0  0  0  0  0  0  0  0  0  0
   13.0853   -2.1706   -5.9725 H   0  0  0  0  0  0  0  0  0  0  0  0
   11.1401   -3.3594   -5.0522 H   0  0  0  0  0  0  0  0  0  0  0  0
    8.8710   -1.5371   -6.6715 H   0  0  0  0  0  0  0  0  0  0  0  0
    9.6583    1.6215  -11.3284 H   0  0  0  0  0  0  0  0  0  0  0  0
   10.1674    0.0154  -10.7245 H   0  0  0  0  0  0  0  0  0  0  0  0
    8.0124   -0.9511  -11.5405 H   0  0  0  0  0  0  0  0  0  0  0  0
    7.5274    0.6444  -12.1454 H   0  0  0  0  0  0  0  0  0  0  0  0
    8.9030   -0.1960  -12.8670 H   0  0  0  0  0  0  0  0  0  0  0  0
    8.2317    2.6337   -7.5184 H   0  0  0  0  0  0  0  0  0  0  0  0
    6.3859    1.2626   -6.5915 H   0  0  0  0  0  0  0  0  0  0  0  0
    5.1262   -0.2953   -8.0463 H   0  0  0  0  0  0  0  0  0  0  0  0
    5.8795    0.4037   -9.4836 H   0  0  0  0  0  0  0  0  0  0  0  0
    4.8020    1.3843   -8.4814 H   0  0  0  0  0  0  0  0  0  0  0  0
  1  2  2  0  0  0  0
  2  3  1  0  0  0  0
  3  4  2  0  0  0  0
  3  5  1  0  0  0  0
  5  6  1  0  0  0  0
  6  7  1  0  0  0  0
  5  8  1  0  0  0  0
  8  9  2  0  0  0  0
  8 10  1  0  0  0  0
 10 11  1  0  0  0  0
 11 12  3  0  0  0  0
 10 13  1  0  0  0  0
 13 14  1  0  0  0  0
  1 15  1  0  0  0  0
 15 16  2  0  0  0  0
 16 17  1  0  0  0  0
 17 18  1  0  0  0  0
 18 19  2  0  0  0  0
 18 20  1  0  0  0  0
 20 21  1  0  0  0  0
 17 22  2  0  0  0  0
 22 23  1  0  0  0  0
 23 24  1  0  0  0  0
 23 25  1  0  0  0  0
 25 26  2  0  0  0  0
 22 27  1  0  0  0  0
 27 28  2  0  0  0  0
 28 29  1  0  0  0  0
 29 30  2  0  0  0  0
 30 31  1  0  0  0  0
 31 32  2  0  0  0  0
 32 33  1  0  0  0  0
 33 34  1  0  0  0  0
 34 35  1  0  0  0  0
 33 36  2  0  0  0  0
 28 37  1  0  0  0  0
 37 38  1  0  0  0  0
 38 39  1  0  0  0  0
 39 40  1  0  0  0  0
 40 41  1  0  0  0  0
 41 42  1  0  0  0  0
 42 43  2  0  0  0  0
 43 44  1  0  0  0  0
 44 45  1  0  0  0  0
 42 46  1  0  0  0  0
 46 47  1  0  0  0  0
 47 48  1  0  0  0  0
 48 49  1  0  0  0  0
 49 50  1  0  0  0  0
 50 51  1  0  0  0  0
 51 52  2  0  0  0  0
 52 53  1  0  0  0  0
 53 54  2  0  0  0  0
 54 55  1  0  0  0  0
 55 56  1  0  0  0  0
 56 57  1  0  0  0  0
 55 58  2  0  0  0  0
 50 59  2  0  0  0  0
 59 60  1  0  0  0  0
 60 61  1  0  0  0  0
 61 62  1  0  0  0  0
 62 63  1  0  0  0  0
 63 64  1  0  0  0  0
 64 65  1  0  0  0  0
 65 66  1  0  0  0  0
 66 67  1  0  0  0  0
 67 68  1  0  0  0  0
 68 69  1  0  0  0  0
 66 70  1  0  0  0  0
 70 71  1  0  0  0  0
 63 72  1  0  0  0  0
 72 73  1  0  0  0  0
 59 74  1  0  0  0  0
 74 75  2  0  0  0  0
 75 76  1  0  0  0  0
 76 77  1  0  0  0  0
 77 78  2  0  0  0  0
 78 79  1  0  0  0  0
 79 80  2  0  0  0  0
 80 81  1  0  0  0  0
 80 82  1  0  0  0  0
 82 83  2  0  0  0  0
 76 84  1  0  0  0  0
 84 85  2  0  0  0  0
 85 86  1  0  0  0  0
 86 87  2  0  0  0  0
 87 88  1  0  0  0  0
 87 89  1  0  0  0  0
 89 90  2  0  0  0  0
 75 91  1  0  0  0  0
 91 92  1  0  0  0  0
 92 93  1  0  0  0  0
 93 94  2  0  0  0  0
 94 95  1  0  0  0  0
 95 96  1  0  0  0  0
 96 97  2  0  0  0  0
 97 98  1  0  0  0  0
 98 99  2  0  0  0  0
 99100  1  0  0  0  0
 99101  1  0  0  0  0
101102  2  0  0  0  0
 95103  1  0  0  0  0
103104  2  0  0  0  0
104105  1  0  0  0  0
105106  2  0  0  0  0
106107  1  0  0  0  0
106108  1  0  0  0  0
108109  2  0  0  0  0
 94110  1  0  0  0  0
110111  1  0  0  0  0
 93112  1  0  0  0  0
112113  2  0  0  0  0
113114  1  0  0  0  0
114115  2  0  0  0  0
114116  1  0  0  0  0
116117  1  0  0  0  0
117118  1  0  0  0  0
116119  1  0  0  0  0
119120  2  0  0  0  0
119121  1  0  0  0  0
121122  1  0  0  0  0
122123  3  0  0  0  0
121124  1  0  0  0  0
124125  1  0  0  0  0
 13  2  1  0  0  0  0
 20 15  1  0  0  0  0
 69 27  1  0  0  0  0
111 74  1  0  0  0  0
124113  1  0  0  0  0
 25 16  1  0  0  0  0
 36 29  1  0  0  0  0
 68 37  2  0  0  0  0
 83 77  1  0  0  0  0
 90 84  1  0  0  0  0
110 91  2  0  0  0  0
 67 39  2  0  0  0  0
102 96  1  0  0  0  0
109103  1  0  0  0  0
 65 40  2  0  0  0  0
 45 41  2  0  0  0  0
 64 46  2  0  0  0  0
 62 47  2  0  0  0  0
 61 49  2  0  0  0  0
 58 51  1  0  0  0  0
  1126  1  0  0  0  0
  6127  1  0  0  0  0
  6128  1  0  0  0  0
  7129  1  0  0  0  0
  7130  1  0  0  0  0
  7131  1  0  0  0  0
 10132  1  0  0  0  0
 13133  1  0  0  0  0
 14134  1  0  0  0  0
 14135  1  0  0  0  0
 14136  1  0  0  0  0
 21137  1  0  0  0  0
 21138  1  0  0  0  0
 21139  1  0  0  0  0
 24140  1  0  0  0  0
 24141  1  0  0  0  0
 24142  1  0  0  0  0
 30143  1  0  0  0  0
 31144  1  0  0  0  0
 32145  1  0  0  0  0
 34146  1  0  0  0  0
 34147  1  0  0  0  0
 35148  1  0  0  0  0
 35149  1  0  0  0  0
 35150  1  0  0  0  0
 36151  1  0  0  0  0
 52152  1  0  0  0  0
 53153  1  0  0  0  0
 54154  1  0  0  0  0
 56155  1  0  0  0  0
 56156  1  0  0  0  0
 57157  1  0  0  0  0
 57158  1  0  0  0  0
 57159  1  0  0  0  0
 58160  1  0  0  0  0
 70161  1  0  0  0  0
 70162  1  0  0  0  0
 71163  1  0  0  0  0
 71164  1  0  0  0  0
 71165  1  0  0  0  0
 72166  1  0  0  0  0
 72167  1  0  0  0  0
 73168  1  0  0  0  0
 73169  1  0  0  0  0
 73170  1  0  0  0  0
 78171  1  0  0  0  0
 79172  1  0  0  0  0
 81173  1  0  0  0  0
 81174  1  0  0  0  0
 81175  1  0  0  0  0
 82176  1  0  0  0  0
 83177  1  0  0  0  0
 85178  1  0  0  0  0
 86179  1  0  0  0  0
 88180  1  0  0  0  0
 88181  1  0  0  0  0
 88182  1  0  0  0  0
 89183  1  0  0  0  0
 90184  1  0  0  0  0
 97185  1  0  0  0  0
 98186  1  0  0  0  0
100187  1  0  0  0  0
100188  1  0  0  0  0
100189  1  0  0  0  0
101190  1  0  0  0  0
102191  1  0  0  0  0
104192  1  0  0  0  0
105193  1  0  0  0  0
107194  1  0  0  0  0
107195  1  0  0  0  0
107196  1  0  0  0  0
108197  1  0  0  0  0
109198  1  0  0  0  0
112199  1  0  0  0  0
117200  1  0  0  0  0
117201  1  0  0  0  0
118202  1  0  0  0  0
118203  1  0  0  0  0
118204  1  0  0  0  0
121205  1  0  0  0  0
124206  1  0  0  0  0
125207  1  0  0  0  0
125208  1  0  0  0  0
125209  1  0  0  0  0
M  END
