
  xtb     02142206013D
 energy: -264.914008192451 gnorm: 0.000451729785 xtb: 6.4.1 (unknown)
147164  0     0  0            999 V2000
    4.1552   -5.8832   10.2289 C   0  0  0  0  0  0  0  0  0  0  0  0
    4.5556   -4.8136   10.9444 C   0  0  0  0  0  0  0  0  0  0  0  0
    4.2349   -3.3839   10.6012 C   0  0  0  0  0  0  0  0  0  0  0  0
    3.5413   -2.9872    9.6927 O   0  0  0  0  0  0  0  0  0  0  0  0
    4.8526   -2.5986   11.6687 C   0  0  0  0  0  0  0  0  0  0  0  0
    5.4365   -3.4467   12.5931 C   0  0  0  0  0  0  0  0  0  0  0  0
    6.1759   -2.6263   13.9138 S   0  0  0  0  0  0  0  0  0  0  0  0
    5.6932   -1.0871   13.2224 C   0  0  0  0  0  0  0  0  0  0  0  0
    5.9507    0.1641   13.7594 C   0  0  0  0  0  0  0  0  0  0  0  0
    5.4925    1.2749   13.0789 C   0  0  0  0  0  0  0  0  0  0  0  0
    4.7881    1.1479   11.8798 C   0  0  0  0  0  0  0  0  0  0  0  0
    4.5285   -0.0902   11.3388 C   0  0  0  0  0  0  0  0  0  0  0  0
    4.9807   -1.2292   12.0090 C   0  0  0  0  0  0  0  0  0  0  0  0
    5.2741   -4.8236   12.2191 C   0  0  0  0  0  0  0  0  0  0  0  0
    5.7384   -5.8969   12.9303 C   0  0  0  0  0  0  0  0  0  0  0  0
    5.5858   -7.2479   12.5615 C   0  0  0  0  0  0  0  0  0  0  0  0
    5.4903   -8.3647   12.3139 N   0  0  0  0  0  0  0  0  0  0  0  0
    6.4317   -5.7222   14.1482 C   0  0  0  0  0  0  0  0  0  0  0  0
    6.9920   -5.5970   15.1410 N   0  0  0  0  0  0  0  0  0  0  0  0
    3.5542   -5.7974    8.9103 C   0  0  0  0  0  0  0  0  0  0  0  0
    4.1007   -5.0046    7.8958 C   0  0  0  0  0  0  0  0  0  0  0  0
    5.2691   -4.3740    8.1077 F   0  0  0  0  0  0  0  0  0  0  0  0
    3.5231   -4.9030    6.6520 C   0  0  0  0  0  0  0  0  0  0  0  0
    2.3484   -5.5973    6.3505 C   0  0  0  0  0  0  0  0  0  0  0  0
    1.8100   -6.4005    7.3642 C   0  0  0  0  0  0  0  0  0  0  0  0
    0.6465   -7.0460    7.1609 F   0  0  0  0  0  0  0  0  0  0  0  0
    2.4029   -6.5217    8.6008 C   0  0  0  0  0  0  0  0  0  0  0  0
    1.7150   -5.4320    5.0614 C   0  0  0  0  0  0  0  0  0  0  0  0
    1.0492   -6.3513    4.2782 C   0  0  0  0  0  0  0  0  0  0  0  0
    1.0058   -7.7928    4.5218 C   0  0  0  0  0  0  0  0  0  0  0  0
    2.1408   -8.4694    4.9626 C   0  0  0  0  0  0  0  0  0  0  0  0
    2.0926   -9.8349    5.1643 C   0  0  0  0  0  0  0  0  0  0  0  0
    0.9227  -10.5352    4.9268 C   0  0  0  0  0  0  0  0  0  0  0  0
   -0.2149   -9.8778    4.4764 C   0  0  0  0  0  0  0  0  0  0  0  0
   -1.4995  -10.6232    4.2573 C   0  0  0  0  0  0  0  0  0  0  0  0
   -2.3385  -10.6202    5.5367 C   0  0  0  0  0  0  0  0  0  0  0  0
   -0.1615   -8.5070    4.2770 C   0  0  0  0  0  0  0  0  0  0  0  0
    0.4953   -5.7357    3.1329 C   0  0  0  0  0  0  0  0  0  0  0  0
   -0.4452   -6.3481    1.7938 S   0  0  0  0  0  0  0  0  0  0  0  0
   -0.4772   -4.7559    1.1165 C   0  0  0  0  0  0  0  0  0  0  0  0
   -1.0381   -4.0720    0.0242 C   0  0  0  0  0  0  0  0  0  0  0  0
   -1.9426   -4.4966   -0.9731 C   0  0  0  0  0  0  0  0  0  0  0  0
   -2.4794   -3.5245   -1.8827 C   0  0  0  0  0  0  0  0  0  0  0  0
   -3.3619   -4.0475   -2.7195 N   0  0  0  0  0  0  0  0  0  0  0  0
   -3.5017   -5.6278   -2.3948 S   0  0  0  0  0  0  0  0  0  0  0  0
   -2.4431   -5.7058   -1.1726 N   0  0  0  0  0  0  0  0  0  0  0  0
   -1.9874   -2.2022   -1.8348 C   0  0  0  0  0  0  0  0  0  0  0  0
   -2.2129   -1.0990   -2.6730 C   0  0  0  0  0  0  0  0  0  0  0  0
   -3.1815   -0.6722   -4.0419 S   0  0  0  0  0  0  0  0  0  0  0  0
   -2.3791    0.8791   -4.0914 C   0  0  0  0  0  0  0  0  0  0  0  0
   -2.5382    1.9990   -4.9284 C   0  0  0  0  0  0  0  0  0  0  0  0
   -3.5745    2.0553   -5.9630 C   0  0  0  0  0  0  0  0  0  0  0  0
   -4.4970    3.0982   -5.9905 C   0  0  0  0  0  0  0  0  0  0  0  0
   -5.5076    3.0955   -6.9327 C   0  0  0  0  0  0  0  0  0  0  0  0
   -5.6054    2.0630   -7.8503 C   0  0  0  0  0  0  0  0  0  0  0  0
   -4.6962    1.0134   -7.8333 C   0  0  0  0  0  0  0  0  0  0  0  0
   -4.8304   -0.1457   -8.7773 C   0  0  0  0  0  0  0  0  0  0  0  0
   -5.5896   -1.2885   -8.0999 C   0  0  0  0  0  0  0  0  0  0  0  0
   -3.6877    1.0178   -6.8804 C   0  0  0  0  0  0  0  0  0  0  0  0
   -1.6564    3.0097   -4.5842 C   0  0  0  0  0  0  0  0  0  0  0  0
   -0.6613    2.5889   -3.1984 S   0  0  0  0  0  0  0  0  0  0  0  0
   -1.4169    1.0394   -3.0909 C   0  0  0  0  0  0  0  0  0  0  0  0
   -1.3331   -0.0912   -2.2687 C   0  0  0  0  0  0  0  0  0  0  0  0
   -0.5950   -0.5187   -1.1972 N   0  0  0  0  0  0  0  0  0  0  0  0
   -0.9961   -1.8062   -0.8932 C   0  0  0  0  0  0  0  0  0  0  0  0
   -0.6196   -2.7168    0.1286 C   0  0  0  0  0  0  0  0  0  0  0  0
    0.1452   -2.5774    1.2785 N   0  0  0  0  0  0  0  0  0  0  0  0
    0.2141   -3.8106    1.8747 C   0  0  0  0  0  0  0  0  0  0  0  0
    0.7656   -4.3707    3.0349 C   0  0  0  0  0  0  0  0  0  0  0  0
    1.7083   -3.8179    4.3709 S   0  0  0  0  0  0  0  0  0  0  0  0
    0.3357   -1.4060    2.1070 C   0  0  0  0  0  0  0  0  0  0  0  0
   -0.9898   -0.9380    2.7040 C   0  0  0  0  0  0  0  0  0  0  0  0
    0.6022    0.1973   -0.8196 C   0  0  0  0  0  0  0  0  0  0  0  0
    0.2963    1.4292    0.0309 C   0  0  0  0  0  0  0  0  0  0  0  0
   -1.4125    4.2489   -5.2394 C   0  0  0  0  0  0  0  0  0  0  0  0
   -1.7677    4.6211   -6.5162 C   0  0  0  0  0  0  0  0  0  0  0  0
   -1.3463    5.9112   -6.8687 C   0  0  0  0  0  0  0  0  0  0  0  0
   -1.4215    6.5511   -8.4863 S   0  0  0  0  0  0  0  0  0  0  0  0
   -2.8265    5.6545   -9.2347 C   0  0  0  0  0  0  0  0  0  0  0  0
   -4.1317    5.9883   -8.5421 C   0  0  0  0  0  0  0  0  0  0  0  0
   -0.6592    6.5627   -5.8420 C   0  0  0  0  0  0  0  0  0  0  0  0
   -0.4926    5.4963   -4.4590 S   0  0  0  0  0  0  0  0  0  0  0  0
   -0.0521    7.8285   -5.7329 C   0  0  0  0  0  0  0  0  0  0  0  0
   -0.4064    9.0106   -6.3234 C   0  0  0  0  0  0  0  0  0  0  0  0
   -1.6980    9.3096   -6.9824 C   0  0  0  0  0  0  0  0  0  0  0  0
   -2.6338    8.5506   -7.1483 O   0  0  0  0  0  0  0  0  0  0  0  0
   -1.6402   10.7392   -7.3110 C   0  0  0  0  0  0  0  0  0  0  0  0
   -0.4392   11.2573   -6.8730 C   0  0  0  0  0  0  0  0  0  0  0  0
   -0.2520   12.9410   -7.1890 S   0  0  0  0  0  0  0  0  0  0  0  0
   -1.8401   12.9705   -7.9322 C   0  0  0  0  0  0  0  0  0  0  0  0
   -2.4594   14.0800   -8.4857 C   0  0  0  0  0  0  0  0  0  0  0  0
   -3.7184   13.9245   -9.0301 C   0  0  0  0  0  0  0  0  0  0  0  0
   -4.3570   12.6828   -9.0265 C   0  0  0  0  0  0  0  0  0  0  0  0
   -3.7492   11.5760   -8.4804 C   0  0  0  0  0  0  0  0  0  0  0  0
   -2.4754   11.7065   -7.9229 C   0  0  0  0  0  0  0  0  0  0  0  0
    0.3687   10.2385   -6.2531 C   0  0  0  0  0  0  0  0  0  0  0  0
    1.6324   10.4359   -5.7571 C   0  0  0  0  0  0  0  0  0  0  0  0
    2.2352   11.7108   -5.7892 C   0  0  0  0  0  0  0  0  0  0  0  0
    2.7387   12.7420   -5.8058 N   0  0  0  0  0  0  0  0  0  0  0  0
    2.4579    9.4471   -5.1897 C   0  0  0  0  0  0  0  0  0  0  0  0
    3.1882    8.6929   -4.7236 N   0  0  0  0  0  0  0  0  0  0  0  0
    4.2643   -6.8809   10.6346 H   0  0  0  0  0  0  0  0  0  0  0  0
    6.4952    0.2610   14.6855 H   0  0  0  0  0  0  0  0  0  0  0  0
    5.6824    2.2583   13.4811 H   0  0  0  0  0  0  0  0  0  0  0  0
    4.4445    2.0372   11.3737 H   0  0  0  0  0  0  0  0  0  0  0  0
    3.9859   -0.2070   10.4140 H   0  0  0  0  0  0  0  0  0  0  0  0
    3.9886   -4.2785    5.9052 H   0  0  0  0  0  0  0  0  0  0  0  0
    1.9354   -7.1435    9.3482 H   0  0  0  0  0  0  0  0  0  0  0  0
    3.0601   -7.9265    5.1305 H   0  0  0  0  0  0  0  0  0  0  0  0
    2.9745  -10.3571    5.5055 H   0  0  0  0  0  0  0  0  0  0  0  0
    0.8935  -11.6033    5.0878 H   0  0  0  0  0  0  0  0  0  0  0  0
   -2.0665  -10.1515    3.4525 H   0  0  0  0  0  0  0  0  0  0  0  0
   -1.2857  -11.6540    3.9680 H   0  0  0  0  0  0  0  0  0  0  0  0
   -2.5610   -9.5996    5.8393 H   0  0  0  0  0  0  0  0  0  0  0  0
   -3.2752  -11.1500    5.3791 H   0  0  0  0  0  0  0  0  0  0  0  0
   -1.7963  -11.1044    6.3457 H   0  0  0  0  0  0  0  0  0  0  0  0
   -1.0452   -7.9835    3.9432 H   0  0  0  0  0  0  0  0  0  0  0  0
   -4.4239    3.8952   -5.2650 H   0  0  0  0  0  0  0  0  0  0  0  0
   -6.2289    3.8993   -6.9473 H   0  0  0  0  0  0  0  0  0  0  0  0
   -6.3997    2.0688   -8.5827 H   0  0  0  0  0  0  0  0  0  0  0  0
   -5.3672    0.1647   -9.6758 H   0  0  0  0  0  0  0  0  0  0  0  0
   -3.8405   -0.4987   -9.0737 H   0  0  0  0  0  0  0  0  0  0  0  0
   -5.0671   -1.6104   -7.2020 H   0  0  0  0  0  0  0  0  0  0  0  0
   -6.5875   -0.9623   -7.8154 H   0  0  0  0  0  0  0  0  0  0  0  0
   -5.6799   -2.1366   -8.7742 H   0  0  0  0  0  0  0  0  0  0  0  0
   -2.9729    0.2080   -6.8553 H   0  0  0  0  0  0  0  0  0  0  0  0
    0.8046   -0.6002    1.5506 H   0  0  0  0  0  0  0  0  0  0  0  0
    1.0181   -1.6975    2.9093 H   0  0  0  0  0  0  0  0  0  0  0  0
   -1.6910   -0.6699    1.9162 H   0  0  0  0  0  0  0  0  0  0  0  0
   -0.8257   -0.0737    3.3420 H   0  0  0  0  0  0  0  0  0  0  0  0
   -1.4336   -1.7307    3.3020 H   0  0  0  0  0  0  0  0  0  0  0  0
    1.2809   -0.4939   -0.3185 H   0  0  0  0  0  0  0  0  0  0  0  0
    1.0943    0.5270   -1.7419 H   0  0  0  0  0  0  0  0  0  0  0  0
   -0.2520    2.1594   -0.5580 H   0  0  0  0  0  0  0  0  0  0  0  0
    1.2245    1.8872    0.3616 H   0  0  0  0  0  0  0  0  0  0  0  0
   -0.3042    1.1763    0.9000 H   0  0  0  0  0  0  0  0  0  0  0  0
   -2.2844    3.9528   -7.1785 H   0  0  0  0  0  0  0  0  0  0  0  0
   -2.8263    6.0101  -10.2653 H   0  0  0  0  0  0  0  0  0  0  0  0
   -2.6125    4.5862   -9.2326 H   0  0  0  0  0  0  0  0  0  0  0  0
   -4.2586    7.0664   -8.4910 H   0  0  0  0  0  0  0  0  0  0  0  0
   -4.9635    5.5517   -9.0913 H   0  0  0  0  0  0  0  0  0  0  0  0
   -4.1405    5.5984   -7.5276 H   0  0  0  0  0  0  0  0  0  0  0  0
    0.7724    7.8603   -5.0289 H   0  0  0  0  0  0  0  0  0  0  0  0
   -1.9639   15.0382   -8.4869 H   0  0  0  0  0  0  0  0  0  0  0  0
   -4.2175   14.7770   -9.4652 H   0  0  0  0  0  0  0  0  0  0  0  0
   -5.3421   12.5955   -9.4595 H   0  0  0  0  0  0  0  0  0  0  0  0
   -4.2301   10.6105   -8.4684 H   0  0  0  0  0  0  0  0  0  0  0  0
  1  2  2  0  0  0  0
  2  3  1  0  0  0  0
  3  4  2  0  0  0  0
  3  5  1  0  0  0  0
  5  6  2  0  0  0  0
  6  7  1  0  0  0  0
  7  8  1  0  0  0  0
  8  9  2  0  0  0  0
  9 10  1  0  0  0  0
 10 11  2  0  0  0  0
 11 12  1  0  0  0  0
 12 13  2  0  0  0  0
  6 14  1  0  0  0  0
 14 15  2  0  0  0  0
 15 16  1  0  0  0  0
 16 17  3  0  0  0  0
 15 18  1  0  0  0  0
 18 19  3  0  0  0  0
  1 20  1  0  0  0  0
 20 21  2  0  0  0  0
 21 22  1  0  0  0  0
 21 23  1  0  0  0  0
 23 24  2  0  0  0  0
 24 25  1  0  0  0  0
 25 26  1  0  0  0  0
 25 27  2  0  0  0  0
 24 28  1  0  0  0  0
 28 29  2  0  0  0  0
 29 30  1  0  0  0  0
 30 31  2  0  0  0  0
 31 32  1  0  0  0  0
 32 33  2  0  0  0  0
 33 34  1  0  0  0  0
 34 35  1  0  0  0  0
 35 36  1  0  0  0  0
 34 37  2  0  0  0  0
 29 38  1  0  0  0  0
 38 39  1  0  0  0  0
 39 40  1  0  0  0  0
 40 41  1  0  0  0  0
 41 42  1  0  0  0  0
 42 43  1  0  0  0  0
 43 44  2  0  0  0  0
 44 45  1  0  0  0  0
 45 46  1  0  0  0  0
 43 47  1  0  0  0  0
 47 48  1  0  0  0  0
 48 49  1  0  0  0  0
 49 50  1  0  0  0  0
 50 51  1  0  0  0  0
 51 52  1  0  0  0  0
 52 53  2  0  0  0  0
 53 54  1  0  0  0  0
 54 55  2  0  0  0  0
 55 56  1  0  0  0  0
 56 57  1  0  0  0  0
 57 58  1  0  0  0  0
 56 59  2  0  0  0  0
 51 60  2  0  0  0  0
 60 61  1  0  0  0  0
 61 62  1  0  0  0  0
 62 63  1  0  0  0  0
 63 64  1  0  0  0  0
 64 65  1  0  0  0  0
 65 66  1  0  0  0  0
 66 67  1  0  0  0  0
 67 68  1  0  0  0  0
 68 69  1  0  0  0  0
 69 70  1  0  0  0  0
 67 71  1  0  0  0  0
 71 72  1  0  0  0  0
 64 73  1  0  0  0  0
 73 74  1  0  0  0  0
 60 75  1  0  0  0  0
 75 76  2  0  0  0  0
 76 77  1  0  0  0  0
 77 78  1  0  0  0  0
 78 79  1  0  0  0  0
 79 80  1  0  0  0  0
 77 81  2  0  0  0  0
 81 82  1  0  0  0  0
 81 83  1  0  0  0  0
 83 84  2  0  0  0  0
 84 85  1  0  0  0  0
 85 86  2  0  0  0  0
 85 87  1  0  0  0  0
 87 88  2  0  0  0  0
 88 89  1  0  0  0  0
 89 90  1  0  0  0  0
 90 91  2  0  0  0  0
 91 92  1  0  0  0  0
 92 93  2  0  0  0  0
 93 94  1  0  0  0  0
 94 95  2  0  0  0  0
 88 96  1  0  0  0  0
 96 97  2  0  0  0  0
 97 98  1  0  0  0  0
 98 99  3  0  0  0  0
 97100  1  0  0  0  0
100101  3  0  0  0  0
 14  2  1  0  0  0  0
 27 20  1  0  0  0  0
 70 28  1  0  0  0  0
 82 75  1  0  0  0  0
 96 84  1  0  0  0  0
 13  5  1  0  0  0  0
 37 30  1  0  0  0  0
 69 38  2  0  0  0  0
 95 87  1  0  0  0  0
 13  8  1  0  0  0  0
 68 40  2  0  0  0  0
 95 90  1  0  0  0  0
 66 41  2  0  0  0  0
 46 42  2  0  0  0  0
 65 47  2  0  0  0  0
 63 48  2  0  0  0  0
 62 50  2  0  0  0  0
 59 52  1  0  0  0  0
  1102  1  0  0  0  0
  9103  1  0  0  0  0
 10104  1  0  0  0  0
 11105  1  0  0  0  0
 12106  1  0  0  0  0
 23107  1  0  0  0  0
 27108  1  0  0  0  0
 31109  1  0  0  0  0
 32110  1  0  0  0  0
 33111  1  0  0  0  0
 35112  1  0  0  0  0
 35113  1  0  0  0  0
 36114  1  0  0  0  0
 36115  1  0  0  0  0
 36116  1  0  0  0  0
 37117  1  0  0  0  0
 53118  1  0  0  0  0
 54119  1  0  0  0  0
 55120  1  0  0  0  0
 57121  1  0  0  0  0
 57122  1  0  0  0  0
 58123  1  0  0  0  0
 58124  1  0  0  0  0
 58125  1  0  0  0  0
 59126  1  0  0  0  0
 71127  1  0  0  0  0
 71128  1  0  0  0  0
 72129  1  0  0  0  0
 72130  1  0  0  0  0
 72131  1  0  0  0  0
 73132  1  0  0  0  0
 73133  1  0  0  0  0
 74134  1  0  0  0  0
 74135  1  0  0  0  0
 74136  1  0  0  0  0
 76137  1  0  0  0  0
 79138  1  0  0  0  0
 79139  1  0  0  0  0
 80140  1  0  0  0  0
 80141  1  0  0  0  0
 80142  1  0  0  0  0
 83143  1  0  0  0  0
 91144  1  0  0  0  0
 92145  1  0  0  0  0
 93146  1  0  0  0  0
 94147  1  0  0  0  0
M  END
