
  xtb     02052211593D
 energy: -307.499460415979 gnorm: 0.000437720147 xtb: 6.4.1 (unknown)
172190  0     0  0            999 V2000
    5.7487    6.3610   -7.3041 C   0  0  0  0  0  0  0  0  0  0  0  0
    5.3091    7.5007   -6.7242 C   0  0  0  0  0  0  0  0  0  0  0  0
    4.1317    7.5889   -5.7966 C   0  0  0  0  0  0  0  0  0  0  0  0
    3.2134    6.8047   -5.6880 O   0  0  0  0  0  0  0  0  0  0  0  0
    4.2282    8.9289   -5.2100 C   0  0  0  0  0  0  0  0  0  0  0  0
    5.2175    9.6414   -5.8606 C   0  0  0  0  0  0  0  0  0  0  0  0
    5.3806   11.2647   -5.3059 S   0  0  0  0  0  0  0  0  0  0  0  0
    4.0859   10.9951   -4.1526 C   0  0  0  0  0  0  0  0  0  0  0  0
    3.5910   11.9223   -3.2490 C   0  0  0  0  0  0  0  0  0  0  0  0
    2.5626   11.5374   -2.4121 C   0  0  0  0  0  0  0  0  0  0  0  0
    2.0291   10.2482   -2.4693 C   0  0  0  0  0  0  0  0  0  0  0  0
    2.5133    9.3214   -3.3635 C   0  0  0  0  0  0  0  0  0  0  0  0
    3.5523    9.6871   -4.2223 C   0  0  0  0  0  0  0  0  0  0  0  0
    5.8827    8.8359   -6.8502 C   0  0  0  0  0  0  0  0  0  0  0  0
    6.8795    9.2700   -7.6825 C   0  0  0  0  0  0  0  0  0  0  0  0
    7.3293   10.6073   -7.6472 C   0  0  0  0  0  0  0  0  0  0  0  0
    7.7042   11.6914   -7.6270 N   0  0  0  0  0  0  0  0  0  0  0  0
    7.5438    8.4767   -8.6384 C   0  0  0  0  0  0  0  0  0  0  0  0
    8.1266    7.8813   -9.4278 N   0  0  0  0  0  0  0  0  0  0  0  0
    5.3439    5.0588   -6.8472 C   0  0  0  0  0  0  0  0  0  0  0  0
    5.1794    3.9826   -7.7041 C   0  0  0  0  0  0  0  0  0  0  0  0
    5.3317    4.1718   -9.0229 F   0  0  0  0  0  0  0  0  0  0  0  0
    4.7848    2.7155   -7.2682 C   0  0  0  0  0  0  0  0  0  0  0  0
    4.5322    1.7994   -8.2165 F   0  0  0  0  0  0  0  0  0  0  0  0
    4.5773    2.4287   -5.9228 C   0  0  0  0  0  0  0  0  0  0  0  0
    4.7240    3.5283   -5.0222 C   0  0  0  0  0  0  0  0  0  0  0  0
    4.4140    3.3456   -3.7336 N   0  0  0  0  0  0  0  0  0  0  0  0
    4.5310    4.3257   -2.8749 C   0  0  0  0  0  0  0  0  0  0  0  0
    4.0201    4.0615   -1.4928 C   0  0  0  0  0  0  0  0  0  0  0  0
    2.5612    4.5153   -1.3938 C   0  0  0  0  0  0  0  0  0  0  0  0
    5.0900    5.5659   -3.2934 C   0  0  0  0  0  0  0  0  0  0  0  0
    5.3737    5.7681   -4.5543 N   0  0  0  0  0  0  0  0  0  0  0  0
    5.1420    4.8058   -5.4601 C   0  0  0  0  0  0  0  0  0  0  0  0
    5.4358    6.6733   -2.3449 C   0  0  0  0  0  0  0  0  0  0  0  0
    6.8210    6.4396   -1.7370 C   0  0  0  0  0  0  0  0  0  0  0  0
    4.1401    1.1638   -5.4146 C   0  0  0  0  0  0  0  0  0  0  0  0
    4.2965   -0.1090   -5.9498 C   0  0  0  0  0  0  0  0  0  0  0  0
    5.2245   -0.4778   -7.0168 C   0  0  0  0  0  0  0  0  0  0  0  0
    6.5117    0.0564   -7.0386 C   0  0  0  0  0  0  0  0  0  0  0  0
    7.4006   -0.3301   -8.0217 C   0  0  0  0  0  0  0  0  0  0  0  0
    7.0199   -1.2489   -8.9844 C   0  0  0  0  0  0  0  0  0  0  0  0
    5.7451   -1.8006   -8.9703 C   0  0  0  0  0  0  0  0  0  0  0  0
    5.3119   -2.7627  -10.0379 C   0  0  0  0  0  0  0  0  0  0  0  0
    4.6843   -2.0040  -11.2089 C   0  0  0  0  0  0  0  0  0  0  0  0
    4.8568   -1.4098   -7.9806 C   0  0  0  0  0  0  0  0  0  0  0  0
    3.5527   -1.0575   -5.2247 C   0  0  0  0  0  0  0  0  0  0  0  0
    3.3295   -2.7826   -5.4166 S   0  0  0  0  0  0  0  0  0  0  0  0
    2.3130   -2.7792   -4.0161 C   0  0  0  0  0  0  0  0  0  0  0  0
    1.5157   -3.6643   -3.2765 C   0  0  0  0  0  0  0  0  0  0  0  0
    1.1949   -5.0212   -3.4987 C   0  0  0  0  0  0  0  0  0  0  0  0
    0.2314   -5.6525   -2.6459 C   0  0  0  0  0  0  0  0  0  0  0  0
   -0.0164   -6.9037   -3.0001 N   0  0  0  0  0  0  0  0  0  0  0  0
    0.8902   -7.2581   -4.2942 S   0  0  0  0  0  0  0  0  0  0  0  0
    1.6316   -5.8280   -4.4531 N   0  0  0  0  0  0  0  0  0  0  0  0
   -0.2850   -4.9292   -1.5487 C   0  0  0  0  0  0  0  0  0  0  0  0
   -1.1487   -5.3229   -0.5176 C   0  0  0  0  0  0  0  0  0  0  0  0
   -2.0778   -6.7008   -0.0389 S   0  0  0  0  0  0  0  0  0  0  0  0
   -2.5706   -5.8305    1.3978 C   0  0  0  0  0  0  0  0  0  0  0  0
   -3.4317   -6.1656    2.4543 C   0  0  0  0  0  0  0  0  0  0  0  0
   -4.2497   -7.3766    2.4322 C   0  0  0  0  0  0  0  0  0  0  0  0
   -5.6176   -7.3029    2.6891 C   0  0  0  0  0  0  0  0  0  0  0  0
   -6.3950   -8.4406    2.6034 C   0  0  0  0  0  0  0  0  0  0  0  0
   -5.8222   -9.6535    2.2612 C   0  0  0  0  0  0  0  0  0  0  0  0
   -4.4625   -9.7425    1.9912 C   0  0  0  0  0  0  0  0  0  0  0  0
   -3.8263  -11.0616    1.6625 C   0  0  0  0  0  0  0  0  0  0  0  0
   -3.3102  -11.7322    2.9372 C   0  0  0  0  0  0  0  0  0  0  0  0
   -3.6868   -8.5970    2.0765 C   0  0  0  0  0  0  0  0  0  0  0  0
   -3.5089   -5.1335    3.3873 C   0  0  0  0  0  0  0  0  0  0  0  0
   -2.6223   -3.7032    2.8813 S   0  0  0  0  0  0  0  0  0  0  0  0
   -2.0295   -4.5436    1.4869 C   0  0  0  0  0  0  0  0  0  0  0  0
   -1.2288   -4.2515    0.3780 C   0  0  0  0  0  0  0  0  0  0  0  0
   -0.4782   -3.2012   -0.0788 N   0  0  0  0  0  0  0  0  0  0  0  0
    0.1086   -3.5864   -1.2738 C   0  0  0  0  0  0  0  0  0  0  0  0
    0.9364   -2.9140   -2.2112 C   0  0  0  0  0  0  0  0  0  0  0  0
    1.3561   -1.5986   -2.3331 N   0  0  0  0  0  0  0  0  0  0  0  0
    2.1738   -1.5191   -3.4278 C   0  0  0  0  0  0  0  0  0  0  0  0
    2.8705   -0.5263   -4.1266 C   0  0  0  0  0  0  0  0  0  0  0  0
    3.1835    1.1657   -3.9441 S   0  0  0  0  0  0  0  0  0  0  0  0
    0.8133   -0.3838   -1.7695 C   0  0  0  0  0  0  0  0  0  0  0  0
   -0.6633   -0.2150   -2.1192 C   0  0  0  0  0  0  0  0  0  0  0  0
   -0.1372   -2.1307    0.8304 C   0  0  0  0  0  0  0  0  0  0  0  0
    1.3301   -2.1965    1.2472 C   0  0  0  0  0  0  0  0  0  0  0  0
   -4.1527   -5.1039    4.6595 C   0  0  0  0  0  0  0  0  0  0  0  0
   -4.4541   -6.2225    5.4362 C   0  0  0  0  0  0  0  0  0  0  0  0
   -4.0487   -7.4492    5.0694 F   0  0  0  0  0  0  0  0  0  0  0  0
   -5.1143   -6.1166    6.6582 C   0  0  0  0  0  0  0  0  0  0  0  0
   -5.3510   -7.2459    7.3430 F   0  0  0  0  0  0  0  0  0  0  0  0
   -5.4669   -4.9009    7.2329 C   0  0  0  0  0  0  0  0  0  0  0  0
   -5.1525   -3.7295    6.4834 C   0  0  0  0  0  0  0  0  0  0  0  0
   -5.5614   -2.5246    6.9019 N   0  0  0  0  0  0  0  0  0  0  0  0
   -5.2023   -1.4481    6.2478 C   0  0  0  0  0  0  0  0  0  0  0  0
   -5.7079   -0.1449    6.7875 C   0  0  0  0  0  0  0  0  0  0  0  0
   -4.7050    0.4407    7.7849 C   0  0  0  0  0  0  0  0  0  0  0  0
   -4.3616   -1.5473    5.1056 C   0  0  0  0  0  0  0  0  0  0  0  0
   -4.0726   -2.7296    4.6216 N   0  0  0  0  0  0  0  0  0  0  0  0
   -4.4658   -3.8395    5.2521 C   0  0  0  0  0  0  0  0  0  0  0  0
   -3.8383   -0.3752    4.3339 C   0  0  0  0  0  0  0  0  0  0  0  0
   -4.7149   -0.1235    3.1045 C   0  0  0  0  0  0  0  0  0  0  0  0
   -6.1579   -4.8280    8.4824 C   0  0  0  0  0  0  0  0  0  0  0  0
   -5.9524   -3.8488    9.4053 C   0  0  0  0  0  0  0  0  0  0  0  0
   -4.7146   -3.0299    9.4895 C   0  0  0  0  0  0  0  0  0  0  0  0
   -3.7307   -3.0768    8.7835 O   0  0  0  0  0  0  0  0  0  0  0  0
   -4.8578   -2.2358   10.7286 C   0  0  0  0  0  0  0  0  0  0  0  0
   -3.9764   -1.3191   11.2712 C   0  0  0  0  0  0  0  0  0  0  0  0
   -4.3120   -0.7021   12.4655 C   0  0  0  0  0  0  0  0  0  0  0  0
   -5.5088   -1.0264   13.0913 C   0  0  0  0  0  0  0  0  0  0  0  0
   -5.9421   -0.1741   14.7334 Br  0  0  0  0  0  0  0  0  0  0  0  0
   -6.4010   -1.9533   12.5662 C   0  0  0  0  0  0  0  0  0  0  0  0
   -6.0671   -2.5609   11.3668 C   0  0  0  0  0  0  0  0  0  0  0  0
   -6.7770   -3.5510   10.5585 C   0  0  0  0  0  0  0  0  0  0  0  0
   -8.0374   -4.0269   10.8008 C   0  0  0  0  0  0  0  0  0  0  0  0
   -8.8156   -3.6746   11.9239 C   0  0  0  0  0  0  0  0  0  0  0  0
   -9.4898   -3.4256   12.8187 N   0  0  0  0  0  0  0  0  0  0  0  0
   -8.7440   -4.9038    9.9491 C   0  0  0  0  0  0  0  0  0  0  0  0
   -9.3919   -5.5913    9.2972 N   0  0  0  0  0  0  0  0  0  0  0  0
    6.4744    6.3908   -8.1065 H   0  0  0  0  0  0  0  0  0  0  0  0
    4.0028   12.9184   -3.2069 H   0  0  0  0  0  0  0  0  0  0  0  0
    2.1630   12.2458   -1.7026 H   0  0  0  0  0  0  0  0  0  0  0  0
    1.2235    9.9811   -1.8021 H   0  0  0  0  0  0  0  0  0  0  0  0
    2.1089    8.3232   -3.4278 H   0  0  0  0  0  0  0  0  0  0  0  0
    4.0727    2.9872   -1.3136 H   0  0  0  0  0  0  0  0  0  0  0  0
    4.6238    4.5778   -0.7471 H   0  0  0  0  0  0  0  0  0  0  0  0
    2.1739    4.3194   -0.3971 H   0  0  0  0  0  0  0  0  0  0  0  0
    1.9574    3.9748   -2.1184 H   0  0  0  0  0  0  0  0  0  0  0  0
    2.4724    5.5798   -1.5993 H   0  0  0  0  0  0  0  0  0  0  0  0
    4.6886    6.7471   -1.5546 H   0  0  0  0  0  0  0  0  0  0  0  0
    5.4438    7.6091   -2.9052 H   0  0  0  0  0  0  0  0  0  0  0  0
    6.8539    5.4992   -1.1909 H   0  0  0  0  0  0  0  0  0  0  0  0
    7.0702    7.2473   -1.0536 H   0  0  0  0  0  0  0  0  0  0  0  0
    7.5714    6.4057   -2.5231 H   0  0  0  0  0  0  0  0  0  0  0  0
    6.8128    0.7619   -6.2766 H   0  0  0  0  0  0  0  0  0  0  0  0
    8.3973    0.0861   -8.0369 H   0  0  0  0  0  0  0  0  0  0  0  0
    7.7204   -1.5432   -9.7525 H   0  0  0  0  0  0  0  0  0  0  0  0
    6.1721   -3.3320  -10.3957 H   0  0  0  0  0  0  0  0  0  0  0  0
    4.5823   -3.4640   -9.6286 H   0  0  0  0  0  0  0  0  0  0  0  0
    3.8233   -1.4328  -10.8699 H   0  0  0  0  0  0  0  0  0  0  0  0
    5.4033   -1.3108  -11.6394 H   0  0  0  0  0  0  0  0  0  0  0  0
    4.3617   -2.6968  -11.9826 H   0  0  0  0  0  0  0  0  0  0  0  0
    3.8571   -1.8186   -7.9703 H   0  0  0  0  0  0  0  0  0  0  0  0
   -6.0664   -6.3520    2.9408 H   0  0  0  0  0  0  0  0  0  0  0  0
   -7.4550   -8.3814    2.8026 H   0  0  0  0  0  0  0  0  0  0  0  0
   -6.4376  -10.5394    2.1997 H   0  0  0  0  0  0  0  0  0  0  0  0
   -4.5551  -11.7154    1.1799 H   0  0  0  0  0  0  0  0  0  0  0  0
   -2.9940  -10.9076    0.9729 H   0  0  0  0  0  0  0  0  0  0  0  0
   -2.8446  -12.6867    2.7035 H   0  0  0  0  0  0  0  0  0  0  0  0
   -4.1290  -11.9043    3.6320 H   0  0  0  0  0  0  0  0  0  0  0  0
   -2.5770  -11.0963    3.4277 H   0  0  0  0  0  0  0  0  0  0  0  0
   -2.6254   -8.6565    1.8852 H   0  0  0  0  0  0  0  0  0  0  0  0
    1.3833    0.4391   -2.2079 H   0  0  0  0  0  0  0  0  0  0  0  0
    0.9785   -0.3512   -0.6923 H   0  0  0  0  0  0  0  0  0  0  0  0
   -0.7818   -0.1509   -3.1981 H   0  0  0  0  0  0  0  0  0  0  0  0
   -1.2521   -1.0573   -1.7634 H   0  0  0  0  0  0  0  0  0  0  0  0
   -1.0488    0.6985   -1.6744 H   0  0  0  0  0  0  0  0  0  0  0  0
   -0.7690   -2.2654    1.7120 H   0  0  0  0  0  0  0  0  0  0  0  0
   -0.3904   -1.1620    0.3985 H   0  0  0  0  0  0  0  0  0  0  0  0
    1.5633   -1.3749    1.9193 H   0  0  0  0  0  0  0  0  0  0  0  0
    1.9886   -2.1440    0.3833 H   0  0  0  0  0  0  0  0  0  0  0  0
    1.5254   -3.1326    1.7648 H   0  0  0  0  0  0  0  0  0  0  0  0
   -6.6497   -0.3368    7.3036 H   0  0  0  0  0  0  0  0  0  0  0  0
   -5.8871    0.5623    5.9772 H   0  0  0  0  0  0  0  0  0  0  0  0
   -4.5364   -0.2634    8.5949 H   0  0  0  0  0  0  0  0  0  0  0  0
   -3.7494    0.6427    7.3062 H   0  0  0  0  0  0  0  0  0  0  0  0
   -5.0897    1.3683    8.2016 H   0  0  0  0  0  0  0  0  0  0  0  0
   -2.8278   -0.6171    4.0010 H   0  0  0  0  0  0  0  0  0  0  0  0
   -3.8031    0.5162    4.9579 H   0  0  0  0  0  0  0  0  0  0  0  0
   -4.7228   -1.0071    2.4719 H   0  0  0  0  0  0  0  0  0  0  0  0
   -5.7381    0.1012    3.3981 H   0  0  0  0  0  0  0  0  0  0  0  0
   -4.3264    0.7151    2.5322 H   0  0  0  0  0  0  0  0  0  0  0  0
   -6.8792   -5.6120    8.6760 H   0  0  0  0  0  0  0  0  0  0  0  0
   -3.0488   -1.0930   10.7680 H   0  0  0  0  0  0  0  0  0  0  0  0
   -3.6519    0.0236   12.9148 H   0  0  0  0  0  0  0  0  0  0  0  0
   -7.3137   -2.1822   13.0920 H   0  0  0  0  0  0  0  0  0  0  0  0
  1  2  2  0  0  0  0
  2  3  1  0  0  0  0
  3  4  2  0  0  0  0
  3  5  1  0  0  0  0
  5  6  2  0  0  0  0
  6  7  1  0  0  0  0
  7  8  1  0  0  0  0
  8  9  2  0  0  0  0
  9 10  1  0  0  0  0
 10 11  2  0  0  0  0
 11 12  1  0  0  0  0
 12 13  2  0  0  0  0
  6 14  1  0  0  0  0
 14 15  2  0  0  0  0
 15 16  1  0  0  0  0
 16 17  3  0  0  0  0
 15 18  1  0  0  0  0
 18 19  3  0  0  0  0
  1 20  1  0  0  0  0
 20 21  2  0  0  0  0
 21 22  1  0  0  0  0
 21 23  1  0  0  0  0
 23 24  1  0  0  0  0
 23 25  2  0  0  0  0
 25 26  1  0  0  0  0
 26 27  2  0  0  0  0
 27 28  1  0  0  0  0
 28 29  1  0  0  0  0
 29 30  1  0  0  0  0
 28 31  2  0  0  0  0
 31 32  1  0  0  0  0
 32 33  2  0  0  0  0
 31 34  1  0  0  0  0
 34 35  1  0  0  0  0
 25 36  1  0  0  0  0
 36 37  2  0  0  0  0
 37 38  1  0  0  0  0
 38 39  2  0  0  0  0
 39 40  1  0  0  0  0
 40 41  2  0  0  0  0
 41 42  1  0  0  0  0
 42 43  1  0  0  0  0
 43 44  1  0  0  0  0
 42 45  2  0  0  0  0
 37 46  1  0  0  0  0
 46 47  1  0  0  0  0
 47 48  1  0  0  0  0
 48 49  1  0  0  0  0
 49 50  1  0  0  0  0
 50 51  1  0  0  0  0
 51 52  2  0  0  0  0
 52 53  1  0  0  0  0
 53 54  1  0  0  0  0
 51 55  1  0  0  0  0
 55 56  1  0  0  0  0
 56 57  1  0  0  0  0
 57 58  1  0  0  0  0
 58 59  1  0  0  0  0
 59 60  1  0  0  0  0
 60 61  2  0  0  0  0
 61 62  1  0  0  0  0
 62 63  2  0  0  0  0
 63 64  1  0  0  0  0
 64 65  1  0  0  0  0
 65 66  1  0  0  0  0
 64 67  2  0  0  0  0
 59 68  2  0  0  0  0
 68 69  1  0  0  0  0
 69 70  1  0  0  0  0
 70 71  1  0  0  0  0
 71 72  1  0  0  0  0
 72 73  1  0  0  0  0
 73 74  1  0  0  0  0
 74 75  1  0  0  0  0
 75 76  1  0  0  0  0
 76 77  1  0  0  0  0
 77 78  1  0  0  0  0
 75 79  1  0  0  0  0
 79 80  1  0  0  0  0
 72 81  1  0  0  0  0
 81 82  1  0  0  0  0
 68 83  1  0  0  0  0
 83 84  2  0  0  0  0
 84 85  1  0  0  0  0
 84 86  1  0  0  0  0
 86 87  1  0  0  0  0
 86 88  2  0  0  0  0
 88 89  1  0  0  0  0
 89 90  2  0  0  0  0
 90 91  1  0  0  0  0
 91 92  1  0  0  0  0
 92 93  1  0  0  0  0
 91 94  2  0  0  0  0
 94 95  1  0  0  0  0
 95 96  2  0  0  0  0
 94 97  1  0  0  0  0
 97 98  1  0  0  0  0
 88 99  1  0  0  0  0
 99100  2  0  0  0  0
100101  1  0  0  0  0
101102  2  0  0  0  0
101103  1  0  0  0  0
103104  2  0  0  0  0
104105  1  0  0  0  0
105106  2  0  0  0  0
106107  1  0  0  0  0
106108  1  0  0  0  0
108109  2  0  0  0  0
109110  1  0  0  0  0
110111  2  0  0  0  0
111112  1  0  0  0  0
112113  3  0  0  0  0
111114  1  0  0  0  0
114115  3  0  0  0  0
 14  2  1  0  0  0  0
 33 20  1  0  0  0  0
 78 36  1  0  0  0  0
 96 83  1  0  0  0  0
110100  1  0  0  0  0
 13  5  1  0  0  0  0
 33 26  1  0  0  0  0
 45 38  1  0  0  0  0
 77 46  2  0  0  0  0
 96 89  1  0  0  0  0
109103  1  0  0  0  0
 13  8  1  0  0  0  0
 76 48  2  0  0  0  0
 74 49  2  0  0  0  0
 54 50  2  0  0  0  0
 73 55  2  0  0  0  0
 71 56  2  0  0  0  0
 70 58  2  0  0  0  0
 67 60  1  0  0  0  0
  1116  1  0  0  0  0
  9117  1  0  0  0  0
 10118  1  0  0  0  0
 11119  1  0  0  0  0
 12120  1  0  0  0  0
 29121  1  0  0  0  0
 29122  1  0  0  0  0
 30123  1  0  0  0  0
 30124  1  0  0  0  0
 30125  1  0  0  0  0
 34126  1  0  0  0  0
 34127  1  0  0  0  0
 35128  1  0  0  0  0
 35129  1  0  0  0  0
 35130  1  0  0  0  0
 39131  1  0  0  0  0
 40132  1  0  0  0  0
 41133  1  0  0  0  0
 43134  1  0  0  0  0
 43135  1  0  0  0  0
 44136  1  0  0  0  0
 44137  1  0  0  0  0
 44138  1  0  0  0  0
 45139  1  0  0  0  0
 61140  1  0  0  0  0
 62141  1  0  0  0  0
 63142  1  0  0  0  0
 65143  1  0  0  0  0
 65144  1  0  0  0  0
 66145  1  0  0  0  0
 66146  1  0  0  0  0
 66147  1  0  0  0  0
 67148  1  0  0  0  0
 79149  1  0  0  0  0
 79150  1  0  0  0  0
 80151  1  0  0  0  0
 80152  1  0  0  0  0
 80153  1  0  0  0  0
 81154  1  0  0  0  0
 81155  1  0  0  0  0
 82156  1  0  0  0  0
 82157  1  0  0  0  0
 82158  1  0  0  0  0
 92159  1  0  0  0  0
 92160  1  0  0  0  0
 93161  1  0  0  0  0
 93162  1  0  0  0  0
 93163  1  0  0  0  0
 97164  1  0  0  0  0
 97165  1  0  0  0  0
 98166  1  0  0  0  0
 98167  1  0  0  0  0
 98168  1  0  0  0  0
 99169  1  0  0  0  0
104170  1  0  0  0  0
105171  1  0  0  0  0
108172  1  0  0  0  0
M  END
