176

C         -9.81740        5.53880       -3.12970
C        -10.05510        4.93930       -4.32870
C         -9.20710        3.87640       -4.94220
O         -8.09650        3.51810       -4.60180
C        -10.03630        3.30740       -6.00920
C        -11.23760        3.98660       -6.07350
S        -12.29730        3.40990       -7.30120
C        -11.10780        2.20030       -7.75030
C        -11.24520        1.25880       -8.75780
C        -10.20480        0.37830       -8.97780
C         -9.04040        0.43150       -8.20920
C         -8.89470        1.36400       -7.20790
C         -9.93360        2.26480       -6.96440
C        -11.28980        5.03680       -5.09180
C        -12.27850        5.97880       -4.97840
C        -13.42090        5.94220       -5.80430
N        -14.35480        5.91680       -6.47060
C        -12.23340        7.07910       -4.10050
N        -12.22710        8.01700       -3.43810
C         -8.61530        5.39980       -2.36460
C         -7.31810        5.40410       -2.88200
O         -6.95040        5.95140       -4.05670
C         -7.78470        6.83200       -4.77650
C         -6.88760        7.82240       -5.50580
C         -6.22420        4.94740       -2.08450
O         -4.97580        4.80220       -2.58130
C         -4.78610        4.39050       -3.93330
C         -3.56160        3.48840       -3.97570
C         -6.38120        4.73090       -0.72030
C         -7.68560        4.81960       -0.14950
C         -8.79040        5.17070       -0.96290
N        -10.02260        5.26040       -0.43660
C        -10.16100        5.00990        0.84210
C         -9.08220        4.57980        1.62650
N         -7.87300        4.48250        1.13440
C         -5.25040        4.41590        0.11700
C         -5.02950        4.80360        1.42580
C         -5.82800        5.79850        2.14070
C         -6.14670        5.62380        3.48400
C         -6.92530        6.56190        4.13380
C         -7.38960        7.67760        3.45870
C         -7.05480        7.88420        2.12650
C         -7.57960        9.06900        1.36570
C         -8.76260        8.65810        0.48680
C         -6.26310        6.94600        1.48410
C         -3.87730        4.18490        1.95280
S         -3.09720        4.25500        3.51620
C         -1.88600        3.16190        2.93660
C         -0.75850        2.46840        3.40880
C         -0.20850        2.36080        4.70460
C          0.86660        1.43580        4.92870
N          1.23700        1.38790        6.19880
S          0.31740        2.42300        7.03960
N         -0.59100        2.96970        5.81600
C          1.42500        0.75890        3.82320
C          2.54740       -0.07910        3.71840
S          3.73780       -0.80980        4.74200
C          4.51420       -1.46900        3.32320
C          5.66260       -2.26540        3.14210
C          6.60610       -2.65910        4.18930
C          6.18000       -3.19800        5.39830
C          7.11370       -3.55830        6.35170
C          8.46680       -3.37920        6.11550
C          8.90800       -2.81830        4.92330
C         10.36800       -2.58760        4.64850
C         10.87030       -3.41930        3.46730
C          7.96550       -2.46130        3.97150
C          5.87220       -2.54310        1.80800
S          4.70750       -1.77770        0.75770
C          3.87500       -1.12850        2.12880
C          2.74080       -0.33690        2.36000
N          1.77070        0.29010        1.62360
C          0.93210        0.95170        2.50210
C         -0.25160        1.71250        2.31540
N         -1.07510        1.91930        1.21740
C         -2.06730        2.78330        1.60580
C         -3.21290        3.36110        1.04290
S         -4.00190        3.35480       -0.49320
C         -1.33620        1.04460        0.09490
C         -1.96730       -0.26620        0.56010
C          1.95700        0.47040        0.20220
C          1.57820       -0.77710       -0.59450
C          6.90990       -3.39680        1.26580
C          7.15180       -4.66330        1.78280
O          6.32910       -5.22410        2.71580
C          4.92460       -5.22370        2.46540
C          4.40470       -6.65540        2.48360
C          8.26080       -5.43510        1.33110
O          8.64040       -6.62550        1.81990
C          8.14660       -7.23360        3.00880
C          8.57060       -6.50350        4.27330
C          9.04610       -4.97640        0.25710
C          8.78480       -3.68570       -0.29190
C          7.71020       -2.90590        0.19870
N          7.44760       -1.69220       -0.31260
C          8.20870       -1.26700       -1.28940
C          9.27340       -2.03860       -1.77970
N          9.55330       -3.22100       -1.29170
C         10.12910       -5.70250       -0.32170
C         10.41500       -7.03030       -0.41930
C         11.80590       -7.41570       -0.80130
O         12.67920       -6.68010       -1.19880
C         11.89500       -8.86800       -0.54790
C         12.98880       -9.70660       -0.64580
C         12.82870      -11.04690       -0.33080
C         11.58550      -11.51700        0.07640
Cl        11.40910      -13.18360        0.47750
C         10.47360      -10.68540        0.17090
C         10.63540       -9.34840       -0.14880
C          9.67370       -8.24410       -0.18310
C          8.31080       -8.39670       -0.17650
C          7.64560       -9.61310        0.07920
N          7.03460      -10.55510        0.31920
C          7.38640       -7.37430       -0.45800
N          6.57780       -6.58980       -0.68200
H        -10.63490        6.02660       -2.61360
H        -12.14580        1.21960       -9.35020
H        -10.29360       -0.36380       -9.75640
H         -8.24570       -0.27190       -8.40660
H         -8.00220        1.41650       -6.60420
H         -8.47000        7.35430       -4.09610
H         -8.38790        6.26790       -5.50200
H         -6.21690        7.29250       -6.17670
H         -7.49820        8.51050       -6.08280
H         -6.29340        8.38690       -4.79200
H         -4.62550        5.27670       -4.55710
H         -5.66950        3.85750       -4.29340
H         -3.34610        3.21540       -5.00470
H         -3.73860        2.58680       -3.39580
H         -2.70430        4.00720       -3.55540
H        -11.15620        5.12390        1.24940
H         -9.20390        4.29730        2.66270
H         -5.80800        4.74210        4.00530
H         -7.17980        6.41930        5.17400
H         -8.01090        8.39860        3.97080
H         -7.89960        9.84630        2.06180
H         -6.78960        9.48080        0.73330
H         -9.56190        8.24150        1.09630
H         -9.15330        9.51490       -0.05690
H         -8.45800        7.90090       -0.23330
H         -5.98160        7.10450        0.45200
H          5.12580       -3.33850        5.58410
H          6.78490       -3.98310        7.28860
H          9.18570       -3.66770        6.86870
H         10.52330       -1.52850        4.42480
H         10.95230       -2.83210        5.53770
H         10.76540       -4.48100        3.67540
H         10.30680       -3.19440        2.56420
H         11.92010       -3.20880        3.27750
H          8.28780       -1.99730        3.05020
H         -2.03250        1.57710       -0.55790
H         -0.43160        0.84850       -0.47310
H         -1.30370       -0.78750        1.24720
H         -2.16850       -0.90720       -0.29400
H         -2.90510       -0.06830        1.07400
H          3.01980        0.67870        0.03270
H          1.39740        1.35100       -0.11600
H          0.56870       -1.10600       -0.36570
H          2.26120       -1.58790       -0.35670
H          1.65140       -0.57030       -1.65880
H          4.44070       -4.63470        3.25210
H          4.71150       -4.77050        1.49410
H          4.62950       -7.12810        3.43640
H          3.32780       -6.64790        2.34060
H          4.85860       -7.23190        1.68020
H          7.06220       -7.34090        2.97130
H          8.60290       -8.22910        2.97960
H          9.65420       -6.42090        4.31400
H          8.13310       -5.51030        4.30870
H          8.23030       -7.06410        5.13900
H          7.97940       -0.28970       -1.69090
H          9.91160       -1.68410       -2.57740
H         10.88220       -5.05970       -0.77120
H         13.94360       -9.31680       -0.96280
H         13.66030      -11.73050       -0.39670
H          9.52770      -11.09000        0.49210
