147

C          4.15520       -5.88320       10.22890
C          4.55560       -4.81360       10.94440
C          4.23490       -3.38390       10.60120
O          3.54130       -2.98720        9.69270
C          4.85260       -2.59860       11.66870
C          5.43650       -3.44670       12.59310
S          6.17590       -2.62630       13.91380
C          5.69320       -1.08710       13.22240
C          5.95070        0.16410       13.75940
C          5.49250        1.27490       13.07890
C          4.78810        1.14790       11.87980
C          4.52850       -0.09020       11.33880
C          4.98070       -1.22920       12.00900
C          5.27410       -4.82360       12.21910
C          5.73840       -5.89690       12.93030
C          5.58580       -7.24790       12.56150
N          5.49030       -8.36470       12.31390
C          6.43170       -5.72220       14.14820
N          6.99200       -5.59700       15.14100
C          3.55420       -5.79740        8.91030
C          4.10070       -5.00460        7.89580
F          5.26910       -4.37400        8.10770
C          3.52310       -4.90300        6.65200
C          2.34840       -5.59730        6.35050
C          1.81000       -6.40050        7.36420
F          0.64650       -7.04600        7.16090
C          2.40290       -6.52170        8.60080
C          1.71500       -5.43200        5.06140
C          1.04920       -6.35130        4.27820
C          1.00580       -7.79280        4.52180
C          2.14080       -8.46940        4.96260
C          2.09260       -9.83490        5.16430
C          0.92270      -10.53520        4.92680
C         -0.21490       -9.87780        4.47640
C         -1.49950      -10.62320        4.25730
C         -2.33850      -10.62020        5.53670
C         -0.16150       -8.50700        4.27700
C          0.49530       -5.73570        3.13290
S         -0.44520       -6.34810        1.79380
C         -0.47720       -4.75590        1.11650
C         -1.03810       -4.07200        0.02420
C         -1.94260       -4.49660       -0.97310
C         -2.47940       -3.52450       -1.88270
N         -3.36190       -4.04750       -2.71950
S         -3.50170       -5.62780       -2.39480
N         -2.44310       -5.70580       -1.17260
C         -1.98740       -2.20220       -1.83480
C         -2.21290       -1.09900       -2.67300
S         -3.18150       -0.67220       -4.04190
C         -2.37910        0.87910       -4.09140
C         -2.53820        1.99900       -4.92840
C         -3.57450        2.05530       -5.96300
C         -4.49700        3.09820       -5.99050
C         -5.50760        3.09550       -6.93270
C         -5.60540        2.06300       -7.85030
C         -4.69620        1.01340       -7.83330
C         -4.83040       -0.14570       -8.77730
C         -5.58960       -1.28850       -8.09990
C         -3.68770        1.01780       -6.88040
C         -1.65640        3.00970       -4.58420
S         -0.66130        2.58890       -3.19840
C         -1.41690        1.03940       -3.09090
C         -1.33310       -0.09120       -2.26870
N         -0.59500       -0.51870       -1.19720
C         -0.99610       -1.80620       -0.89320
C         -0.61960       -2.71680        0.12860
N          0.14520       -2.57740        1.27850
C          0.21410       -3.81060        1.87470
C          0.76560       -4.37070        3.03490
S          1.70830       -3.81790        4.37090
C          0.33570       -1.40600        2.10700
C         -0.98980       -0.93800        2.70400
C          0.60220        0.19730       -0.81960
C          0.29630        1.42920        0.03090
C         -1.41250        4.24890       -5.23940
C         -1.76770        4.62110       -6.51620
C         -1.34630        5.91120       -6.86870
S         -1.42150        6.55110       -8.48630
C         -2.82650        5.65450       -9.23470
C         -4.13170        5.98830       -8.54210
C         -0.65920        6.56270       -5.84200
S         -0.49260        5.49630       -4.45900
C         -0.05210        7.82850       -5.73290
C         -0.40640        9.01060       -6.32340
C         -1.69800        9.30960       -6.98240
O         -2.63380        8.55060       -7.14830
C         -1.64020       10.73920       -7.31100
C         -0.43920       11.25730       -6.87300
S         -0.25200       12.94100       -7.18900
C         -1.84010       12.97050       -7.93220
C         -2.45940       14.08000       -8.48570
C         -3.71840       13.92450       -9.03010
C         -4.35700       12.68280       -9.02650
C         -3.74920       11.57600       -8.48040
C         -2.47540       11.70650       -7.92290
C          0.36870       10.23850       -6.25310
C          1.63240       10.43590       -5.75710
C          2.23520       11.71080       -5.78920
N          2.73870       12.74200       -5.80580
C          2.45790        9.44710       -5.18970
N          3.18820        8.69290       -4.72360
H          4.26430       -6.88090       10.63460
H          6.49520        0.26100       14.68550
H          5.68240        2.25830       13.48110
H          4.44450        2.03720       11.37370
H          3.98590       -0.20700       10.41400
H          3.98860       -4.27850        5.90520
H          1.93540       -7.14350        9.34820
H          3.06010       -7.92650        5.13050
H          2.97450      -10.35710        5.50550
H          0.89350      -11.60330        5.08780
H         -2.06650      -10.15150        3.45250
H         -1.28570      -11.65400        3.96800
H         -2.56100       -9.59960        5.83930
H         -3.27520      -11.15000        5.37910
H         -1.79630      -11.10440        6.34570
H         -1.04520       -7.98350        3.94320
H         -4.42390        3.89520       -5.26500
H         -6.22890        3.89930       -6.94730
H         -6.39970        2.06880       -8.58270
H         -5.36720        0.16470       -9.67580
H         -3.84050       -0.49870       -9.07370
H         -5.06710       -1.61040       -7.20200
H         -6.58750       -0.96230       -7.81540
H         -5.67990       -2.13660       -8.77420
H         -2.97290        0.20800       -6.85530
H          0.80460       -0.60020        1.55060
H          1.01810       -1.69750        2.90930
H         -1.69100       -0.66990        1.91620
H         -0.82570       -0.07370        3.34200
H         -1.43360       -1.73070        3.30200
H          1.28090       -0.49390       -0.31850
H          1.09430        0.52700       -1.74190
H         -0.25200        2.15940       -0.55800
H          1.22450        1.88720        0.36160
H         -0.30420        1.17630        0.90000
H         -2.28440        3.95280       -7.17850
H         -2.82630        6.01010      -10.26530
H         -2.61250        4.58620       -9.23260
H         -4.25860        7.06640       -8.49100
H         -4.96350        5.55170       -9.09130
H         -4.14050        5.59840       -7.52760
H          0.77240        7.86030       -5.02890
H         -1.96390       15.03820       -8.48690
H         -4.21750       14.77700       -9.46520
H         -5.34210       12.59550       -9.45950
H         -4.23010       10.61050       -8.46840
