252

C         -4.59430       11.68800       -0.24350
C         -4.68270       12.94780       -0.79320
C         -3.76050       13.48470       -1.81740
O         -2.78890       12.93230       -2.30040
C         -4.19970       14.87250       -2.03320
C         -5.26970       15.13880       -1.20910
S         -5.92840       16.71720       -1.41380
C         -4.72480       17.05250       -2.64430
C         -4.59480       18.23350       -3.35750
C         -3.59110       18.32230       -4.30130
C         -2.72690       17.25120       -4.53700
C         -2.84870       16.07530       -3.83310
C         -3.85390       15.96120       -2.87060
C         -5.61160       13.98230       -0.41700
C         -6.71430       13.88420        0.39800
C         -7.11540       12.71270        1.06300
N         -7.50790       11.78170        1.61010
C         -7.59030       14.97160        0.57150
N         -8.32190       15.84700        0.70480
C         -3.99810       10.57620       -0.84120
C         -3.73440       10.27310       -2.19380
N         -4.21320       10.92010       -3.29410
C         -3.59600       10.67330       -4.54470
C         -2.23590       10.90220       -4.71540
C         -1.64160       10.61480       -5.92930
C         -2.38250       10.09740       -6.98490
C         -1.72480        9.73120       -8.27860
C         -3.74780        9.90280       -6.80850
C         -4.35630       10.19020       -5.60370
C         -5.34590       11.74440       -3.29400
C         -5.36030       12.88310       -4.09820
C         -6.44620       13.73710       -4.07880
C         -7.54490       13.48350       -3.26730
C         -8.68820       14.44480       -3.18330
C         -7.54720       12.31360       -2.51200
C         -6.46990       11.45230       -2.52270
C         -3.00710        9.06260       -2.29050
S         -2.37550        8.15470       -3.62130
C         -1.91550        6.84720       -2.54220
C         -2.24470        7.10650       -1.21600
N         -2.10080        6.24400       -0.13900
C         -2.26450        4.86280       -0.28090
C         -3.16410        4.33980       -1.20940
C         -3.20010        2.98410       -1.46040
C         -2.36970        2.10310       -0.77540
C         -2.36960        0.64300       -1.11140
C         -1.53720        2.62080        0.20830
C         -1.47690        3.97840        0.45530
C         -1.78050        6.79690        1.11290
C         -0.86130        7.83810        1.20640
C         -0.56750        8.39590        2.43480
C         -1.16760        7.92760        3.59660
C         -0.86660        8.55290        4.92390
C         -2.07460        6.87870        3.49470
C         -2.38480        6.31880        2.27220
C         -2.83730        8.38680       -1.09110
S         -3.51020        9.25630        0.23750
C         -1.33500        5.66660       -3.09670
C         -1.65070        5.04550       -4.29060
C         -2.62090        5.51850       -5.28280
C         -3.91720        5.88200       -4.93200
C         -4.79760        6.31940       -5.90200
C         -4.40220        6.38390       -7.22620
C         -3.12010        6.00290       -7.59860
C         -2.71010        5.98760       -9.04310
C         -3.01230        4.61960       -9.65850
C         -2.23940        5.57220       -6.61840
C         -0.96140        3.82430       -4.42770
S         -1.09460        2.52250       -5.58620
C         -0.09520        1.54090       -4.56510
C          0.36250        0.21290       -4.47850
C          0.31710       -0.87520       -5.37770
C          0.89960       -2.13060       -4.98440
N          0.83090       -3.04040       -5.94270
S          0.09430       -2.38240       -7.22590
N         -0.16820       -0.90810       -6.60840
C          1.36440       -2.28430       -3.65900
C          1.70190       -3.42760       -2.91390
S          1.87970       -5.13410       -3.14480
C          2.11940       -5.31990       -1.42740
C          2.33710       -6.44630       -0.60760
C          2.29360       -7.84270       -1.03850
C          2.82860       -8.24540       -2.25820
C          2.78240       -9.57790       -2.62190
C          2.18930      -10.51460       -1.79260
C          1.60930      -10.12490       -0.59160
C          0.92710      -11.11460        0.31260
C          1.68410      -11.31690        1.62670
C          1.66770       -8.78760       -0.22960
C          2.50220       -6.07650        0.71190
S          2.28630       -4.35490        0.96800
C          2.07360       -4.11280       -0.72960
C          1.84400       -3.02500       -1.58380
N          1.65380       -1.67170       -1.48430
C          1.36450       -1.19380       -2.74870
C          1.00900        0.09430       -3.21890
N          1.02800        1.33440       -2.60450
C          0.34080        2.20130       -3.41400
C         -0.13530        3.51510       -3.34780
S         -0.08120        4.80810       -2.20930
C          1.98960        1.83430       -1.64760
C          3.01060        2.75530       -2.31520
C          1.44420       -1.05350       -0.19480
C          2.75150       -0.87900        0.57730
C          2.97990       -6.93360        1.75570
C          4.10520       -7.74410        1.67310
N          5.03050       -7.72420        0.65220
C          5.77410       -8.89290        0.38610
C          5.13370      -10.12320        0.28970
C          5.87130      -11.27410        0.10050
C          7.25590      -11.22840       -0.00150
C          8.05070      -12.48920       -0.12650
C          7.88110       -9.98840        0.05240
C          7.15540       -8.82920        0.24380
C          5.28020       -6.56640       -0.09480
C          5.52700       -6.66160       -1.46250
C          5.66980       -5.52010       -2.22440
C          5.58920       -4.25660       -1.64980
C          5.65140       -3.02320       -2.49770
C          5.42660       -4.17240       -0.27350
C          5.27970       -5.30730        0.50000
C          4.21280       -8.57240        2.81850
S          5.26230       -9.87280        3.24490
C          4.40090      -10.08090        4.77350
C          3.28580       -9.20470        4.87800
N          2.37140       -9.19650        5.89530
C          1.74430       -7.97930        6.22680
C          0.37110       -7.92270        6.44000
C         -0.22820       -6.72080        6.76100
C          0.51730       -5.55350        6.87290
C         -0.13140       -4.25300        7.23280
C          1.89040       -5.62260        6.66440
C          2.50290       -6.81790        6.34880
C          1.94610      -10.37120        6.54390
C          1.63760      -10.34220        7.90150
C          1.22260      -11.49440        8.53840
C          1.11330      -12.69740        7.85070
C          0.70180      -13.94440        8.57030
C          1.40400      -12.70990        6.49120
C          1.80640      -11.56300        5.83680
C          3.22170       -8.34780        3.76820
S          2.12390       -7.09460        3.28150
C          4.81200      -10.91650        5.80440
C          5.80960      -11.87130        5.84370
C          6.60660      -12.33180        4.70610
O          6.62410      -11.88860        3.57280
C          7.38810      -13.48480        5.20730
C          8.29100      -14.30760        4.56310
F          8.58550      -14.12990        3.26760
C          8.91020      -15.34030        5.25670
C          8.61430      -15.53520        6.59390
C          7.70930      -14.71970        7.26410
C          7.09470      -13.69370        6.56720
C          6.12730      -12.67780        6.99190
C          5.64670      -12.53520        8.27330
C          5.93560      -13.41600        9.33330
N          6.10770      -14.10200       10.23910
C          4.82490      -11.48670        8.72730
N          4.18550      -10.65220        9.19440
H         -5.00610       11.52610        0.74570
H         -5.26480       19.05900       -3.17430
H         -3.47290       19.23450       -4.86630
H         -1.95280       17.35290       -5.28280
H         -2.18760       15.23950       -4.00160
H         -1.66900       11.31520       -3.89530
H         -0.58380       10.79230       -6.05720
H         -2.39510        9.90100       -9.11810
H         -0.81330       10.30420       -8.43010
H         -1.46470        8.67260       -8.26470
H         -4.33920        9.51110       -7.62260
H         -5.41620       10.03010       -5.46990
H         -4.50530       13.10290       -4.71980
H         -6.42800       14.62730       -4.69120
H         -8.60300       15.04940       -2.27880
H         -9.63690       13.91480       -3.13570
H         -8.69770       15.11580       -4.03840
H         -8.40390       12.07930       -1.89660
H         -6.49680       10.55210       -1.92730
H         -3.82050        5.00720       -1.74700
H         -3.87990        2.60140       -2.20790
H         -3.38740        0.26590       -1.19100
H         -1.84150        0.06670       -0.35520
H         -1.88090        0.47930       -2.07320
H         -0.90530        1.95370        0.77880
H         -0.79070        4.36670        1.19310
H         -0.37740        8.20450        0.31250
H          0.14480        9.20630        2.49120
H         -0.91620        7.81510        5.72150
H          0.12040        9.00950        4.92410
H         -1.59880        9.33140        5.14080
H         -2.55430        6.50190        4.38650
H         -3.10050        5.51270        2.20540
H         -4.23570        5.81120       -3.90290
H         -5.80190        6.60440       -5.62450
H         -5.09900        6.72160       -7.98000
H         -3.25130        6.75990       -9.59360
H         -1.64010        6.18820       -9.12980
H         -2.47870        3.83880       -9.12130
H         -2.70820        4.59580      -10.70240
H         -4.07730        4.40630       -9.60120
H         -1.23590        5.27900       -6.89250
H          3.28410       -7.51610       -2.90950
H          3.21080       -9.89010       -3.56290
H          2.16310      -11.55380       -2.08740
H         -0.07920      -10.75190        0.53980
H          0.83170      -12.07400       -0.19930
H          2.67280      -11.73310        1.44420
H          1.80150      -10.37060        2.15140
H          1.13630      -12.00230        2.27060
H          1.19550       -8.46870        0.68840
H          1.45640        2.38200       -0.86290
H          2.52020        0.99170       -1.21540
H          3.75810        3.05690       -1.58650
H          3.50710        2.23670       -3.13290
H          2.53270        3.64860       -2.70660
H          0.78590       -1.71020        0.38620
H          0.92850       -0.10360       -0.33720
H          3.16870       -1.85150        0.82300
H          2.56290       -0.34090        1.50200
H          3.49130       -0.33110       -0.00230
H          4.05860      -10.16240        0.36470
H          5.36490      -12.22640        0.04090
H          9.02950      -12.29670       -0.55910
H          8.19370      -12.92030        0.86440
H          7.52810      -13.22130       -0.73850
H          8.95630       -9.93020       -0.03700
H          7.65330       -7.87170        0.30010
H          5.58300       -7.63820       -1.91910
H          5.82740       -5.60940       -3.28960
H          5.94940       -2.15900       -1.90800
H          6.35370       -3.15080       -3.31840
H          4.66920       -2.82030       -2.92810
H          5.40840       -3.20250        0.20390
H          5.15400       -5.22110        1.56980
H         -0.22060       -8.82110        6.34580
H         -1.29640       -6.68860        6.91900
H         -1.20190       -4.28740        7.04710
H          0.02400       -4.03890        8.29060
H          0.30110       -3.43560        6.65990
H          2.48840       -4.72770        6.75620
H          3.57210       -6.86280        6.20120
H          1.73990       -9.42140        8.45360
H          0.99980      -11.46290        9.59410
H          0.54910      -14.76580        7.87490
H         -0.21930      -13.77890        9.12670
H          1.47210      -14.23450        9.28480
H          1.30810      -13.62990        5.93250
H          2.02450      -11.58740        4.77920
H          4.24560      -10.80050        6.71930
H          9.61370      -15.97430        4.74060
H          9.09720      -16.33770        7.12990
H          7.50050      -14.89660        8.30580
