
  xtb     02072201053D
 energy: -412.652685844809 gnorm: 0.000732652277 xtb: 6.4.1 (unknown)
249275  0     0  0            999 V2000
   -0.1732   -5.9030   11.3184 C   0  0  0  0  0  0  0  0  0  0  0  0
   -1.4061   -6.0337   11.9126 C   0  0  0  0  0  0  0  0  0  0  0  0
   -2.6990   -5.8990   11.2048 C   0  0  0  0  0  0  0  0  0  0  0  0
   -2.8706   -5.6980   10.0172 O   0  0  0  0  0  0  0  0  0  0  0  0
   -3.7203   -6.1913   12.2224 C   0  0  0  0  0  0  0  0  0  0  0  0
   -3.0972   -6.4890   13.4137 C   0  0  0  0  0  0  0  0  0  0  0  0
   -4.1895   -6.7804   14.7137 S   0  0  0  0  0  0  0  0  0  0  0  0
   -5.5414   -6.5024   13.6319 C   0  0  0  0  0  0  0  0  0  0  0  0
   -6.8835   -6.5500   13.9737 C   0  0  0  0  0  0  0  0  0  0  0  0
   -7.8195   -6.2882   12.9931 C   0  0  0  0  0  0  0  0  0  0  0  0
   -7.4297   -5.9812   11.6880 C   0  0  0  0  0  0  0  0  0  0  0  0
   -6.0996   -5.9335   11.3393 C   0  0  0  0  0  0  0  0  0  0  0  0
   -5.1334   -6.1973   12.3124 C   0  0  0  0  0  0  0  0  0  0  0  0
   -1.6634   -6.4082   13.2809 C   0  0  0  0  0  0  0  0  0  0  0  0
   -0.7673   -6.5090   14.3180 C   0  0  0  0  0  0  0  0  0  0  0  0
    0.6170   -6.2945   14.2012 C   0  0  0  0  0  0  0  0  0  0  0  0
    1.7492   -6.1023   14.1708 N   0  0  0  0  0  0  0  0  0  0  0  0
   -1.2005   -6.7726   15.6307 C   0  0  0  0  0  0  0  0  0  0  0  0
   -1.5436   -6.9700   16.7088 N   0  0  0  0  0  0  0  0  0  0  0  0
    0.1114   -5.1722   10.1593 C   0  0  0  0  0  0  0  0  0  0  0  0
   -0.5427   -4.0789    9.5595 C   0  0  0  0  0  0  0  0  0  0  0  0
   -1.5964   -3.3640   10.0621 N   0  0  0  0  0  0  0  0  0  0  0  0
   -1.8632   -3.2567   11.4313 C   0  0  0  0  0  0  0  0  0  0  0  0
   -0.8317   -3.1901   12.3679 C   0  0  0  0  0  0  0  0  0  0  0  0
   -1.1187   -3.1381   13.7157 C   0  0  0  0  0  0  0  0  0  0  0  0
   -2.4332   -3.1407   14.1757 C   0  0  0  0  0  0  0  0  0  0  0  0
   -2.7276   -3.1574   15.6425 C   0  0  0  0  0  0  0  0  0  0  0  0
   -3.4553   -3.1498   13.2352 C   0  0  0  0  0  0  0  0  0  0  0  0
   -3.1820   -3.2088   11.8821 C   0  0  0  0  0  0  0  0  0  0  0  0
   -2.4407   -2.6823    9.1588 C   0  0  0  0  0  0  0  0  0  0  0  0
   -2.9206   -3.3293    8.0242 C   0  0  0  0  0  0  0  0  0  0  0  0
   -3.7394   -2.6536    7.1423 C   0  0  0  0  0  0  0  0  0  0  0  0
   -4.1007   -1.3300    7.3685 C   0  0  0  0  0  0  0  0  0  0  0  0
   -4.9675   -0.6000    6.3892 C   0  0  0  0  0  0  0  0  0  0  0  0
   -3.6261   -0.6993    8.5121 C   0  0  0  0  0  0  0  0  0  0  0  0
   -2.8032   -1.3621    9.4019 C   0  0  0  0  0  0  0  0  0  0  0  0
    0.1370   -3.6869    8.3817 C   0  0  0  0  0  0  0  0  0  0  0  0
   -0.1352   -2.4400    7.2120 S   0  0  0  0  0  0  0  0  0  0  0  0
    1.3721   -2.8462    6.4097 C   0  0  0  0  0  0  0  0  0  0  0  0
    2.0129   -3.9396    6.9747 C   0  0  0  0  0  0  0  0  0  0  0  0
    3.1544   -4.5433    6.4876 N   0  0  0  0  0  0  0  0  0  0  0  0
    3.4782   -4.5139    5.1238 C   0  0  0  0  0  0  0  0  0  0  0  0
    4.8029   -4.3421    4.7287 C   0  0  0  0  0  0  0  0  0  0  0  0
    5.1231   -4.2386    3.3911 C   0  0  0  0  0  0  0  0  0  0  0  0
    4.1434   -4.3173    2.4083 C   0  0  0  0  0  0  0  0  0  0  0  0
    4.4989   -4.1364    0.9639 C   0  0  0  0  0  0  0  0  0  0  0  0
    2.8337   -4.5508    2.8075 C   0  0  0  0  0  0  0  0  0  0  0  0
    2.4993   -4.6537    4.1441 C   0  0  0  0  0  0  0  0  0  0  0  0
    4.0444   -5.1659    7.3825 C   0  0  0  0  0  0  0  0  0  0  0  0
    4.3731   -4.5594    8.5904 C   0  0  0  0  0  0  0  0  0  0  0  0
    5.2392   -5.1824    9.4655 C   0  0  0  0  0  0  0  0  0  0  0  0
    5.8038   -6.4153    9.1601 C   0  0  0  0  0  0  0  0  0  0  0  0
    6.7289   -7.0843   10.1294 C   0  0  0  0  0  0  0  0  0  0  0  0
    5.4805   -7.0061    7.9449 C   0  0  0  0  0  0  0  0  0  0  0  0
    4.6100   -6.3960    7.0631 C   0  0  0  0  0  0  0  0  0  0  0  0
    1.3034   -4.3908    8.1161 C   0  0  0  0  0  0  0  0  0  0  0  0
    1.6053   -5.5971    9.3085 S   0  0  0  0  0  0  0  0  0  0  0  0
    1.8664   -2.0641    5.3143 C   0  0  0  0  0  0  0  0  0  0  0  0
    3.1375   -1.5374    5.2185 C   0  0  0  0  0  0  0  0  0  0  0  0
    4.0273   -1.4163    6.3729 C   0  0  0  0  0  0  0  0  0  0  0  0
    5.4030   -1.5902    6.2582 C   0  0  0  0  0  0  0  0  0  0  0  0
    6.2033   -1.4913    7.3807 C   0  0  0  0  0  0  0  0  0  0  0  0
    5.6524   -1.1960    8.6161 C   0  0  0  0  0  0  0  0  0  0  0  0
    4.2876   -0.9675    8.7418 C   0  0  0  0  0  0  0  0  0  0  0  0
    3.6676   -0.5959   10.0613 C   0  0  0  0  0  0  0  0  0  0  0  0
    2.7476   -1.6905   10.6060 C   0  0  0  0  0  0  0  0  0  0  0  0
    3.4900   -1.0811    7.6132 C   0  0  0  0  0  0  0  0  0  0  0  0
    3.3925   -1.0638    3.9137 C   0  0  0  0  0  0  0  0  0  0  0  0
    4.8081   -0.3914    3.1480 S   0  0  0  0  0  0  0  0  0  0  0  0
    3.9181   -0.2553    1.6692 C   0  0  0  0  0  0  0  0  0  0  0  0
    4.1226    0.1292    0.3325 C   0  0  0  0  0  0  0  0  0  0  0  0
    5.2937    0.5070   -0.3590 C   0  0  0  0  0  0  0  0  0  0  0  0
    5.2297    0.6969   -1.7810 C   0  0  0  0  0  0  0  0  0  0  0  0
    6.4099    0.9881   -2.3060 N   0  0  0  0  0  0  0  0  0  0  0  0
    7.5064    1.0232   -1.1144 S   0  0  0  0  0  0  0  0  0  0  0  0
    6.5184    0.6665    0.1178 N   0  0  0  0  0  0  0  0  0  0  0  0
    3.9759    0.6180   -2.4238 C   0  0  0  0  0  0  0  0  0  0  0  0
    3.5938    0.8818   -3.7500 C   0  0  0  0  0  0  0  0  0  0  0  0
    4.3190    1.3448   -5.2523 S   0  0  0  0  0  0  0  0  0  0  0  0
    2.7244    1.4712   -5.9499 C   0  0  0  0  0  0  0  0  0  0  0  0
    2.2823    1.8894   -7.2201 C   0  0  0  0  0  0  0  0  0  0  0  0
    3.2109    2.2511   -8.2954 C   0  0  0  0  0  0  0  0  0  0  0  0
    3.1986    1.5621   -9.5029 C   0  0  0  0  0  0  0  0  0  0  0  0
    4.1165    1.8810  -10.4854 C   0  0  0  0  0  0  0  0  0  0  0  0
    5.0499    2.8788  -10.2698 C   0  0  0  0  0  0  0  0  0  0  0  0
    5.0845    3.5676   -9.0637 C   0  0  0  0  0  0  0  0  0  0  0  0
    6.1426    4.5975   -8.7916 C   0  0  0  0  0  0  0  0  0  0  0  0
    7.3413    3.9468   -8.0979 C   0  0  0  0  0  0  0  0  0  0  0  0
    4.1618    3.2412   -8.0819 C   0  0  0  0  0  0  0  0  0  0  0  0
    0.9060    1.9516   -7.2753 C   0  0  0  0  0  0  0  0  0  0  0  0
    0.1537    1.3508   -5.7987 S   0  0  0  0  0  0  0  0  0  0  0  0
    1.7000    1.1587   -5.0573 C   0  0  0  0  0  0  0  0  0  0  0  0
    2.2001    0.8076   -3.7968 C   0  0  0  0  0  0  0  0  0  0  0  0
    1.7064    0.4851   -2.5599 N   0  0  0  0  0  0  0  0  0  0  0  0
    2.7825    0.3388   -1.7020 C   0  0  0  0  0  0  0  0  0  0  0  0
    2.8791   -0.0358   -0.3369 C   0  0  0  0  0  0  0  0  0  0  0  0
    1.9574   -0.5482    0.5652 N   0  0  0  0  0  0  0  0  0  0  0  0
    2.5964   -0.6896    1.7701 C   0  0  0  0  0  0  0  0  0  0  0  0
    2.3002   -1.1700    3.0533 C   0  0  0  0  0  0  0  0  0  0  0  0
    0.9342   -1.8752    3.8405 S   0  0  0  0  0  0  0  0  0  0  0  0
    0.7765   -1.3409    0.3001 C   0  0  0  0  0  0  0  0  0  0  0  0
    1.1313   -2.6125   -0.4663 C   0  0  0  0  0  0  0  0  0  0  0  0
    0.3196    0.7619   -2.2574 C   0  0  0  0  0  0  0  0  0  0  0  0
   -0.6211   -0.3248   -2.7724 C   0  0  0  0  0  0  0  0  0  0  0  0
    0.0709    2.5764   -8.2546 C   0  0  0  0  0  0  0  0  0  0  0  0
   -0.9498    3.4847   -7.9930 C   0  0  0  0  0  0  0  0  0  0  0  0
   -1.2807    4.0085   -6.7550 N   0  0  0  0  0  0  0  0  0  0  0  0
   -0.3244    4.2664   -5.7701 C   0  0  0  0  0  0  0  0  0  0  0  0
    0.9879    4.6066   -6.1001 C   0  0  0  0  0  0  0  0  0  0  0  0
    1.9427    4.7263   -5.1113 C   0  0  0  0  0  0  0  0  0  0  0  0
    1.6261    4.5356   -3.7710 C   0  0  0  0  0  0  0  0  0  0  0  0
    2.6950    4.5906   -2.7230 C   0  0  0  0  0  0  0  0  0  0  0  0
    0.3006    4.2793   -3.4443 C   0  0  0  0  0  0  0  0  0  0  0  0
   -0.6638    4.1415   -4.4232 C   0  0  0  0  0  0  0  0  0  0  0  0
   -2.6314    4.3482   -6.5365 C   0  0  0  0  0  0  0  0  0  0  0  0
   -2.9737    5.5821   -5.9951 C   0  0  0  0  0  0  0  0  0  0  0  0
   -4.3029    5.9262   -5.8514 C   0  0  0  0  0  0  0  0  0  0  0  0
   -5.3157    5.0593   -6.2426 C   0  0  0  0  0  0  0  0  0  0  0  0
   -6.7533    5.4656   -6.1577 C   0  0  0  0  0  0  0  0  0  0  0  0
   -4.9632    3.8170   -6.7541 C   0  0  0  0  0  0  0  0  0  0  0  0
   -3.6383    3.4581   -6.8977 C   0  0  0  0  0  0  0  0  0  0  0  0
   -1.6027    3.8773   -9.1866 C   0  0  0  0  0  0  0  0  0  0  0  0
   -2.9859    4.8562   -9.5143 S   0  0  0  0  0  0  0  0  0  0  0  0
   -2.7846    4.5773  -11.2468 C   0  0  0  0  0  0  0  0  0  0  0  0
   -1.7154    3.6794  -11.5193 C   0  0  0  0  0  0  0  0  0  0  0  0
   -1.3717    3.2054  -12.7560 N   0  0  0  0  0  0  0  0  0  0  0  0
   -0.0182    2.9404  -13.0385 C   0  0  0  0  0  0  0  0  0  0  0  0
    0.3450    1.8083  -13.7626 C   0  0  0  0  0  0  0  0  0  0  0  0
    1.6677    1.5934  -14.0906 C   0  0  0  0  0  0  0  0  0  0  0  0
    2.6600    2.4870  -13.7017 C   0  0  0  0  0  0  0  0  0  0  0  0
    4.0809    2.2744  -14.1245 C   0  0  0  0  0  0  0  0  0  0  0  0
    2.2923    3.5954  -12.9495 C   0  0  0  0  0  0  0  0  0  0  0  0
    0.9709    3.8279  -12.6238 C   0  0  0  0  0  0  0  0  0  0  0  0
   -2.3374    2.9024  -13.7352 C   0  0  0  0  0  0  0  0  0  0  0  0
   -2.0651    3.1281  -15.0823 C   0  0  0  0  0  0  0  0  0  0  0  0
   -3.0155    2.8272  -16.0370 C   0  0  0  0  0  0  0  0  0  0  0  0
   -4.2548    2.3075  -15.6811 C   0  0  0  0  0  0  0  0  0  0  0  0
   -5.2846    2.0229  -16.7301 C   0  0  0  0  0  0  0  0  0  0  0  0
   -4.5095    2.0705  -14.3353 C   0  0  0  0  0  0  0  0  0  0  0  0
   -3.5640    2.3530  -13.3699 C   0  0  0  0  0  0  0  0  0  0  0  0
   -1.0560    3.3170  -10.3350 C   0  0  0  0  0  0  0  0  0  0  0  0
    0.2863    2.2812   -9.9731 S   0  0  0  0  0  0  0  0  0  0  0  0
   -3.4964    5.2414  -12.2380 C   0  0  0  0  0  0  0  0  0  0  0  0
   -4.5883    6.0840  -12.1512 C   0  0  0  0  0  0  0  0  0  0  0  0
   -5.3733    6.3627  -10.9419 C   0  0  0  0  0  0  0  0  0  0  0  0
   -5.1499    6.0018   -9.8004 O   0  0  0  0  0  0  0  0  0  0  0  0
   -6.5221    7.1561  -11.4035 C   0  0  0  0  0  0  0  0  0  0  0  0
   -6.4215    7.3587  -12.8174 C   0  0  0  0  0  0  0  0  0  0  0  0
   -7.4468    8.0867  -13.3300 C   0  0  0  0  0  0  0  0  0  0  0  0
   -8.5670    8.5454  -12.0949 S   0  0  0  0  0  0  0  0  0  0  0  0
   -7.6258    7.7352  -10.8612 C   0  0  0  0  0  0  0  0  0  0  0  0
   -8.1170    7.7442   -9.2387 Cl  0  0  0  0  0  0  0  0  0  0  0  0
   -5.2064    6.7185  -13.2906 C   0  0  0  0  0  0  0  0  0  0  0  0
   -4.7686    6.7680  -14.5939 C   0  0  0  0  0  0  0  0  0  0  0  0
   -3.5479    6.2682  -15.0758 C   0  0  0  0  0  0  0  0  0  0  0  0
   -2.5559    5.9119  -15.5361 N   0  0  0  0  0  0  0  0  0  0  0  0
   -5.5341    7.3903  -15.5982 C   0  0  0  0  0  0  0  0  0  0  0  0
   -6.1522    7.8779  -16.4346 N   0  0  0  0  0  0  0  0  0  0  0  0
    0.6726   -6.4096   11.7682 H   0  0  0  0  0  0  0  0  0  0  0  0
   -7.1823   -6.7854   14.9833 H   0  0  0  0  0  0  0  0  0  0  0  0
   -8.8699   -6.3206   13.2399 H   0  0  0  0  0  0  0  0  0  0  0  0
   -8.1870   -5.7795   10.9454 H   0  0  0  0  0  0  0  0  0  0  0  0
   -5.7816   -5.6999   10.3351 H   0  0  0  0  0  0  0  0  0  0  0  0
    0.1961   -3.1868   12.0367 H   0  0  0  0  0  0  0  0  0  0  0  0
   -0.3063   -3.1035   14.4273 H   0  0  0  0  0  0  0  0  0  0  0  0
   -2.6287   -4.1718   16.0329 H   0  0  0  0  0  0  0  0  0  0  0  0
   -3.7409   -2.8174   15.8408 H   0  0  0  0  0  0  0  0  0  0  0  0
   -2.0274   -2.5263   16.1853 H   0  0  0  0  0  0  0  0  0  0  0  0
   -4.4847   -3.1332   13.5641 H   0  0  0  0  0  0  0  0  0  0  0  0
   -3.9896   -3.2360   11.1661 H   0  0  0  0  0  0  0  0  0  0  0  0
   -2.6670   -4.3656    7.8646 H   0  0  0  0  0  0  0  0  0  0  0  0
   -4.1110   -3.1639    6.2657 H   0  0  0  0  0  0  0  0  0  0  0  0
   -5.4614    0.2463    6.8601 H   0  0  0  0  0  0  0  0  0  0  0  0
   -4.3593   -0.2236    5.5661 H   0  0  0  0  0  0  0  0  0  0  0  0
   -5.7220   -1.2627    5.9711 H   0  0  0  0  0  0  0  0  0  0  0  0
   -3.8991    0.3275    8.7079 H   0  0  0  0  0  0  0  0  0  0  0  0
   -2.4361   -0.8612   10.2860 H   0  0  0  0  0  0  0  0  0  0  0  0
    5.5728   -4.2757    5.4823 H   0  0  0  0  0  0  0  0  0  0  0  0
    6.1521   -4.0791    3.1031 H   0  0  0  0  0  0  0  0  0  0  0  0
    4.4551   -3.0785    0.6977 H   0  0  0  0  0  0  0  0  0  0  0  0
    3.8126   -4.6811    0.3186 H   0  0  0  0  0  0  0  0  0  0  0  0
    5.5110   -4.4833    0.7696 H   0  0  0  0  0  0  0  0  0  0  0  0
    2.0554   -4.6559    2.0644 H   0  0  0  0  0  0  0  0  0  0  0  0
    1.4749   -4.8391    4.4330 H   0  0  0  0  0  0  0  0  0  0  0  0
    3.9577   -3.5923    8.8237 H   0  0  0  0  0  0  0  0  0  0  0  0
    5.4868   -4.7017   10.4008 H   0  0  0  0  0  0  0  0  0  0  0  0
    7.5061   -6.3953   10.4558 H   0  0  0  0  0  0  0  0  0  0  0  0
    7.1985   -7.9569    9.6828 H   0  0  0  0  0  0  0  0  0  0  0  0
    6.1765   -7.4038   11.0129 H   0  0  0  0  0  0  0  0  0  0  0  0
    5.9096   -7.9633    7.6857 H   0  0  0  0  0  0  0  0  0  0  0  0
    4.3630   -6.8680    6.1234 H   0  0  0  0  0  0  0  0  0  0  0  0
    5.8364   -1.8087    5.2949 H   0  0  0  0  0  0  0  0  0  0  0  0
    7.2689   -1.6425    7.2916 H   0  0  0  0  0  0  0  0  0  0  0  0
    6.2897   -1.1243    9.4856 H   0  0  0  0  0  0  0  0  0  0  0  0
    4.4533   -0.3920   10.7909 H   0  0  0  0  0  0  0  0  0  0  0  0
    3.0834    0.3191    9.9304 H   0  0  0  0  0  0  0  0  0  0  0  0
    3.3094   -2.5975   10.8192 H   0  0  0  0  0  0  0  0  0  0  0  0
    2.2760   -1.3569   11.5282 H   0  0  0  0  0  0  0  0  0  0  0  0
    1.9654   -1.9288    9.8875 H   0  0  0  0  0  0  0  0  0  0  0  0
    2.4317   -0.8790    7.6938 H   0  0  0  0  0  0  0  0  0  0  0  0
    2.4922    0.7604   -9.6575 H   0  0  0  0  0  0  0  0  0  0  0  0
    4.1045    1.3395  -11.4181 H   0  0  0  0  0  0  0  0  0  0  0  0
    5.7704    3.1198  -11.0387 H   0  0  0  0  0  0  0  0  0  0  0  0
    6.4698    5.0540   -9.7280 H   0  0  0  0  0  0  0  0  0  0  0  0
    5.7395    5.3839   -8.1502 H   0  0  0  0  0  0  0  0  0  0  0  0
    7.7699    3.1734   -8.7313 H   0  0  0  0  0  0  0  0  0  0  0  0
    7.0329    3.4876   -7.1615 H   0  0  0  0  0  0  0  0  0  0  0  0
    8.1084    4.6883   -7.8873 H   0  0  0  0  0  0  0  0  0  0  0  0
    4.1776    3.7636   -7.1366 H   0  0  0  0  0  0  0  0  0  0  0  0
    0.0275   -0.7658   -0.2395 H   0  0  0  0  0  0  0  0  0  0  0  0
    0.3542   -1.6045    1.2730 H   0  0  0  0  0  0  0  0  0  0  0  0
    1.8370   -3.2052    0.1095 H   0  0  0  0  0  0  0  0  0  0  0  0
    0.2369   -3.2054   -0.6396 H   0  0  0  0  0  0  0  0  0  0  0  0
    1.5890   -2.3703   -1.4232 H   0  0  0  0  0  0  0  0  0  0  0  0
    0.2207    0.9167   -1.1823 H   0  0  0  0  0  0  0  0  0  0  0  0
    0.0600    1.7049   -2.7529 H   0  0  0  0  0  0  0  0  0  0  0  0
   -1.6417   -0.0915   -2.4813 H   0  0  0  0  0  0  0  0  0  0  0  0
   -0.3573   -1.3036   -2.3836 H   0  0  0  0  0  0  0  0  0  0  0  0
   -0.5774   -0.3657   -3.8574 H   0  0  0  0  0  0  0  0  0  0  0  0
    1.2577    4.7637   -7.1342 H   0  0  0  0  0  0  0  0  0  0  0  0
    2.9596    4.9711   -5.3819 H   0  0  0  0  0  0  0  0  0  0  0  0
    2.2662    4.5582   -1.7243 H   0  0  0  0  0  0  0  0  0  0  0  0
    3.3726    3.7426   -2.8330 H   0  0  0  0  0  0  0  0  0  0  0  0
    3.2856    5.4999   -2.8212 H   0  0  0  0  0  0  0  0  0  0  0  0
    0.0192    4.1711   -2.4057 H   0  0  0  0  0  0  0  0  0  0  0  0
   -1.6830    3.9056   -4.1547 H   0  0  0  0  0  0  0  0  0  0  0  0
   -2.1935    6.2712   -5.7059 H   0  0  0  0  0  0  0  0  0  0  0  0
   -4.5575    6.8952   -5.4469 H   0  0  0  0  0  0  0  0  0  0  0  0
   -6.8990    6.2477   -5.4164 H   0  0  0  0  0  0  0  0  0  0  0  0
   -7.0705    5.8502   -7.1270 H   0  0  0  0  0  0  0  0  0  0  0  0
   -7.3870    4.6166   -5.9098 H   0  0  0  0  0  0  0  0  0  0  0  0
   -5.7370    3.1247   -7.0523 H   0  0  0  0  0  0  0  0  0  0  0  0
   -3.3722    2.4908   -7.3001 H   0  0  0  0  0  0  0  0  0  0  0  0
   -0.4149    1.1060  -14.0710 H   0  0  0  0  0  0  0  0  0  0  0  0
    1.9358    0.7164  -14.6619 H   0  0  0  0  0  0  0  0  0  0  0  0
    4.7625    2.8480  -13.5023 H   0  0  0  0  0  0  0  0  0  0  0  0
    4.2098    2.5994  -15.1576 H   0  0  0  0  0  0  0  0  0  0  0  0
    4.3504    1.2212  -14.0744 H   0  0  0  0  0  0  0  0  0  0  0  0
    3.0472    4.2967  -12.6259 H   0  0  0  0  0  0  0  0  0  0  0  0
    0.6963    4.7106  -12.0651 H   0  0  0  0  0  0  0  0  0  0  0  0
   -1.1175    3.5524  -15.3733 H   0  0  0  0  0  0  0  0  0  0  0  0
   -2.7974    3.0188  -17.0766 H   0  0  0  0  0  0  0  0  0  0  0  0
   -6.1419    1.5054  -16.3073 H   0  0  0  0  0  0  0  0  0  0  0  0
   -5.6295    2.9550  -17.1778 H   0  0  0  0  0  0  0  0  0  0  0  0
   -4.8618    1.4113  -17.5254 H   0  0  0  0  0  0  0  0  0  0  0  0
   -5.4592    1.6506  -14.0366 H   0  0  0  0  0  0  0  0  0  0  0  0
   -3.7737    2.1559  -12.3287 H   0  0  0  0  0  0  0  0  0  0  0  0
   -3.1327    5.0610  -13.2420 H   0  0  0  0  0  0  0  0  0  0  0  0
   -7.6321    8.3889  -14.3413 H   0  0  0  0  0  0  0  0  0  0  0  0
  1  2  2  0  0  0  0
  2  3  1  0  0  0  0
  3  4  2  0  0  0  0
  3  5  1  0  0  0  0
  5  6  2  0  0  0  0
  6  7  1  0  0  0  0
  7  8  1  0  0  0  0
  8  9  2  0  0  0  0
  9 10  1  0  0  0  0
 10 11  2  0  0  0  0
 11 12  1  0  0  0  0
 12 13  2  0  0  0  0
  6 14  1  0  0  0  0
 14 15  2  0  0  0  0
 15 16  1  0  0  0  0
 16 17  3  0  0  0  0
 15 18  1  0  0  0  0
 18 19  3  0  0  0  0
  1 20  1  0  0  0  0
 20 21  2  0  0  0  0
 21 22  1  0  0  0  0
 22 23  1  0  0  0  0
 23 24  2  0  0  0  0
 24 25  1  0  0  0  0
 25 26  2  0  0  0  0
 26 27  1  0  0  0  0
 26 28  1  0  0  0  0
 28 29  2  0  0  0  0
 22 30  1  0  0  0  0
 30 31  2  0  0  0  0
 31 32  1  0  0  0  0
 32 33  2  0  0  0  0
 33 34  1  0  0  0  0
 33 35  1  0  0  0  0
 35 36  2  0  0  0  0
 21 37  1  0  0  0  0
 37 38  1  0  0  0  0
 38 39  1  0  0  0  0
 39 40  2  0  0  0  0
 40 41  1  0  0  0  0
 41 42  1  0  0  0  0
 42 43  2  0  0  0  0
 43 44  1  0  0  0  0
 44 45  2  0  0  0  0
 45 46  1  0  0  0  0
 45 47  1  0  0  0  0
 47 48  2  0  0  0  0
 41 49  1  0  0  0  0
 49 50  2  0  0  0  0
 50 51  1  0  0  0  0
 51 52  2  0  0  0  0
 52 53  1  0  0  0  0
 52 54  1  0  0  0  0
 54 55  2  0  0  0  0
 40 56  1  0  0  0  0
 56 57  1  0  0  0  0
 39 58  1  0  0  0  0
 58 59  2  0  0  0  0
 59 60  1  0  0  0  0
 60 61  2  0  0  0  0
 61 62  1  0  0  0  0
 62 63  2  0  0  0  0
 63 64  1  0  0  0  0
 64 65  1  0  0  0  0
 65 66  1  0  0  0  0
 64 67  2  0  0  0  0
 59 68  1  0  0  0  0
 68 69  1  0  0  0  0
 69 70  1  0  0  0  0
 70 71  1  0  0  0  0
 71 72  1  0  0  0  0
 72 73  1  0  0  0  0
 73 74  2  0  0  0  0
 74 75  1  0  0  0  0
 75 76  1  0  0  0  0
 73 77  1  0  0  0  0
 77 78  1  0  0  0  0
 78 79  1  0  0  0  0
 79 80  1  0  0  0  0
 80 81  1  0  0  0  0
 81 82  1  0  0  0  0
 82 83  2  0  0  0  0
 83 84  1  0  0  0  0
 84 85  2  0  0  0  0
 85 86  1  0  0  0  0
 86 87  1  0  0  0  0
 87 88  1  0  0  0  0
 86 89  2  0  0  0  0
 81 90  2  0  0  0  0
 90 91  1  0  0  0  0
 91 92  1  0  0  0  0
 92 93  1  0  0  0  0
 93 94  1  0  0  0  0
 94 95  1  0  0  0  0
 95 96  1  0  0  0  0
 96 97  1  0  0  0  0
 97 98  1  0  0  0  0
 98 99  1  0  0  0  0
 99100  1  0  0  0  0
 97101  1  0  0  0  0
101102  1  0  0  0  0
 94103  1  0  0  0  0
103104  1  0  0  0  0
 90105  1  0  0  0  0
105106  2  0  0  0  0
106107  1  0  0  0  0
107108  1  0  0  0  0
108109  2  0  0  0  0
109110  1  0  0  0  0
110111  2  0  0  0  0
111112  1  0  0  0  0
111113  1  0  0  0  0
113114  2  0  0  0  0
107115  1  0  0  0  0
115116  2  0  0  0  0
116117  1  0  0  0  0
117118  2  0  0  0  0
118119  1  0  0  0  0
118120  1  0  0  0  0
120121  2  0  0  0  0
106122  1  0  0  0  0
122123  1  0  0  0  0
123124  1  0  0  0  0
124125  2  0  0  0  0
125126  1  0  0  0  0
126127  1  0  0  0  0
127128  2  0  0  0  0
128129  1  0  0  0  0
129130  2  0  0  0  0
130131  1  0  0  0  0
130132  1  0  0  0  0
132133  2  0  0  0  0
126134  1  0  0  0  0
134135  2  0  0  0  0
135136  1  0  0  0  0
136137  2  0  0  0  0
137138  1  0  0  0  0
137139  1  0  0  0  0
139140  2  0  0  0  0
125141  1  0  0  0  0
141142  1  0  0  0  0
124143  1  0  0  0  0
143144  2  0  0  0  0
144145  1  0  0  0  0
145146  2  0  0  0  0
145147  1  0  0  0  0
147148  1  0  0  0  0
148149  2  0  0  0  0
149150  1  0  0  0  0
150151  1  0  0  0  0
151152  1  0  0  0  0
148153  1  0  0  0  0
153154  2  0  0  0  0
154155  1  0  0  0  0
155156  3  0  0  0  0
154157  1  0  0  0  0
157158  3  0  0  0  0
 14  2  1  0  0  0  0
 57 20  1  0  0  0  0
100 58  1  0  0  0  0
142105  1  0  0  0  0
153144  1  0  0  0  0
 13  5  1  0  0  0  0
 29 23  1  0  0  0  0
 36 30  1  0  0  0  0
 56 37  2  0  0  0  0
 67 60  1  0  0  0  0
 99 68  2  0  0  0  0
114108  1  0  0  0  0
121115  1  0  0  0  0
141122  2  0  0  0  0
151147  2  0  0  0  0
 13  8  1  0  0  0  0
 48 42  1  0  0  0  0
 55 49  1  0  0  0  0
 98 70  2  0  0  0  0
133127  1  0  0  0  0
140134  1  0  0  0  0
 96 71  2  0  0  0  0
 76 72  2  0  0  0  0
 95 77  2  0  0  0  0
 93 78  2  0  0  0  0
 92 80  2  0  0  0  0
 89 82  1  0  0  0  0
  1159  1  0  0  0  0
  9160  1  0  0  0  0
 10161  1  0  0  0  0
 11162  1  0  0  0  0
 12163  1  0  0  0  0
 24164  1  0  0  0  0
 25165  1  0  0  0  0
 27166  1  0  0  0  0
 27167  1  0  0  0  0
 27168  1  0  0  0  0
 28169  1  0  0  0  0
 29170  1  0  0  0  0
 31171  1  0  0  0  0
 32172  1  0  0  0  0
 34173  1  0  0  0  0
 34174  1  0  0  0  0
 34175  1  0  0  0  0
 35176  1  0  0  0  0
 36177  1  0  0  0  0
 43178  1  0  0  0  0
 44179  1  0  0  0  0
 46180  1  0  0  0  0
 46181  1  0  0  0  0
 46182  1  0  0  0  0
 47183  1  0  0  0  0
 48184  1  0  0  0  0
 50185  1  0  0  0  0
 51186  1  0  0  0  0
 53187  1  0  0  0  0
 53188  1  0  0  0  0
 53189  1  0  0  0  0
 54190  1  0  0  0  0
 55191  1  0  0  0  0
 61192  1  0  0  0  0
 62193  1  0  0  0  0
 63194  1  0  0  0  0
 65195  1  0  0  0  0
 65196  1  0  0  0  0
 66197  1  0  0  0  0
 66198  1  0  0  0  0
 66199  1  0  0  0  0
 67200  1  0  0  0  0
 83201  1  0  0  0  0
 84202  1  0  0  0  0
 85203  1  0  0  0  0
 87204  1  0  0  0  0
 87205  1  0  0  0  0
 88206  1  0  0  0  0
 88207  1  0  0  0  0
 88208  1  0  0  0  0
 89209  1  0  0  0  0
101210  1  0  0  0  0
101211  1  0  0  0  0
102212  1  0  0  0  0
102213  1  0  0  0  0
102214  1  0  0  0  0
103215  1  0  0  0  0
103216  1  0  0  0  0
104217  1  0  0  0  0
104218  1  0  0  0  0
104219  1  0  0  0  0
109220  1  0  0  0  0
110221  1  0  0  0  0
112222  1  0  0  0  0
112223  1  0  0  0  0
112224  1  0  0  0  0
113225  1  0  0  0  0
114226  1  0  0  0  0
116227  1  0  0  0  0
117228  1  0  0  0  0
119229  1  0  0  0  0
119230  1  0  0  0  0
119231  1  0  0  0  0
120232  1  0  0  0  0
121233  1  0  0  0  0
128234  1  0  0  0  0
129235  1  0  0  0  0
131236  1  0  0  0  0
131237  1  0  0  0  0
131238  1  0  0  0  0
132239  1  0  0  0  0
133240  1  0  0  0  0
135241  1  0  0  0  0
136242  1  0  0  0  0
138243  1  0  0  0  0
138244  1  0  0  0  0
138245  1  0  0  0  0
139246  1  0  0  0  0
140247  1  0  0  0  0
143248  1  0  0  0  0
149249  1  0  0  0  0
M  END
