161

C        -10.50700       -2.48660        1.63280
C         -9.90680       -3.54480        2.25630
C         -8.46520       -3.67970        2.55350
O         -7.58630       -2.86420        2.33510
C         -8.31460       -4.99810        3.16930
C         -9.55420       -5.60130        3.25430
S         -9.51300       -7.16870        3.96380
C         -7.77430       -7.02950        4.15920
C         -6.93730       -7.98680        4.71010
C         -5.58690       -7.70950        4.78660
C         -5.07160       -6.49750        4.32280
C         -5.89500       -5.54150        3.77390
C         -7.26480       -5.79830        3.68520
C        -10.58340       -4.74890        2.71410
C        -11.91620       -5.07040        2.67070
C        -12.38120       -6.30540        3.17030
N        -12.77270       -7.30910        3.56520
C        -12.94590       -4.25870        2.15870
N        -13.83340       -3.64950        1.75800
C         -9.94500       -1.30240        1.12410
C        -10.68920       -0.35650        0.43090
C         -9.95810        0.73470       -0.03000
S        -10.76030        1.96370       -1.01090
C         -9.62450        2.10180       -2.44510
C        -10.18330        3.12900       -3.40880
C         -8.61820        0.66960        0.34980
S         -8.27510       -0.80720        1.20700
C         -7.52640        1.55740        0.13030
C         -7.47740        2.94190        0.04850
C         -8.59880        3.84080        0.31450
C         -8.79730        4.97490       -0.46850
C         -9.86590        5.81070       -0.20710
C        -10.73620        5.53010        0.83150
C        -10.53980        4.41520        1.63650
C        -11.50480        4.06900        2.73240
C        -12.54310        3.07020        2.21750
C         -9.46550        3.58160        1.37160
C         -6.16710        3.38870       -0.22020
S         -5.47430        4.98000       -0.43500
C         -3.90990        4.25750       -0.60650
C         -2.57480        4.63730       -0.84280
C         -1.95500        5.85990       -1.19110
C         -0.55370        5.86900       -1.53310
N         -0.13880        7.06580       -1.91570
S         -1.38670        8.09420       -1.84470
N         -2.51190        7.05240       -1.32640
C          0.20870        4.69040       -1.36080
C          1.58370        4.40100       -1.44980
S          3.06000        5.15710       -1.95120
C          3.92970        3.70480       -1.51420
C          5.29090        3.35460       -1.55940
C          6.35010        4.26070       -2.01340
C          7.44710        4.53270       -1.19990
C          8.43860        5.38550       -1.64600
C          8.34730        5.96650       -2.89960
C          7.25230        5.71660       -3.71740
C          7.17510        6.30790       -5.09500
C          7.90950        5.41450       -6.09730
C          6.25560        4.86630       -3.26080
C          5.49070        2.06700       -1.08760
S          4.00230        1.29710       -0.56210
C          3.10270        2.70320       -0.99730
C          1.76180        3.09760       -0.97150
N          0.55370        2.55220       -0.61700
C         -0.40920        3.50630       -0.88350
C         -1.81540        3.44060       -0.79990
N         -2.65750        2.35960       -0.62180
C         -3.92830        2.86260       -0.49780
C         -5.21930        2.36550       -0.28930
S         -5.93910        0.81520       -0.05410
C         -2.44200        1.01370       -1.11490
C         -3.10550        0.81100       -2.47670
C          0.48070        1.51750        0.39540
C          1.13200        1.97430        1.70050
C          6.68520        1.29660       -1.07260
C          7.83930        1.49370       -1.79770
C          8.80790        0.50960       -1.57470
S         10.39220        0.44140       -2.29820
C         10.45740        1.95040       -3.33050
C          9.73480        1.77360       -4.65250
C          8.38800       -0.49300       -0.69640
S          6.78240       -0.13930       -0.10430
C          9.15070       -1.58380       -0.24550
C          8.73120       -2.69290        0.43020
C          9.68360       -3.47180        1.25990
O         10.89300       -3.41450        1.23130
C          8.83730       -4.27630        2.16750
C          9.25720       -5.07750        3.22630
C          8.23120       -5.67890        3.91580
C          6.88200       -5.48940        3.58880
C          6.45200       -4.70930        2.54190
C          7.48120       -4.10100        1.82090
C          7.41600       -3.25190        0.63410
C          6.38170       -3.22670       -0.26810
C          5.13120       -3.83630       -0.05880
N          4.08260       -4.28820        0.06870
C          6.49870       -2.65960       -1.55380
N          6.57380       -2.25980       -2.62800
C          6.40280       -6.38290        4.70550
C          5.92320       -7.80670        4.33150
C          6.64270       -8.17860        3.05870
C          7.92120       -8.36670        3.35740
C          8.08910       -8.12590        4.83720
C          6.72990       -8.62890        5.34910
C          7.90660       -6.60410        5.06210
H        -11.57840       -2.54740        1.48100
H         -7.33740       -8.92260        5.06750
H         -4.91840       -8.44250        5.21210
H         -4.01070       -6.31270        4.39730
H         -5.51300       -4.60050        3.41020
H        -11.74200       -0.46930        0.23980
H         -9.56170        1.11410       -2.90230
H         -8.64470        2.40220       -2.07910
H        -11.17240        2.83290       -3.75040
H        -10.26250        4.09670       -2.91810
H         -9.52740        3.22330       -4.27160
H         -8.12840        5.18620       -1.28970
H        -10.02440        6.68440       -0.82230
H        -11.57480        6.18400        1.02220
H        -10.96690        3.62730        3.57410
H        -12.01080        4.97020        3.08360
H        -13.24250        2.80520        3.00690
H        -12.05430        2.16510        1.86400
H        -13.09840        3.49790        1.38630
H         -9.29400        2.71770        1.99800
H          7.51380        4.07700       -0.22300
H          9.28750        5.59890       -1.01290
H          9.12970        6.62740       -3.24380
H          6.13110        6.40700       -5.39660
H          7.62900        7.30060       -5.09810
H          7.85010        5.83640       -7.09760
H          7.46770        4.42040       -6.11380
H          8.95850        5.32100       -5.82330
H          5.39960        4.65800       -3.88630
H         -1.37330        0.84090       -1.22610
H         -2.85620        0.30470       -0.39100
H         -4.18400        0.91930       -2.40580
H         -2.88250       -0.18720       -2.84270
H         -2.72620        1.53890       -3.19080
H         -0.56410        1.28860        0.59650
H          0.98810        0.62290        0.02030
H          2.19160        2.16910        1.56210
H          0.65320        2.88230        2.06110
H          1.02040        1.19740        2.45150
H          7.94710        2.31950       -2.47310
H         11.52390        2.10750       -3.49220
H         10.06440        2.78160       -2.74620
H         10.18340        0.96170       -5.21980
H          8.68350        1.54090       -4.50050
H          9.80700        2.68930       -5.23610
H         10.22450       -1.48850       -0.38050
H         10.30550       -5.19250        3.45320
H          5.41220       -4.56270        2.29850
H          5.76690       -5.91230        5.45310
H          4.84380       -7.93340        4.32730
H          6.17360       -8.20720        2.09270
H          8.73440       -8.58460        2.69010
H          8.98210       -8.54520        5.29340
H          6.60190       -9.70260        5.21950
H          6.52840       -8.35660        6.38440
H          8.25020       -6.28720        6.04520
