223

C          4.98720        7.78310       -0.48410
C          5.87620        8.67450       -1.00720
C          5.96750        9.12200       -2.42030
O          5.27170        8.77620       -3.35480
C          7.08430       10.06750       -2.45450
C          7.62320       10.18350       -1.18820
S          8.95270       11.27380       -1.09980
C          8.79520       11.59750       -2.81770
C          9.58700       12.45870       -3.56050
C          9.32040       12.59430       -4.90840
C          8.28080       11.88510       -5.51340
C          7.48960       11.02770       -4.78400
C          7.73990       10.87300       -3.41880
C          6.92010        9.35130       -0.24690
C          7.22060        9.26590        1.08870
C          6.54900        8.47800        2.04290
N          6.04610        7.86520        2.87400
C          8.28630       10.00780        1.64140
N          9.14980       10.60120        2.10930
C          3.92680        7.07480       -1.09210
C          3.12370        6.21120       -0.37160
C          2.10240        5.61360       -1.12820
C          1.11740        4.69940       -0.69620
C          1.04110        4.25800        0.70480
C          0.95230        5.19220        1.73150
C          0.89210        4.76850        3.04790
C          0.92620        3.42300        3.35020
C          1.00360        2.48100        2.32680
S          1.05090        0.79210        2.85760
C          1.08360       -0.22000        1.33950
C         -0.27950       -0.34360        0.68440
C          1.05690        2.89770        1.00660
C          0.23430        4.25500       -1.65970
C          0.27290        4.67420       -3.01710
C          1.25860        5.57600       -3.44450
C          1.33560        6.00340       -4.84840
C          2.53160        5.89550       -5.55440
C          2.58520        6.27300       -6.88230
C          1.46000        6.75160       -7.53010
C          0.26290        6.85220       -6.83530
S         -1.23880        7.46120       -7.55020
C         -1.07850        7.03930       -9.32070
C         -1.00010        5.54170       -9.54200
C          0.20780        6.49010       -5.49590
C          2.15830        6.02410       -2.48760
S          3.44690        7.15890       -2.77600
C         -0.74000        4.05890       -3.79480
C         -1.54230        3.21880       -3.08350
S         -1.08320        3.14510       -1.38610
C         -2.63320        2.40120       -3.50920
C         -2.90890        1.80980       -4.72950
C         -2.12860        1.93040       -5.96280
C         -0.73850        1.85230       -5.96890
C         -0.04900        1.94790       -7.16210
C         -0.73240        2.09720       -8.35690
C         -2.11980        2.15090       -8.37270
C         -2.88060        2.22150       -9.66510
C         -3.32880        0.81980      -10.08430
C         -2.80530        2.07210       -7.16980
C         -4.04360        0.97090       -4.63920
S         -4.72170       -0.23810       -5.71620
C         -5.71340       -0.83150       -4.41570
C         -6.43080       -1.99050       -4.05250
C         -6.54500       -3.27040       -4.65210
C         -6.75290       -4.42830       -3.80850
N         -6.67190       -5.55950       -4.48630
S         -6.38370       -5.21730       -6.04290
N         -6.33020       -3.60370       -5.91210
C         -6.99190       -4.24830       -2.42450
C         -6.92090       -5.07920       -1.28060
S         -6.19990       -6.59610       -0.81320
C         -6.05080       -6.01610        0.84340
C         -5.17840       -6.33950        1.90860
C         -4.36930       -7.55200        2.01010
C         -3.74260       -8.10290        0.89590
C         -2.96560       -9.23800        1.03410
C         -2.81170       -9.83650        2.27180
C         -3.44150       -9.30990        3.39390
C         -3.32370       -9.98590        4.72960
C         -4.45240      -11.00170        4.91470
C         -4.21920       -8.17290        3.24970
C         -5.13680       -5.31090        2.84560
S         -6.34100       -4.06530        2.53380
C         -6.71180       -4.80110        1.02190
C         -7.19370       -4.26880       -0.17480
N         -7.46070       -2.98240       -0.57070
C         -7.22580       -2.93820       -1.93320
C         -6.77180       -1.83210       -2.68350
N         -6.27640       -0.63140       -2.22380
C         -5.60030       -0.05280       -3.25940
C         -4.63030        0.94710       -3.37640
S         -3.80620        1.98240       -2.27250
C         -6.06730       -0.16060       -0.87410
C         -6.91050        1.07410       -0.56590
C         -8.36450       -2.13430        0.17680
C         -9.71920       -2.81510        0.36440
C         -4.05110       -4.90900        3.67950
C         -2.77120       -5.39180        3.70570
C         -1.83870       -4.50320        4.29140
C         -0.43950       -4.63940        4.32180
C          0.22730       -5.91150        4.02590
C         -0.27560       -7.10280        4.55190
C          0.41470       -8.28540        4.37180
C          1.62600       -8.30790        3.70230
C          2.14060       -7.12490        3.18920
S          3.69890       -7.02750        2.36160
C          4.67160       -8.34690        3.18760
C          6.14040       -7.97100        3.18030
C          1.42360       -5.94330        3.32100
C          0.27410       -3.51810        4.71980
C         -0.32930       -2.31500        5.17120
C         -1.73340       -2.19950        5.18280
C         -2.41400       -0.95300        5.55640
C         -3.50490       -0.97220        6.42210
C         -4.17420        0.19720        6.73390
C         -3.76820        1.40120        6.18600
C         -2.68370        1.42380        5.32280
S         -2.13910        2.98510        4.63590
C         -3.25740        3.08610        3.19030
C         -2.83000        2.15830        2.07170
C         -2.00480        0.26100        5.00750
C         -2.44420       -3.30110        4.73790
S         -4.17310       -3.35960        4.50640
C          0.63110       -1.36500        5.58590
C          1.92770       -1.79290        5.46040
S          2.00660       -3.40180        4.76580
C          3.09590       -1.01980        5.69020
C          4.38950       -1.42930        5.69540
C          5.48590       -0.44440        5.42580
O          5.41540        0.75990        5.50250
C          6.61640       -1.27360        4.99150
C          6.28220       -2.60990        5.11450
S          7.54410       -3.68730        4.66070
C          8.56850       -2.31520        4.27280
C          9.86910       -2.37880        3.79990
C         10.53670       -1.19410        3.55980
C          9.92260        0.03870        3.78760
C          8.63110        0.11090        4.25750
C          7.93400       -1.07320        4.50650
C          4.97330       -2.76270        5.69320
C          4.51970       -3.89130        6.32650
C          5.18280       -5.12610        6.19670
N          5.68950       -6.14760        6.06310
C          3.41890       -3.90010        7.20800
N          2.58420       -3.92630        7.99560
H          5.08080        7.56740        0.57430
H         10.38930       13.00630       -3.09120
H          9.92580       13.26040       -5.50420
H          8.09890       12.01510       -6.56950
H          6.68190       10.47290       -5.23520
H          3.27920        6.01750        0.67550
H          0.91080        6.24440        1.49290
H          0.81900        5.49160        3.84530
H          0.88600        3.08770        4.37410
H          1.43420       -1.19290        1.68660
H          1.83230        0.19860        0.66800
H         -0.99290       -0.77540        1.38330
H         -0.65460        0.62610        0.36450
H         -0.21110       -0.99350       -0.18630
H          1.13920        2.19010        0.19620
H          3.41050        5.50410       -5.06640
H          3.51560        6.19490       -7.42510
H          1.52940        7.05080       -8.56410
H         -1.98180        7.45470       -9.76720
H         -0.21610        7.56420       -9.73040
H         -0.11410        5.12430       -9.06720
H         -1.87360        5.05200       -9.11820
H         -0.95920        5.32680      -10.60820
H         -0.72080        6.61040       -4.95830
H         -0.86700        4.23330       -4.84710
H         -0.20370        1.70160       -5.04350
H          1.03000        1.89560       -7.16120
H         -0.18480        2.16280       -9.28600
H         -2.25050        2.64930      -10.44720
H         -3.76040        2.85760       -9.54520
H         -3.95890        0.37790       -9.31580
H         -3.89010        0.86210      -11.01470
H         -2.46450        0.17530      -10.22830
H         -3.88440        2.12750       -7.16870
H         -3.84430       -7.63030       -0.06850
H         -2.47240       -9.65550        0.16900
H         -2.19800      -10.72010        2.37050
H         -2.36330      -10.50030        4.79980
H         -3.37380       -9.24250        5.52790
H         -5.41950      -10.50720        4.85780
H         -4.36870      -11.49170        5.88190
H         -4.41020      -11.75980        4.13580
H         -4.71860       -7.75320        4.11180
H         -6.26550       -0.96790       -0.17330
H         -5.00890        0.10690       -0.77810
H         -6.74760        1.38120        0.46310
H         -7.97050        0.87850       -0.70930
H         -6.62410        1.89330       -1.22050
H         -7.92560       -1.91960        1.15730
H         -8.50380       -1.20600       -0.37550
H         -9.60960       -3.73060        0.94060
H        -10.15680       -3.06150       -0.60070
H        -10.39380       -2.14910        0.89540
H         -2.47700       -6.30580        3.22470
H         -1.18810       -7.09270        5.12790
H          0.01500       -9.20410        4.77490
H          2.15770       -9.23880        3.58290
H          4.30010       -8.42280        4.20840
H          4.49930       -9.28090        2.65090
H          6.72640       -8.78060        3.60950
H          6.48550       -7.78720        2.16520
H          6.29910       -7.07550        3.77610
H          1.81610       -5.05030        2.86000
H         -3.81370       -1.90460        6.87040
H         -5.01290        0.17130        7.41340
H         -4.27850        2.32100        6.42850
H         -3.20150        4.12780        2.87680
H         -4.26620        2.86540        3.54000
H         -3.48090        2.28510        1.20790
H         -2.87710        1.12030        2.39600
H         -1.81040        2.38790        1.77100
H         -1.16960        0.30000        4.32470
H          0.37910       -0.40290        5.99370
H          2.93940        0.05170        5.75750
H         10.34250       -3.33270        3.62760
H         11.55090       -1.22250        3.19140
H         10.47280        0.94640        3.59170
H          8.14280        1.05540        4.43940
