
  xtb     02112219023D
 energy: -282.624405307382 gnorm: 0.000524013904 xtb: 6.4.1 (unknown)
156174  0     0  0            999 V2000
    5.4299   -2.5904    7.9525 C   0  0  0  0  0  0  0  0  0  0  0  0
    6.0450   -3.4787    7.1040 C   0  0  0  0  0  0  0  0  0  0  0  0
    5.6734   -3.7427    5.7031 C   0  0  0  0  0  0  0  0  0  0  0  0
    4.7344   -3.2648    5.0851 O   0  0  0  0  0  0  0  0  0  0  0  0
    6.6647   -4.6927    5.2006 C   0  0  0  0  0  0  0  0  0  0  0  0
    7.5532   -4.9905    6.2140 C   0  0  0  0  0  0  0  0  0  0  0  0
    8.7723   -6.1149    5.7566 S   0  0  0  0  0  0  0  0  0  0  0  0
    8.0817   -6.2012    4.1453 C   0  0  0  0  0  0  0  0  0  0  0  0
    8.5530   -6.9764    3.0978 C   0  0  0  0  0  0  0  0  0  0  0  0
    7.8826   -6.9250    1.8920 C   0  0  0  0  0  0  0  0  0  0  0  0
    6.7580   -6.1143    1.7264 C   0  0  0  0  0  0  0  0  0  0  0  0
    6.2827   -5.3415    2.7611 C   0  0  0  0  0  0  0  0  0  0  0  0
    6.9434   -5.3765    3.9906 C   0  0  0  0  0  0  0  0  0  0  0  0
    7.2113   -4.2830    7.4253 C   0  0  0  0  0  0  0  0  0  0  0  0
    7.8867   -4.4226    8.6111 C   0  0  0  0  0  0  0  0  0  0  0  0
    9.0182   -5.2609    8.7040 C   0  0  0  0  0  0  0  0  0  0  0  0
    9.9437   -5.9332    8.7955 N   0  0  0  0  0  0  0  0  0  0  0  0
    7.5616   -3.8195    9.8402 C   0  0  0  0  0  0  0  0  0  0  0  0
    7.3618   -3.3935   10.8876 N   0  0  0  0  0  0  0  0  0  0  0  0
    4.3059   -1.7857    7.7400 C   0  0  0  0  0  0  0  0  0  0  0  0
    3.3062   -1.7651    6.3023 S   0  0  0  0  0  0  0  0  0  0  0  0
    2.2018   -0.5950    6.9687 C   0  0  0  0  0  0  0  0  0  0  0  0
    2.6142   -0.2153    8.2377 C   0  0  0  0  0  0  0  0  0  0  0  0
    2.0352    0.9605    9.3714 S   0  0  0  0  0  0  0  0  0  0  0  0
    3.3318    0.5535   10.4563 C   0  0  0  0  0  0  0  0  0  0  0  0
    3.3792    1.2401   11.7489 C   0  0  0  0  0  0  0  0  0  0  0  0
    4.2374    1.1104   12.5839 O   0  0  0  0  0  0  0  0  0  0  0  0
    2.3018    2.0295   11.8773 O   0  0  0  0  0  0  0  0  0  0  0  0
    2.1929    2.7877   13.0807 C   0  0  0  0  0  0  0  0  0  0  0  0
    2.9844    4.0844   12.9934 C   0  0  0  0  0  0  0  0  0  0  0  0
    4.1759   -0.4170    9.9712 C   0  0  0  0  0  0  0  0  0  0  0  0
    3.7867   -0.8726    8.6808 C   0  0  0  0  0  0  0  0  0  0  0  0
    5.5223   -0.9760   10.8608 Cl  0  0  0  0  0  0  0  0  0  0  0  0
    1.1135   -0.1393    6.1821 C   0  0  0  0  0  0  0  0  0  0  0  0
   -0.0901    0.4412    6.5583 C   0  0  0  0  0  0  0  0  0  0  0  0
   -0.5969    0.5385    7.9255 C   0  0  0  0  0  0  0  0  0  0  0  0
   -1.1988    1.7110    8.3723 C   0  0  0  0  0  0  0  0  0  0  0  0
   -1.6852    1.7839    9.6635 C   0  0  0  0  0  0  0  0  0  0  0  0
   -1.5859    0.6949   10.5108 C   0  0  0  0  0  0  0  0  0  0  0  0
   -1.0045   -0.4899   10.0758 C   0  0  0  0  0  0  0  0  0  0  0  0
   -0.9329   -1.6872   10.9787 C   0  0  0  0  0  0  0  0  0  0  0  0
   -2.2026   -2.5313   10.8531 C   0  0  0  0  0  0  0  0  0  0  0  0
   -0.5204   -0.5589    8.7793 C   0  0  0  0  0  0  0  0  0  0  0  0
   -0.8384    0.8325    5.4331 C   0  0  0  0  0  0  0  0  0  0  0  0
   -2.3984    1.6032    5.2666 S   0  0  0  0  0  0  0  0  0  0  0  0
   -2.2373    1.4998    3.5468 C   0  0  0  0  0  0  0  0  0  0  0  0
   -2.9370    1.8683    2.3883 C   0  0  0  0  0  0  0  0  0  0  0  0
   -4.1278    2.6090    2.2253 C   0  0  0  0  0  0  0  0  0  0  0  0
   -4.5595    2.9429    0.8996 C   0  0  0  0  0  0  0  0  0  0  0  0
   -5.6569    3.6834    0.8960 N   0  0  0  0  0  0  0  0  0  0  0  0
   -6.1104    3.9345    2.4296 S   0  0  0  0  0  0  0  0  0  0  0  0
   -4.9230    3.1095    3.1580 N   0  0  0  0  0  0  0  0  0  0  0  0
   -3.8390    2.4297   -0.2009 C   0  0  0  0  0  0  0  0  0  0  0  0
   -4.0985    2.4942   -1.5782 C   0  0  0  0  0  0  0  0  0  0  0  0
   -5.2369    3.2085   -2.6698 S   0  0  0  0  0  0  0  0  0  0  0  0
   -4.4213    2.4150   -3.9977 C   0  0  0  0  0  0  0  0  0  0  0  0
   -4.6424    2.4224   -5.3870 C   0  0  0  0  0  0  0  0  0  0  0  0
   -5.6790    3.2484   -6.0113 C   0  0  0  0  0  0  0  0  0  0  0  0
   -6.9883    3.1919   -5.5453 C   0  0  0  0  0  0  0  0  0  0  0  0
   -7.9551    4.0016   -6.1124 C   0  0  0  0  0  0  0  0  0  0  0  0
   -7.6220    4.8798   -7.1276 C   0  0  0  0  0  0  0  0  0  0  0  0
   -6.3139    4.9629   -7.5922 C   0  0  0  0  0  0  0  0  0  0  0  0
   -5.9417    5.9672   -8.6446 C   0  0  0  0  0  0  0  0  0  0  0  0
   -5.6636    7.3290   -8.0052 C   0  0  0  0  0  0  0  0  0  0  0  0
   -5.3513    4.1412   -7.0278 C   0  0  0  0  0  0  0  0  0  0  0  0
   -3.7217    1.6206   -6.0456 C   0  0  0  0  0  0  0  0  0  0  0  0
   -2.5579    0.8932   -4.9453 S   0  0  0  0  0  0  0  0  0  0  0  0
   -3.3259    1.6457   -3.5947 C   0  0  0  0  0  0  0  0  0  0  0  0
   -3.1381    1.6988   -2.2087 C   0  0  0  0  0  0  0  0  0  0  0  0
   -2.2771    1.1756   -1.2830 N   0  0  0  0  0  0  0  0  0  0  0  0
   -2.6807    1.6169   -0.0328 C   0  0  0  0  0  0  0  0  0  0  0  0
   -2.1633    1.4263    1.2764 C   0  0  0  0  0  0  0  0  0  0  0  0
   -1.0044    0.8407    1.7613 N   0  0  0  0  0  0  0  0  0  0  0  0
   -1.0498    0.8934    3.1282 C   0  0  0  0  0  0  0  0  0  0  0  0
   -0.2418    0.5185    4.2079 C   0  0  0  0  0  0  0  0  0  0  0  0
    1.2861   -0.2545    4.4344 S   0  0  0  0  0  0  0  0  0  0  0  0
    0.2556    0.5743    1.1038 C   0  0  0  0  0  0  0  0  0  0  0  0
    0.8275    1.8333    0.4572 C   0  0  0  0  0  0  0  0  0  0  0  0
   -1.4243    0.0687   -1.6540 C   0  0  0  0  0  0  0  0  0  0  0  0
   -1.9085   -1.2422   -1.0396 C   0  0  0  0  0  0  0  0  0  0  0  0
   -3.6381    1.2592   -7.4157 C   0  0  0  0  0  0  0  0  0  0  0  0
   -4.5885    1.4160   -8.4121 C   0  0  0  0  0  0  0  0  0  0  0  0
   -4.1678    0.9095   -9.6324 C   0  0  0  0  0  0  0  0  0  0  0  0
   -5.1890    0.9730  -11.0761 S   0  0  0  0  0  0  0  0  0  0  0  0
   -4.3089    2.2623  -12.0386 C   0  0  0  0  0  0  0  0  0  0  0  0
   -4.3744    3.6081  -11.3475 C   0  0  0  0  0  0  0  0  0  0  0  0
   -2.8971    0.3153   -9.6034 C   0  0  0  0  0  0  0  0  0  0  0  0
   -2.2161    0.4517   -8.0029 S   0  0  0  0  0  0  0  0  0  0  0  0
   -2.3171   -0.3190  -10.7094 C   0  0  0  0  0  0  0  0  0  0  0  0
   -1.1303   -0.9926  -10.8195 C   0  0  0  0  0  0  0  0  0  0  0  0
   -0.1825   -1.2869   -9.7256 C   0  0  0  0  0  0  0  0  0  0  0  0
   -0.2211   -0.8739   -8.5797 O   0  0  0  0  0  0  0  0  0  0  0  0
    0.8123   -2.1906  -10.3069 C   0  0  0  0  0  0  0  0  0  0  0  0
    0.5197   -2.3873  -11.6419 C   0  0  0  0  0  0  0  0  0  0  0  0
    1.6267   -3.4302  -12.4471 S   0  0  0  0  0  0  0  0  0  0  0  0
    2.5212   -3.6279  -10.9499 C   0  0  0  0  0  0  0  0  0  0  0  0
    3.6574   -4.4018  -10.7757 C   0  0  0  0  0  0  0  0  0  0  0  0
    4.2373   -4.4410   -9.5233 C   0  0  0  0  0  0  0  0  0  0  0  0
    3.6981   -3.7205   -8.4558 C   0  0  0  0  0  0  0  0  0  0  0  0
    2.5702   -2.9494   -8.6194 C   0  0  0  0  0  0  0  0  0  0  0  0
    1.9645   -2.8945   -9.8763 C   0  0  0  0  0  0  0  0  0  0  0  0
   -0.6462   -1.6333  -12.0301 C   0  0  0  0  0  0  0  0  0  0  0  0
   -1.1154   -1.5246  -13.3154 C   0  0  0  0  0  0  0  0  0  0  0  0
   -0.5099   -2.2354  -14.3723 C   0  0  0  0  0  0  0  0  0  0  0  0
   -0.0273   -2.8116  -15.2395 N   0  0  0  0  0  0  0  0  0  0  0  0
   -2.1636   -0.6828  -13.7311 C   0  0  0  0  0  0  0  0  0  0  0  0
   -2.9787    0.0187  -14.1352 N   0  0  0  0  0  0  0  0  0  0  0  0
    5.8628   -2.4768    8.9385 H   0  0  0  0  0  0  0  0  0  0  0  0
    9.4216   -7.6026    3.2287 H   0  0  0  0  0  0  0  0  0  0  0  0
    8.2336   -7.5219    1.0641 H   0  0  0  0  0  0  0  0  0  0  0  0
    6.2568   -6.0974    0.7704 H   0  0  0  0  0  0  0  0  0  0  0  0
    5.4149   -4.7104    2.6497 H   0  0  0  0  0  0  0  0  0  0  0  0
    1.1245    2.9830   13.1937 H   0  0  0  0  0  0  0  0  0  0  0  0
    2.5543    2.1786   13.9160 H   0  0  0  0  0  0  0  0  0  0  0  0
    2.8305    4.6663   13.8975 H   0  0  0  0  0  0  0  0  0  0  0  0
    4.0446    3.8659   12.8918 H   0  0  0  0  0  0  0  0  0  0  0  0
    2.6583    4.6660   12.1344 H   0  0  0  0  0  0  0  0  0  0  0  0
   -1.2622    2.5652    7.7160 H   0  0  0  0  0  0  0  0  0  0  0  0
   -2.1422    2.6981   10.0118 H   0  0  0  0  0  0  0  0  0  0  0  0
   -1.9630    0.7620   11.5210 H   0  0  0  0  0  0  0  0  0  0  0  0
   -0.8181   -1.3608   12.0141 H   0  0  0  0  0  0  0  0  0  0  0  0
   -0.0664   -2.2973   10.7153 H   0  0  0  0  0  0  0  0  0  0  0  0
   -2.3299   -2.8723    9.8281 H   0  0  0  0  0  0  0  0  0  0  0  0
   -2.1474   -3.4003   11.5044 H   0  0  0  0  0  0  0  0  0  0  0  0
   -3.0760   -1.9448   11.1288 H   0  0  0  0  0  0  0  0  0  0  0  0
   -0.0760   -1.4773    8.4217 H   0  0  0  0  0  0  0  0  0  0  0  0
   -7.2464    2.5046   -4.7541 H   0  0  0  0  0  0  0  0  0  0  0  0
   -8.9733    3.9486   -5.7571 H   0  0  0  0  0  0  0  0  0  0  0  0
   -8.3819    5.5115   -7.5643 H   0  0  0  0  0  0  0  0  0  0  0  0
   -5.0509    5.6338   -9.1796 H   0  0  0  0  0  0  0  0  0  0  0  0
   -6.7568    6.0679   -9.3642 H   0  0  0  0  0  0  0  0  0  0  0  0
   -6.5454    7.6899   -7.4810 H   0  0  0  0  0  0  0  0  0  0  0  0
   -4.8491    7.2502   -7.2885 H   0  0  0  0  0  0  0  0  0  0  0  0
   -5.3888    8.0562   -8.7655 H   0  0  0  0  0  0  0  0  0  0  0  0
   -4.3275    4.1980   -7.3704 H   0  0  0  0  0  0  0  0  0  0  0  0
    0.1506   -0.2366    0.3828 H   0  0  0  0  0  0  0  0  0  0  0  0
    0.9414    0.2252    1.8797 H   0  0  0  0  0  0  0  0  0  0  0  0
    0.1372    2.2516   -0.2716 H   0  0  0  0  0  0  0  0  0  0  0  0
    1.0152    2.5877    1.2177 H   0  0  0  0  0  0  0  0  0  0  0  0
    1.7662    1.6012   -0.0385 H   0  0  0  0  0  0  0  0  0  0  0  0
   -0.3866    0.2777   -1.3934 H   0  0  0  0  0  0  0  0  0  0  0  0
   -1.4711   -0.0067   -2.7431 H   0  0  0  0  0  0  0  0  0  0  0  0
   -1.2436   -2.0528   -1.3250 H   0  0  0  0  0  0  0  0  0  0  0  0
   -1.9452   -1.1806    0.0455 H   0  0  0  0  0  0  0  0  0  0  0  0
   -2.9086   -1.4724   -1.3995 H   0  0  0  0  0  0  0  0  0  0  0  0
   -5.5517    1.8679   -8.2651 H   0  0  0  0  0  0  0  0  0  0  0  0
   -4.8282    2.2749  -12.9951 H   0  0  0  0  0  0  0  0  0  0  0  0
   -3.2822    1.9376  -12.1986 H   0  0  0  0  0  0  0  0  0  0  0  0
   -3.8583    3.5703  -10.3891 H   0  0  0  0  0  0  0  0  0  0  0  0
   -5.4091    3.8942  -11.1722 H   0  0  0  0  0  0  0  0  0  0  0  0
   -3.9003    4.3655  -11.9686 H   0  0  0  0  0  0  0  0  0  0  0  0
   -2.9444   -0.2922  -11.5940 H   0  0  0  0  0  0  0  0  0  0  0  0
    4.0729   -4.9571  -11.6019 H   0  0  0  0  0  0  0  0  0  0  0  0
    5.1226   -5.0385   -9.3674 H   0  0  0  0  0  0  0  0  0  0  0  0
    4.1767   -3.7725   -7.4896 H   0  0  0  0  0  0  0  0  0  0  0  0
    2.1408   -2.3867   -7.8053 H   0  0  0  0  0  0  0  0  0  0  0  0
  1  2  2  0  0  0  0
  2  3  1  0  0  0  0
  3  4  2  0  0  0  0
  3  5  1  0  0  0  0
  5  6  2  0  0  0  0
  6  7  1  0  0  0  0
  7  8  1  0  0  0  0
  8  9  2  0  0  0  0
  9 10  1  0  0  0  0
 10 11  2  0  0  0  0
 11 12  1  0  0  0  0
 12 13  2  0  0  0  0
  6 14  1  0  0  0  0
 14 15  2  0  0  0  0
 15 16  1  0  0  0  0
 16 17  3  0  0  0  0
 15 18  1  0  0  0  0
 18 19  3  0  0  0  0
  1 20  1  0  0  0  0
 20 21  1  0  0  0  0
 21 22  1  0  0  0  0
 22 23  2  0  0  0  0
 23 24  1  0  0  0  0
 24 25  1  0  0  0  0
 25 26  1  0  0  0  0
 26 27  2  0  0  0  0
 26 28  1  0  0  0  0
 28 29  1  0  0  0  0
 29 30  1  0  0  0  0
 25 31  2  0  0  0  0
 31 32  1  0  0  0  0
 31 33  1  0  0  0  0
 22 34  1  0  0  0  0
 34 35  2  0  0  0  0
 35 36  1  0  0  0  0
 36 37  2  0  0  0  0
 37 38  1  0  0  0  0
 38 39  2  0  0  0  0
 39 40  1  0  0  0  0
 40 41  1  0  0  0  0
 41 42  1  0  0  0  0
 40 43  2  0  0  0  0
 35 44  1  0  0  0  0
 44 45  1  0  0  0  0
 45 46  1  0  0  0  0
 46 47  1  0  0  0  0
 47 48  1  0  0  0  0
 48 49  1  0  0  0  0
 49 50  2  0  0  0  0
 50 51  1  0  0  0  0
 51 52  1  0  0  0  0
 49 53  1  0  0  0  0
 53 54  1  0  0  0  0
 54 55  1  0  0  0  0
 55 56  1  0  0  0  0
 56 57  1  0  0  0  0
 57 58  1  0  0  0  0
 58 59  2  0  0  0  0
 59 60  1  0  0  0  0
 60 61  2  0  0  0  0
 61 62  1  0  0  0  0
 62 63  1  0  0  0  0
 63 64  1  0  0  0  0
 62 65  2  0  0  0  0
 57 66  2  0  0  0  0
 66 67  1  0  0  0  0
 67 68  1  0  0  0  0
 68 69  1  0  0  0  0
 69 70  1  0  0  0  0
 70 71  1  0  0  0  0
 71 72  1  0  0  0  0
 72 73  1  0  0  0  0
 73 74  1  0  0  0  0
 74 75  1  0  0  0  0
 75 76  1  0  0  0  0
 73 77  1  0  0  0  0
 77 78  1  0  0  0  0
 70 79  1  0  0  0  0
 79 80  1  0  0  0  0
 66 81  1  0  0  0  0
 81 82  2  0  0  0  0
 82 83  1  0  0  0  0
 83 84  1  0  0  0  0
 84 85  1  0  0  0  0
 85 86  1  0  0  0  0
 83 87  2  0  0  0  0
 87 88  1  0  0  0  0
 87 89  1  0  0  0  0
 89 90  2  0  0  0  0
 90 91  1  0  0  0  0
 91 92  2  0  0  0  0
 91 93  1  0  0  0  0
 93 94  2  0  0  0  0
 94 95  1  0  0  0  0
 95 96  1  0  0  0  0
 96 97  2  0  0  0  0
 97 98  1  0  0  0  0
 98 99  2  0  0  0  0
 99100  1  0  0  0  0
100101  2  0  0  0  0
 94102  1  0  0  0  0
102103  2  0  0  0  0
103104  1  0  0  0  0
104105  3  0  0  0  0
103106  1  0  0  0  0
106107  3  0  0  0  0
 14  2  1  0  0  0  0
 32 20  2  0  0  0  0
 76 34  1  0  0  0  0
 88 81  1  0  0  0  0
102 90  1  0  0  0  0
 13  5  1  0  0  0  0
 32 23  1  0  0  0  0
 43 36  1  0  0  0  0
 75 44  2  0  0  0  0
101 93  1  0  0  0  0
 13  8  1  0  0  0  0
 74 46  2  0  0  0  0
101 96  1  0  0  0  0
 72 47  2  0  0  0  0
 52 48  2  0  0  0  0
 71 53  2  0  0  0  0
 69 54  2  0  0  0  0
 68 56  2  0  0  0  0
 65 58  1  0  0  0  0
  1108  1  0  0  0  0
  9109  1  0  0  0  0
 10110  1  0  0  0  0
 11111  1  0  0  0  0
 12112  1  0  0  0  0
 29113  1  0  0  0  0
 29114  1  0  0  0  0
 30115  1  0  0  0  0
 30116  1  0  0  0  0
 30117  1  0  0  0  0
 37118  1  0  0  0  0
 38119  1  0  0  0  0
 39120  1  0  0  0  0
 41121  1  0  0  0  0
 41122  1  0  0  0  0
 42123  1  0  0  0  0
 42124  1  0  0  0  0
 42125  1  0  0  0  0
 43126  1  0  0  0  0
 59127  1  0  0  0  0
 60128  1  0  0  0  0
 61129  1  0  0  0  0
 63130  1  0  0  0  0
 63131  1  0  0  0  0
 64132  1  0  0  0  0
 64133  1  0  0  0  0
 64134  1  0  0  0  0
 65135  1  0  0  0  0
 77136  1  0  0  0  0
 77137  1  0  0  0  0
 78138  1  0  0  0  0
 78139  1  0  0  0  0
 78140  1  0  0  0  0
 79141  1  0  0  0  0
 79142  1  0  0  0  0
 80143  1  0  0  0  0
 80144  1  0  0  0  0
 80145  1  0  0  0  0
 82146  1  0  0  0  0
 85147  1  0  0  0  0
 85148  1  0  0  0  0
 86149  1  0  0  0  0
 86150  1  0  0  0  0
 86151  1  0  0  0  0
 89152  1  0  0  0  0
 97153  1  0  0  0  0
 98154  1  0  0  0  0
 99155  1  0  0  0  0
100156  1  0  0  0  0
M  END
