156

C          5.42990       -2.59040        7.95250
C          6.04500       -3.47870        7.10400
C          5.67340       -3.74270        5.70310
O          4.73440       -3.26480        5.08510
C          6.66470       -4.69270        5.20060
C          7.55320       -4.99050        6.21400
S          8.77230       -6.11490        5.75660
C          8.08170       -6.20120        4.14530
C          8.55300       -6.97640        3.09780
C          7.88260       -6.92500        1.89200
C          6.75800       -6.11430        1.72640
C          6.28270       -5.34150        2.76110
C          6.94340       -5.37650        3.99060
C          7.21130       -4.28300        7.42530
C          7.88670       -4.42260        8.61110
C          9.01820       -5.26090        8.70400
N          9.94370       -5.93320        8.79550
C          7.56160       -3.81950        9.84020
N          7.36180       -3.39350       10.88760
C          4.30590       -1.78570        7.74000
S          3.30620       -1.76510        6.30230
C          2.20180       -0.59500        6.96870
C          2.61420       -0.21530        8.23770
S          2.03520        0.96050        9.37140
C          3.33180        0.55350       10.45630
C          3.37920        1.24010       11.74890
O          4.23740        1.11040       12.58390
O          2.30180        2.02950       11.87730
C          2.19290        2.78770       13.08070
C          2.98440        4.08440       12.99340
C          4.17590       -0.41700        9.97120
C          3.78670       -0.87260        8.68080
Cl         5.52230       -0.97600       10.86080
C          1.11350       -0.13930        6.18210
C         -0.09010        0.44120        6.55830
C         -0.59690        0.53850        7.92550
C         -1.19880        1.71100        8.37230
C         -1.68520        1.78390        9.66350
C         -1.58590        0.69490       10.51080
C         -1.00450       -0.48990       10.07580
C         -0.93290       -1.68720       10.97870
C         -2.20260       -2.53130       10.85310
C         -0.52040       -0.55890        8.77930
C         -0.83840        0.83250        5.43310
S         -2.39840        1.60320        5.26660
C         -2.23730        1.49980        3.54680
C         -2.93700        1.86830        2.38830
C         -4.12780        2.60900        2.22530
C         -4.55950        2.94290        0.89960
N         -5.65690        3.68340        0.89600
S         -6.11040        3.93450        2.42960
N         -4.92300        3.10950        3.15800
C         -3.83900        2.42970       -0.20090
C         -4.09850        2.49420       -1.57820
S         -5.23690        3.20850       -2.66980
C         -4.42130        2.41500       -3.99770
C         -4.64240        2.42240       -5.38700
C         -5.67900        3.24840       -6.01130
C         -6.98830        3.19190       -5.54530
C         -7.95510        4.00160       -6.11240
C         -7.62200        4.87980       -7.12760
C         -6.31390        4.96290       -7.59220
C         -5.94170        5.96720       -8.64460
C         -5.66360        7.32900       -8.00520
C         -5.35130        4.14120       -7.02780
C         -3.72170        1.62060       -6.04560
S         -2.55790        0.89320       -4.94530
C         -3.32590        1.64570       -3.59470
C         -3.13810        1.69880       -2.20870
N         -2.27710        1.17560       -1.28300
C         -2.68070        1.61690       -0.03280
C         -2.16330        1.42630        1.27640
N         -1.00440        0.84070        1.76130
C         -1.04980        0.89340        3.12820
C         -0.24180        0.51850        4.20790
S          1.28610       -0.25450        4.43440
C          0.25560        0.57430        1.10380
C          0.82750        1.83330        0.45720
C         -1.42430        0.06870       -1.65400
C         -1.90850       -1.24220       -1.03960
C         -3.63810        1.25920       -7.41570
C         -4.58850        1.41600       -8.41210
C         -4.16780        0.90950       -9.63240
S         -5.18900        0.97300      -11.07610
C         -4.30890        2.26230      -12.03860
C         -4.37440        3.60810      -11.34750
C         -2.89710        0.31530       -9.60340
S         -2.21610        0.45170       -8.00290
C         -2.31710       -0.31900      -10.70940
C         -1.13030       -0.99260      -10.81950
C         -0.18250       -1.28690       -9.72560
O         -0.22110       -0.87390       -8.57970
C          0.81230       -2.19060      -10.30690
C          0.51970       -2.38730      -11.64190
S          1.62670       -3.43020      -12.44710
C          2.52120       -3.62790      -10.94990
C          3.65740       -4.40180      -10.77570
C          4.23730       -4.44100       -9.52330
C          3.69810       -3.72050       -8.45580
C          2.57020       -2.94940       -8.61940
C          1.96450       -2.89450       -9.87630
C         -0.64620       -1.63330      -12.03010
C         -1.11540       -1.52460      -13.31540
C         -0.50990       -2.23540      -14.37230
N         -0.02730       -2.81160      -15.23950
C         -2.16360       -0.68280      -13.73110
N         -2.97870        0.01870      -14.13520
H          5.86280       -2.47680        8.93850
H          9.42160       -7.60260        3.22870
H          8.23360       -7.52190        1.06410
H          6.25680       -6.09740        0.77040
H          5.41490       -4.71040        2.64970
H          1.12450        2.98300       13.19370
H          2.55430        2.17860       13.91600
H          2.83050        4.66630       13.89750
H          4.04460        3.86590       12.89180
H          2.65830        4.66600       12.13440
H         -1.26220        2.56520        7.71600
H         -2.14220        2.69810       10.01180
H         -1.96300        0.76200       11.52100
H         -0.81810       -1.36080       12.01410
H         -0.06640       -2.29730       10.71530
H         -2.32990       -2.87230        9.82810
H         -2.14740       -3.40030       11.50440
H         -3.07600       -1.94480       11.12880
H         -0.07600       -1.47730        8.42170
H         -7.24640        2.50460       -4.75410
H         -8.97330        3.94860       -5.75710
H         -8.38190        5.51150       -7.56430
H         -5.05090        5.63380       -9.17960
H         -6.75680        6.06790       -9.36420
H         -6.54540        7.68990       -7.48100
H         -4.84910        7.25020       -7.28850
H         -5.38880        8.05620       -8.76550
H         -4.32750        4.19800       -7.37040
H          0.15060       -0.23660        0.38280
H          0.94140        0.22520        1.87970
H          0.13720        2.25160       -0.27160
H          1.01520        2.58770        1.21770
H          1.76620        1.60120       -0.03850
H         -0.38660        0.27770       -1.39340
H         -1.47110       -0.00670       -2.74310
H         -1.24360       -2.05280       -1.32500
H         -1.94520       -1.18060        0.04550
H         -2.90860       -1.47240       -1.39950
H         -5.55170        1.86790       -8.26510
H         -4.82820        2.27490      -12.99510
H         -3.28220        1.93760      -12.19860
H         -3.85830        3.57030      -10.38910
H         -5.40910        3.89420      -11.17220
H         -3.90030        4.36550      -11.96860
H         -2.94440       -0.29220      -11.59400
H          4.07290       -4.95710      -11.60190
H          5.12260       -5.03850       -9.36740
H          4.17670       -3.77250       -7.48960
H          2.14080       -2.38670       -7.80530
