
  xtb     02112218433D
 energy: -376.942113927682 gnorm: 0.000712250187 xtb: 6.4.1 (unknown)
223248  0     0  0            999 V2000
    4.9872    7.7831   -0.4841 C   0  0  0  0  0  0  0  0  0  0  0  0
    5.8762    8.6745   -1.0072 C   0  0  0  0  0  0  0  0  0  0  0  0
    5.9675    9.1220   -2.4203 C   0  0  0  0  0  0  0  0  0  0  0  0
    5.2717    8.7762   -3.3548 O   0  0  0  0  0  0  0  0  0  0  0  0
    7.0843   10.0675   -2.4545 C   0  0  0  0  0  0  0  0  0  0  0  0
    7.6232   10.1835   -1.1882 C   0  0  0  0  0  0  0  0  0  0  0  0
    8.9527   11.2738   -1.0998 S   0  0  0  0  0  0  0  0  0  0  0  0
    8.7952   11.5975   -2.8177 C   0  0  0  0  0  0  0  0  0  0  0  0
    9.5870   12.4587   -3.5605 C   0  0  0  0  0  0  0  0  0  0  0  0
    9.3204   12.5943   -4.9084 C   0  0  0  0  0  0  0  0  0  0  0  0
    8.2808   11.8851   -5.5134 C   0  0  0  0  0  0  0  0  0  0  0  0
    7.4896   11.0277   -4.7840 C   0  0  0  0  0  0  0  0  0  0  0  0
    7.7399   10.8730   -3.4188 C   0  0  0  0  0  0  0  0  0  0  0  0
    6.9201    9.3513   -0.2469 C   0  0  0  0  0  0  0  0  0  0  0  0
    7.2206    9.2659    1.0887 C   0  0  0  0  0  0  0  0  0  0  0  0
    6.5490    8.4780    2.0429 C   0  0  0  0  0  0  0  0  0  0  0  0
    6.0461    7.8652    2.8740 N   0  0  0  0  0  0  0  0  0  0  0  0
    8.2863   10.0078    1.6414 C   0  0  0  0  0  0  0  0  0  0  0  0
    9.1498   10.6012    2.1093 N   0  0  0  0  0  0  0  0  0  0  0  0
    3.9268    7.0748   -1.0921 C   0  0  0  0  0  0  0  0  0  0  0  0
    3.1237    6.2112   -0.3716 C   0  0  0  0  0  0  0  0  0  0  0  0
    2.1024    5.6136   -1.1282 C   0  0  0  0  0  0  0  0  0  0  0  0
    1.1174    4.6994   -0.6962 C   0  0  0  0  0  0  0  0  0  0  0  0
    1.0411    4.2580    0.7048 C   0  0  0  0  0  0  0  0  0  0  0  0
    0.9523    5.1922    1.7315 C   0  0  0  0  0  0  0  0  0  0  0  0
    0.8921    4.7685    3.0479 C   0  0  0  0  0  0  0  0  0  0  0  0
    0.9262    3.4230    3.3502 C   0  0  0  0  0  0  0  0  0  0  0  0
    1.0036    2.4810    2.3268 C   0  0  0  0  0  0  0  0  0  0  0  0
    1.0509    0.7921    2.8576 S   0  0  0  0  0  0  0  0  0  0  0  0
    1.0836   -0.2200    1.3395 C   0  0  0  0  0  0  0  0  0  0  0  0
   -0.2795   -0.3436    0.6844 C   0  0  0  0  0  0  0  0  0  0  0  0
    1.0569    2.8977    1.0066 C   0  0  0  0  0  0  0  0  0  0  0  0
    0.2343    4.2550   -1.6597 C   0  0  0  0  0  0  0  0  0  0  0  0
    0.2729    4.6742   -3.0171 C   0  0  0  0  0  0  0  0  0  0  0  0
    1.2586    5.5760   -3.4445 C   0  0  0  0  0  0  0  0  0  0  0  0
    1.3356    6.0034   -4.8484 C   0  0  0  0  0  0  0  0  0  0  0  0
    2.5316    5.8955   -5.5544 C   0  0  0  0  0  0  0  0  0  0  0  0
    2.5852    6.2730   -6.8823 C   0  0  0  0  0  0  0  0  0  0  0  0
    1.4600    6.7516   -7.5301 C   0  0  0  0  0  0  0  0  0  0  0  0
    0.2629    6.8522   -6.8353 C   0  0  0  0  0  0  0  0  0  0  0  0
   -1.2388    7.4612   -7.5502 S   0  0  0  0  0  0  0  0  0  0  0  0
   -1.0785    7.0393   -9.3207 C   0  0  0  0  0  0  0  0  0  0  0  0
   -1.0001    5.5417   -9.5420 C   0  0  0  0  0  0  0  0  0  0  0  0
    0.2078    6.4901   -5.4959 C   0  0  0  0  0  0  0  0  0  0  0  0
    2.1583    6.0241   -2.4876 C   0  0  0  0  0  0  0  0  0  0  0  0
    3.4469    7.1589   -2.7760 S   0  0  0  0  0  0  0  0  0  0  0  0
   -0.7400    4.0589   -3.7948 C   0  0  0  0  0  0  0  0  0  0  0  0
   -1.5423    3.2188   -3.0835 C   0  0  0  0  0  0  0  0  0  0  0  0
   -1.0832    3.1451   -1.3861 S   0  0  0  0  0  0  0  0  0  0  0  0
   -2.6332    2.4012   -3.5092 C   0  0  0  0  0  0  0  0  0  0  0  0
   -2.9089    1.8098   -4.7295 C   0  0  0  0  0  0  0  0  0  0  0  0
   -2.1286    1.9304   -5.9628 C   0  0  0  0  0  0  0  0  0  0  0  0
   -0.7385    1.8523   -5.9689 C   0  0  0  0  0  0  0  0  0  0  0  0
   -0.0490    1.9479   -7.1621 C   0  0  0  0  0  0  0  0  0  0  0  0
   -0.7324    2.0972   -8.3569 C   0  0  0  0  0  0  0  0  0  0  0  0
   -2.1198    2.1509   -8.3727 C   0  0  0  0  0  0  0  0  0  0  0  0
   -2.8806    2.2215   -9.6651 C   0  0  0  0  0  0  0  0  0  0  0  0
   -3.3288    0.8198  -10.0843 C   0  0  0  0  0  0  0  0  0  0  0  0
   -2.8053    2.0721   -7.1698 C   0  0  0  0  0  0  0  0  0  0  0  0
   -4.0436    0.9709   -4.6392 C   0  0  0  0  0  0  0  0  0  0  0  0
   -4.7217   -0.2381   -5.7162 S   0  0  0  0  0  0  0  0  0  0  0  0
   -5.7134   -0.8315   -4.4157 C   0  0  0  0  0  0  0  0  0  0  0  0
   -6.4308   -1.9905   -4.0525 C   0  0  0  0  0  0  0  0  0  0  0  0
   -6.5450   -3.2704   -4.6521 C   0  0  0  0  0  0  0  0  0  0  0  0
   -6.7529   -4.4283   -3.8085 C   0  0  0  0  0  0  0  0  0  0  0  0
   -6.6719   -5.5595   -4.4863 N   0  0  0  0  0  0  0  0  0  0  0  0
   -6.3837   -5.2173   -6.0429 S   0  0  0  0  0  0  0  0  0  0  0  0
   -6.3302   -3.6037   -5.9121 N   0  0  0  0  0  0  0  0  0  0  0  0
   -6.9919   -4.2483   -2.4245 C   0  0  0  0  0  0  0  0  0  0  0  0
   -6.9209   -5.0792   -1.2806 C   0  0  0  0  0  0  0  0  0  0  0  0
   -6.1999   -6.5961   -0.8132 S   0  0  0  0  0  0  0  0  0  0  0  0
   -6.0508   -6.0161    0.8434 C   0  0  0  0  0  0  0  0  0  0  0  0
   -5.1784   -6.3395    1.9086 C   0  0  0  0  0  0  0  0  0  0  0  0
   -4.3693   -7.5520    2.0101 C   0  0  0  0  0  0  0  0  0  0  0  0
   -3.7426   -8.1029    0.8959 C   0  0  0  0  0  0  0  0  0  0  0  0
   -2.9656   -9.2380    1.0341 C   0  0  0  0  0  0  0  0  0  0  0  0
   -2.8117   -9.8365    2.2718 C   0  0  0  0  0  0  0  0  0  0  0  0
   -3.4415   -9.3099    3.3939 C   0  0  0  0  0  0  0  0  0  0  0  0
   -3.3237   -9.9859    4.7296 C   0  0  0  0  0  0  0  0  0  0  0  0
   -4.4524  -11.0017    4.9147 C   0  0  0  0  0  0  0  0  0  0  0  0
   -4.2192   -8.1729    3.2497 C   0  0  0  0  0  0  0  0  0  0  0  0
   -5.1368   -5.3109    2.8456 C   0  0  0  0  0  0  0  0  0  0  0  0
   -6.3410   -4.0653    2.5338 S   0  0  0  0  0  0  0  0  0  0  0  0
   -6.7118   -4.8011    1.0219 C   0  0  0  0  0  0  0  0  0  0  0  0
   -7.1937   -4.2688   -0.1748 C   0  0  0  0  0  0  0  0  0  0  0  0
   -7.4607   -2.9824   -0.5707 N   0  0  0  0  0  0  0  0  0  0  0  0
   -7.2258   -2.9382   -1.9332 C   0  0  0  0  0  0  0  0  0  0  0  0
   -6.7718   -1.8321   -2.6835 C   0  0  0  0  0  0  0  0  0  0  0  0
   -6.2764   -0.6314   -2.2238 N   0  0  0  0  0  0  0  0  0  0  0  0
   -5.6003   -0.0528   -3.2594 C   0  0  0  0  0  0  0  0  0  0  0  0
   -4.6303    0.9471   -3.3764 C   0  0  0  0  0  0  0  0  0  0  0  0
   -3.8062    1.9824   -2.2725 S   0  0  0  0  0  0  0  0  0  0  0  0
   -6.0673   -0.1606   -0.8741 C   0  0  0  0  0  0  0  0  0  0  0  0
   -6.9105    1.0741   -0.5659 C   0  0  0  0  0  0  0  0  0  0  0  0
   -8.3645   -2.1343    0.1768 C   0  0  0  0  0  0  0  0  0  0  0  0
   -9.7192   -2.8151    0.3644 C   0  0  0  0  0  0  0  0  0  0  0  0
   -4.0511   -4.9090    3.6795 C   0  0  0  0  0  0  0  0  0  0  0  0
   -2.7712   -5.3918    3.7057 C   0  0  0  0  0  0  0  0  0  0  0  0
   -1.8387   -4.5032    4.2914 C   0  0  0  0  0  0  0  0  0  0  0  0
   -0.4395   -4.6394    4.3218 C   0  0  0  0  0  0  0  0  0  0  0  0
    0.2273   -5.9115    4.0259 C   0  0  0  0  0  0  0  0  0  0  0  0
   -0.2756   -7.1028    4.5519 C   0  0  0  0  0  0  0  0  0  0  0  0
    0.4147   -8.2854    4.3718 C   0  0  0  0  0  0  0  0  0  0  0  0
    1.6260   -8.3079    3.7023 C   0  0  0  0  0  0  0  0  0  0  0  0
    2.1406   -7.1249    3.1892 C   0  0  0  0  0  0  0  0  0  0  0  0
    3.6989   -7.0275    2.3616 S   0  0  0  0  0  0  0  0  0  0  0  0
    4.6716   -8.3469    3.1876 C   0  0  0  0  0  0  0  0  0  0  0  0
    6.1404   -7.9710    3.1803 C   0  0  0  0  0  0  0  0  0  0  0  0
    1.4236   -5.9433    3.3210 C   0  0  0  0  0  0  0  0  0  0  0  0
    0.2741   -3.5181    4.7198 C   0  0  0  0  0  0  0  0  0  0  0  0
   -0.3293   -2.3150    5.1712 C   0  0  0  0  0  0  0  0  0  0  0  0
   -1.7334   -2.1995    5.1828 C   0  0  0  0  0  0  0  0  0  0  0  0
   -2.4140   -0.9530    5.5564 C   0  0  0  0  0  0  0  0  0  0  0  0
   -3.5049   -0.9722    6.4221 C   0  0  0  0  0  0  0  0  0  0  0  0
   -4.1742    0.1972    6.7339 C   0  0  0  0  0  0  0  0  0  0  0  0
   -3.7682    1.4012    6.1860 C   0  0  0  0  0  0  0  0  0  0  0  0
   -2.6837    1.4238    5.3228 C   0  0  0  0  0  0  0  0  0  0  0  0
   -2.1391    2.9851    4.6359 S   0  0  0  0  0  0  0  0  0  0  0  0
   -3.2574    3.0861    3.1903 C   0  0  0  0  0  0  0  0  0  0  0  0
   -2.8300    2.1583    2.0717 C   0  0  0  0  0  0  0  0  0  0  0  0
   -2.0048    0.2610    5.0075 C   0  0  0  0  0  0  0  0  0  0  0  0
   -2.4442   -3.3011    4.7379 C   0  0  0  0  0  0  0  0  0  0  0  0
   -4.1731   -3.3596    4.5064 S   0  0  0  0  0  0  0  0  0  0  0  0
    0.6311   -1.3650    5.5859 C   0  0  0  0  0  0  0  0  0  0  0  0
    1.9277   -1.7929    5.4604 C   0  0  0  0  0  0  0  0  0  0  0  0
    2.0066   -3.4018    4.7658 S   0  0  0  0  0  0  0  0  0  0  0  0
    3.0959   -1.0198    5.6902 C   0  0  0  0  0  0  0  0  0  0  0  0
    4.3895   -1.4293    5.6954 C   0  0  0  0  0  0  0  0  0  0  0  0
    5.4859   -0.4444    5.4258 C   0  0  0  0  0  0  0  0  0  0  0  0
    5.4154    0.7599    5.5025 O   0  0  0  0  0  0  0  0  0  0  0  0
    6.6164   -1.2736    4.9915 C   0  0  0  0  0  0  0  0  0  0  0  0
    6.2822   -2.6099    5.1145 C   0  0  0  0  0  0  0  0  0  0  0  0
    7.5441   -3.6873    4.6607 S   0  0  0  0  0  0  0  0  0  0  0  0
    8.5685   -2.3152    4.2728 C   0  0  0  0  0  0  0  0  0  0  0  0
    9.8691   -2.3788    3.7999 C   0  0  0  0  0  0  0  0  0  0  0  0
   10.5367   -1.1941    3.5598 C   0  0  0  0  0  0  0  0  0  0  0  0
    9.9226    0.0387    3.7876 C   0  0  0  0  0  0  0  0  0  0  0  0
    8.6311    0.1109    4.2575 C   0  0  0  0  0  0  0  0  0  0  0  0
    7.9340   -1.0732    4.5065 C   0  0  0  0  0  0  0  0  0  0  0  0
    4.9733   -2.7627    5.6932 C   0  0  0  0  0  0  0  0  0  0  0  0
    4.5197   -3.8913    6.3265 C   0  0  0  0  0  0  0  0  0  0  0  0
    5.1828   -5.1261    6.1967 C   0  0  0  0  0  0  0  0  0  0  0  0
    5.6895   -6.1476    6.0631 N   0  0  0  0  0  0  0  0  0  0  0  0
    3.4189   -3.9001    7.2080 C   0  0  0  0  0  0  0  0  0  0  0  0
    2.5842   -3.9263    7.9956 N   0  0  0  0  0  0  0  0  0  0  0  0
    5.0808    7.5674    0.5743 H   0  0  0  0  0  0  0  0  0  0  0  0
   10.3893   13.0063   -3.0912 H   0  0  0  0  0  0  0  0  0  0  0  0
    9.9258   13.2604   -5.5042 H   0  0  0  0  0  0  0  0  0  0  0  0
    8.0989   12.0151   -6.5695 H   0  0  0  0  0  0  0  0  0  0  0  0
    6.6819   10.4729   -5.2352 H   0  0  0  0  0  0  0  0  0  0  0  0
    3.2792    6.0175    0.6755 H   0  0  0  0  0  0  0  0  0  0  0  0
    0.9108    6.2444    1.4929 H   0  0  0  0  0  0  0  0  0  0  0  0
    0.8190    5.4916    3.8453 H   0  0  0  0  0  0  0  0  0  0  0  0
    0.8860    3.0877    4.3741 H   0  0  0  0  0  0  0  0  0  0  0  0
    1.4342   -1.1929    1.6866 H   0  0  0  0  0  0  0  0  0  0  0  0
    1.8323    0.1986    0.6680 H   0  0  0  0  0  0  0  0  0  0  0  0
   -0.9929   -0.7754    1.3833 H   0  0  0  0  0  0  0  0  0  0  0  0
   -0.6546    0.6261    0.3645 H   0  0  0  0  0  0  0  0  0  0  0  0
   -0.2111   -0.9935   -0.1863 H   0  0  0  0  0  0  0  0  0  0  0  0
    1.1392    2.1901    0.1962 H   0  0  0  0  0  0  0  0  0  0  0  0
    3.4105    5.5041   -5.0664 H   0  0  0  0  0  0  0  0  0  0  0  0
    3.5156    6.1949   -7.4251 H   0  0  0  0  0  0  0  0  0  0  0  0
    1.5294    7.0508   -8.5641 H   0  0  0  0  0  0  0  0  0  0  0  0
   -1.9818    7.4547   -9.7672 H   0  0  0  0  0  0  0  0  0  0  0  0
   -0.2161    7.5642   -9.7304 H   0  0  0  0  0  0  0  0  0  0  0  0
   -0.1141    5.1243   -9.0672 H   0  0  0  0  0  0  0  0  0  0  0  0
   -1.8736    5.0520   -9.1182 H   0  0  0  0  0  0  0  0  0  0  0  0
   -0.9592    5.3268  -10.6082 H   0  0  0  0  0  0  0  0  0  0  0  0
   -0.7208    6.6104   -4.9583 H   0  0  0  0  0  0  0  0  0  0  0  0
   -0.8670    4.2333   -4.8471 H   0  0  0  0  0  0  0  0  0  0  0  0
   -0.2037    1.7016   -5.0435 H   0  0  0  0  0  0  0  0  0  0  0  0
    1.0300    1.8956   -7.1612 H   0  0  0  0  0  0  0  0  0  0  0  0
   -0.1848    2.1628   -9.2860 H   0  0  0  0  0  0  0  0  0  0  0  0
   -2.2505    2.6493  -10.4472 H   0  0  0  0  0  0  0  0  0  0  0  0
   -3.7604    2.8576   -9.5452 H   0  0  0  0  0  0  0  0  0  0  0  0
   -3.9589    0.3779   -9.3158 H   0  0  0  0  0  0  0  0  0  0  0  0
   -3.8901    0.8621  -11.0147 H   0  0  0  0  0  0  0  0  0  0  0  0
   -2.4645    0.1753  -10.2283 H   0  0  0  0  0  0  0  0  0  0  0  0
   -3.8844    2.1275   -7.1687 H   0  0  0  0  0  0  0  0  0  0  0  0
   -3.8443   -7.6303   -0.0685 H   0  0  0  0  0  0  0  0  0  0  0  0
   -2.4724   -9.6555    0.1690 H   0  0  0  0  0  0  0  0  0  0  0  0
   -2.1980  -10.7201    2.3705 H   0  0  0  0  0  0  0  0  0  0  0  0
   -2.3633  -10.5003    4.7998 H   0  0  0  0  0  0  0  0  0  0  0  0
   -3.3738   -9.2425    5.5279 H   0  0  0  0  0  0  0  0  0  0  0  0
   -5.4195  -10.5072    4.8578 H   0  0  0  0  0  0  0  0  0  0  0  0
   -4.3687  -11.4917    5.8819 H   0  0  0  0  0  0  0  0  0  0  0  0
   -4.4102  -11.7598    4.1358 H   0  0  0  0  0  0  0  0  0  0  0  0
   -4.7186   -7.7532    4.1118 H   0  0  0  0  0  0  0  0  0  0  0  0
   -6.2655   -0.9679   -0.1733 H   0  0  0  0  0  0  0  0  0  0  0  0
   -5.0089    0.1069   -0.7781 H   0  0  0  0  0  0  0  0  0  0  0  0
   -6.7476    1.3812    0.4631 H   0  0  0  0  0  0  0  0  0  0  0  0
   -7.9705    0.8785   -0.7093 H   0  0  0  0  0  0  0  0  0  0  0  0
   -6.6241    1.8933   -1.2205 H   0  0  0  0  0  0  0  0  0  0  0  0
   -7.9256   -1.9196    1.1573 H   0  0  0  0  0  0  0  0  0  0  0  0
   -8.5038   -1.2060   -0.3755 H   0  0  0  0  0  0  0  0  0  0  0  0
   -9.6096   -3.7306    0.9406 H   0  0  0  0  0  0  0  0  0  0  0  0
  -10.1568   -3.0615   -0.6007 H   0  0  0  0  0  0  0  0  0  0  0  0
  -10.3938   -2.1491    0.8954 H   0  0  0  0  0  0  0  0  0  0  0  0
   -2.4770   -6.3058    3.2247 H   0  0  0  0  0  0  0  0  0  0  0  0
   -1.1881   -7.0927    5.1279 H   0  0  0  0  0  0  0  0  0  0  0  0
    0.0150   -9.2041    4.7749 H   0  0  0  0  0  0  0  0  0  0  0  0
    2.1577   -9.2388    3.5829 H   0  0  0  0  0  0  0  0  0  0  0  0
    4.3001   -8.4228    4.2084 H   0  0  0  0  0  0  0  0  0  0  0  0
    4.4993   -9.2809    2.6509 H   0  0  0  0  0  0  0  0  0  0  0  0
    6.7264   -8.7806    3.6095 H   0  0  0  0  0  0  0  0  0  0  0  0
    6.4855   -7.7872    2.1652 H   0  0  0  0  0  0  0  0  0  0  0  0
    6.2991   -7.0755    3.7761 H   0  0  0  0  0  0  0  0  0  0  0  0
    1.8161   -5.0503    2.8600 H   0  0  0  0  0  0  0  0  0  0  0  0
   -3.8137   -1.9046    6.8704 H   0  0  0  0  0  0  0  0  0  0  0  0
   -5.0129    0.1713    7.4134 H   0  0  0  0  0  0  0  0  0  0  0  0
   -4.2785    2.3210    6.4285 H   0  0  0  0  0  0  0  0  0  0  0  0
   -3.2015    4.1278    2.8768 H   0  0  0  0  0  0  0  0  0  0  0  0
   -4.2662    2.8654    3.5400 H   0  0  0  0  0  0  0  0  0  0  0  0
   -3.4809    2.2851    1.2079 H   0  0  0  0  0  0  0  0  0  0  0  0
   -2.8771    1.1203    2.3960 H   0  0  0  0  0  0  0  0  0  0  0  0
   -1.8104    2.3879    1.7710 H   0  0  0  0  0  0  0  0  0  0  0  0
   -1.1696    0.3000    4.3247 H   0  0  0  0  0  0  0  0  0  0  0  0
    0.3791   -0.4029    5.9937 H   0  0  0  0  0  0  0  0  0  0  0  0
    2.9394    0.0517    5.7575 H   0  0  0  0  0  0  0  0  0  0  0  0
   10.3425   -3.3327    3.6276 H   0  0  0  0  0  0  0  0  0  0  0  0
   11.5509   -1.2225    3.1914 H   0  0  0  0  0  0  0  0  0  0  0  0
   10.4728    0.9464    3.5917 H   0  0  0  0  0  0  0  0  0  0  0  0
    8.1428    1.0554    4.4394 H   0  0  0  0  0  0  0  0  0  0  0  0
  1  2  2  0  0  0  0
  2  3  1  0  0  0  0
  3  4  2  0  0  0  0
  3  5  1  0  0  0  0
  5  6  2  0  0  0  0
  6  7  1  0  0  0  0
  7  8  1  0  0  0  0
  8  9  2  0  0  0  0
  9 10  1  0  0  0  0
 10 11  2  0  0  0  0
 11 12  1  0  0  0  0
 12 13  2  0  0  0  0
  6 14  1  0  0  0  0
 14 15  2  0  0  0  0
 15 16  1  0  0  0  0
 16 17  3  0  0  0  0
 15 18  1  0  0  0  0
 18 19  3  0  0  0  0
  1 20  1  0  0  0  0
 20 21  2  0  0  0  0
 21 22  1  0  0  0  0
 22 23  2  0  0  0  0
 23 24  1  0  0  0  0
 24 25  2  0  0  0  0
 25 26  1  0  0  0  0
 26 27  2  0  0  0  0
 27 28  1  0  0  0  0
 28 29  1  0  0  0  0
 29 30  1  0  0  0  0
 30 31  1  0  0  0  0
 28 32  2  0  0  0  0
 23 33  1  0  0  0  0
 33 34  2  0  0  0  0
 34 35  1  0  0  0  0
 35 36  1  0  0  0  0
 36 37  2  0  0  0  0
 37 38  1  0  0  0  0
 38 39  2  0  0  0  0
 39 40  1  0  0  0  0
 40 41  1  0  0  0  0
 41 42  1  0  0  0  0
 42 43  1  0  0  0  0
 40 44  2  0  0  0  0
 35 45  2  0  0  0  0
 45 46  1  0  0  0  0
 34 47  1  0  0  0  0
 47 48  2  0  0  0  0
 48 49  1  0  0  0  0
 48 50  1  0  0  0  0
 50 51  2  0  0  0  0
 51 52  1  0  0  0  0
 52 53  2  0  0  0  0
 53 54  1  0  0  0  0
 54 55  2  0  0  0  0
 55 56  1  0  0  0  0
 56 57  1  0  0  0  0
 57 58  1  0  0  0  0
 56 59  2  0  0  0  0
 51 60  1  0  0  0  0
 60 61  1  0  0  0  0
 61 62  1  0  0  0  0
 62 63  1  0  0  0  0
 63 64  1  0  0  0  0
 64 65  1  0  0  0  0
 65 66  2  0  0  0  0
 66 67  1  0  0  0  0
 67 68  1  0  0  0  0
 65 69  1  0  0  0  0
 69 70  1  0  0  0  0
 70 71  1  0  0  0  0
 71 72  1  0  0  0  0
 72 73  1  0  0  0  0
 73 74  1  0  0  0  0
 74 75  2  0  0  0  0
 75 76  1  0  0  0  0
 76 77  2  0  0  0  0
 77 78  1  0  0  0  0
 78 79  1  0  0  0  0
 79 80  1  0  0  0  0
 78 81  2  0  0  0  0
 73 82  2  0  0  0  0
 82 83  1  0  0  0  0
 83 84  1  0  0  0  0
 84 85  1  0  0  0  0
 85 86  1  0  0  0  0
 86 87  1  0  0  0  0
 87 88  1  0  0  0  0
 88 89  1  0  0  0  0
 89 90  1  0  0  0  0
 90 91  1  0  0  0  0
 91 92  1  0  0  0  0
 89 93  1  0  0  0  0
 93 94  1  0  0  0  0
 86 95  1  0  0  0  0
 95 96  1  0  0  0  0
 82 97  1  0  0  0  0
 97 98  2  0  0  0  0
 98 99  1  0  0  0  0
 99100  2  0  0  0  0
100101  1  0  0  0  0
101102  2  0  0  0  0
102103  1  0  0  0  0
103104  2  0  0  0  0
104105  1  0  0  0  0
105106  1  0  0  0  0
106107  1  0  0  0  0
107108  1  0  0  0  0
105109  2  0  0  0  0
100110  1  0  0  0  0
110111  2  0  0  0  0
111112  1  0  0  0  0
112113  1  0  0  0  0
113114  2  0  0  0  0
114115  1  0  0  0  0
115116  2  0  0  0  0
116117  1  0  0  0  0
117118  1  0  0  0  0
118119  1  0  0  0  0
119120  1  0  0  0  0
117121  2  0  0  0  0
112122  2  0  0  0  0
122123  1  0  0  0  0
111124  1  0  0  0  0
124125  2  0  0  0  0
125126  1  0  0  0  0
125127  1  0  0  0  0
127128  2  0  0  0  0
128129  1  0  0  0  0
129130  2  0  0  0  0
129131  1  0  0  0  0
131132  2  0  0  0  0
132133  1  0  0  0  0
133134  1  0  0  0  0
134135  2  0  0  0  0
135136  1  0  0  0  0
136137  2  0  0  0  0
137138  1  0  0  0  0
138139  2  0  0  0  0
132140  1  0  0  0  0
140141  2  0  0  0  0
141142  1  0  0  0  0
142143  3  0  0  0  0
141144  1  0  0  0  0
144145  3  0  0  0  0
 14  2  1  0  0  0  0
 46 20  1  0  0  0  0
 92 50  1  0  0  0  0
123 97  1  0  0  0  0
140128  1  0  0  0  0
 13  5  1  0  0  0  0
 45 22  1  0  0  0  0
 59 52  1  0  0  0  0
 91 60  2  0  0  0  0
122 99  1  0  0  0  0
139131  1  0  0  0  0
 13  8  1  0  0  0  0
 32 24  1  0  0  0  0
 49 33  1  0  0  0  0
 90 62  2  0  0  0  0
109101  1  0  0  0  0
126110  1  0  0  0  0
139134  1  0  0  0  0
 44 36  1  0  0  0  0
 88 63  2  0  0  0  0
121113  1  0  0  0  0
 68 64  2  0  0  0  0
 87 69  2  0  0  0  0
 85 70  2  0  0  0  0
 84 72  2  0  0  0  0
 81 74  1  0  0  0  0
  1146  1  0  0  0  0
  9147  1  0  0  0  0
 10148  1  0  0  0  0
 11149  1  0  0  0  0
 12150  1  0  0  0  0
 21151  1  0  0  0  0
 25152  1  0  0  0  0
 26153  1  0  0  0  0
 27154  1  0  0  0  0
 30155  1  0  0  0  0
 30156  1  0  0  0  0
 31157  1  0  0  0  0
 31158  1  0  0  0  0
 31159  1  0  0  0  0
 32160  1  0  0  0  0
 37161  1  0  0  0  0
 38162  1  0  0  0  0
 39163  1  0  0  0  0
 42164  1  0  0  0  0
 42165  1  0  0  0  0
 43166  1  0  0  0  0
 43167  1  0  0  0  0
 43168  1  0  0  0  0
 44169  1  0  0  0  0
 47170  1  0  0  0  0
 53171  1  0  0  0  0
 54172  1  0  0  0  0
 55173  1  0  0  0  0
 57174  1  0  0  0  0
 57175  1  0  0  0  0
 58176  1  0  0  0  0
 58177  1  0  0  0  0
 58178  1  0  0  0  0
 59179  1  0  0  0  0
 75180  1  0  0  0  0
 76181  1  0  0  0  0
 77182  1  0  0  0  0
 79183  1  0  0  0  0
 79184  1  0  0  0  0
 80185  1  0  0  0  0
 80186  1  0  0  0  0
 80187  1  0  0  0  0
 81188  1  0  0  0  0
 93189  1  0  0  0  0
 93190  1  0  0  0  0
 94191  1  0  0  0  0
 94192  1  0  0  0  0
 94193  1  0  0  0  0
 95194  1  0  0  0  0
 95195  1  0  0  0  0
 96196  1  0  0  0  0
 96197  1  0  0  0  0
 96198  1  0  0  0  0
 98199  1  0  0  0  0
102200  1  0  0  0  0
103201  1  0  0  0  0
104202  1  0  0  0  0
107203  1  0  0  0  0
107204  1  0  0  0  0
108205  1  0  0  0  0
108206  1  0  0  0  0
108207  1  0  0  0  0
109208  1  0  0  0  0
114209  1  0  0  0  0
115210  1  0  0  0  0
116211  1  0  0  0  0
119212  1  0  0  0  0
119213  1  0  0  0  0
120214  1  0  0  0  0
120215  1  0  0  0  0
120216  1  0  0  0  0
121217  1  0  0  0  0
124218  1  0  0  0  0
127219  1  0  0  0  0
135220  1  0  0  0  0
136221  1  0  0  0  0
137222  1  0  0  0  0
138223  1  0  0  0  0
M  END
