157

C          3.53230        1.18020       11.37540
C          3.76750        2.50950       11.51480
C          4.06330        3.12810       12.82430
O          4.08260        2.58220       13.90350
C          4.29410        4.56910       12.54240
C          4.58010        5.59790       13.41830
C          4.75120        6.87620       12.89800
Cl         5.10820        8.17990       13.95890
C          4.63760        7.11020       11.52280
Cl         4.84950        8.70090       10.90770
C          4.35500        6.06970       10.64490
C          4.18090        4.80300       11.16730
C          3.88100        3.53130       10.45560
O          3.83520        3.38110        9.25480
C          3.17260        0.51820       10.15220
C          2.26420        1.03020        9.22330
O          1.42090        2.06490        9.50280
C          0.62470        1.97430       10.67520
C         -0.41930        0.87020       10.55140
C          2.16950        0.46730        7.92880
O          1.30260        0.95120        6.99630
C          1.35930        2.33210        6.64370
C          2.72940        2.73340        6.11630
C          2.91410       -0.66010        7.57310
C          3.61610       -1.35100        8.60700
C          3.78630       -0.73610        9.87360
N          4.55220       -1.32050       10.81330
C          5.05500       -2.49790       10.54530
C          4.77320       -3.16300        9.34120
N          4.08030       -2.59040        8.39090
C          2.92670       -1.14450        6.22510
C          3.90530       -1.89740        5.59110
C          5.24000       -2.19020        6.11400
C          5.99720       -1.19130        6.72410
C          7.26890       -1.47430        7.18050
C          7.80500       -2.74100        7.01840
C          7.07460       -3.73970        6.38860
C          7.66720       -5.09760        6.14300
C          8.22180       -5.18140        4.71950
C          5.79610       -3.45110        5.93620
C          3.51540       -2.24140        4.28480
S          4.31260       -3.14130        3.01310
C          2.96700       -2.81480        1.97350
C          2.53680       -3.09040        0.66630
C          3.10430       -3.89560       -0.34470
C          2.39240       -4.06410       -1.57850
N          3.01500       -4.87810       -2.41660
S          4.38290       -5.38700       -1.71330
N          4.23240       -4.58760       -0.31320
C          1.19840       -3.33860       -1.78020
C          0.38590       -3.20530       -2.91690
S          0.28270       -3.80850       -4.53660
C         -1.08360       -2.75380       -4.81740
C         -1.90960       -2.54320       -5.94020
C         -1.77210       -3.31780       -7.17570
C         -2.87940       -3.91870       -7.77130
C         -2.71840       -4.67860       -8.91330
C         -1.46000       -4.85660       -9.46460
C         -0.34420       -4.27680       -8.87630
C          1.03450       -4.51660       -9.41940
C          1.72520       -5.63030       -8.62970
C         -0.51320       -3.50950       -7.73240
C         -2.87370       -1.58490       -5.67770
S         -2.78550       -0.97570       -4.03170
C         -1.42930       -1.99250       -3.69980
C         -0.58950       -2.25520       -2.60980
N         -0.43580       -1.82280       -1.32050
C          0.66060       -2.47770       -0.78140
C          1.28220       -2.43730        0.49520
N          0.94860       -1.82100        1.69150
C          1.96570       -2.05260        2.57860
C          2.27030       -1.73130        3.90790
S          1.56910       -0.79050        5.17660
C         -0.33730       -1.38970        2.19290
C         -1.37070       -2.51110        2.11990
C         -1.10820       -0.61820       -0.89020
C         -0.13570        0.55160       -0.76100
C         -3.83040       -1.00290       -6.55720
S         -5.23050       -0.18300       -5.87340
C         -5.79020        0.20390       -7.45870
C         -6.82910        0.84610       -8.12350
C         -6.55290        0.72730       -9.51480
N         -5.37420        0.04760       -9.69210
C         -4.80080       -0.36410      -10.94810
C         -5.12840       -1.82260      -11.26020
C         -4.91040       -0.28680       -8.45130
C         -3.80100       -0.96120       -7.93480
C         -7.50220        1.32560      -10.32710
C         -8.52090        1.91260       -9.58600
S         -8.28420        1.70800       -7.83820
C         -9.65940        2.61820       -9.99620
C        -10.11050        2.96260      -11.24430
C         -9.57420        2.72770      -12.58640
O         -8.56920        2.13360      -12.92910
C        -10.53220        3.38130      -13.52100
C        -10.48310        3.45660      -14.89860
C        -11.50790        4.12890      -15.55600
Cl       -11.47810        4.24320      -17.27140
C        -12.55790        4.71030      -14.83890
Cl       -13.81260        5.53370      -15.67780
C        -12.60140        4.63160      -13.45040
C        -11.58100        3.96430      -12.80400
C        -11.36720        3.72980      -11.35210
O        -12.07950        4.09550      -10.44300
H          3.71470        0.54620       12.23670
H          4.67160        5.41570       14.47740
H          4.27030        6.24920        9.58470
H          0.14430        2.95320       10.74860
H          1.23930        1.81390       11.56780
H         -1.08140        0.89360       11.41200
H          0.06540       -0.10340       10.50530
H         -1.00600        1.00810        9.64620
H          0.59580        2.42640        5.86700
H          1.09180        2.95460        7.50110
H          2.68030        3.74090        5.71330
H          3.04830        2.05360        5.32860
H          3.45730        2.71840        6.92380
H          5.67670       -2.94240       11.31030
H          5.11520       -4.17020        9.14970
H          5.58450       -0.19920        6.84040
H          7.84920       -0.70080        7.66270
H          8.80120       -2.95290        7.38000
H          8.47040       -5.28940        6.85740
H          6.90080       -5.86440        6.27400
H          8.64310       -6.16640        4.53200
H          9.00100       -4.43650        4.57410
H          7.43230       -4.99540        3.99500
H          5.21190       -4.22540        5.46140
H         -3.85710       -3.79460       -7.32990
H         -3.57810       -5.14390       -9.37360
H         -1.34400       -5.45630      -10.35580
H          1.62680       -3.60230       -9.34230
H          0.97670       -4.79990      -10.47210
H          2.72680       -5.80440       -9.01550
H          1.79820       -5.36060       -7.57860
H          1.15750       -6.55500       -8.70610
H          0.34670       -3.04510       -7.27220
H         -0.18130       -1.11080        3.23790
H         -0.67770       -0.49500        1.67070
H         -1.50080       -2.86280        1.09900
H         -2.32760       -2.15910        2.49610
H         -1.04730       -3.35200        2.72880
H         -1.65380       -0.79300        0.03740
H         -1.84990       -0.38540       -1.65830
H          0.31770        0.76400       -1.72640
H          0.66020        0.32640       -0.05520
H         -0.66540        1.43900       -0.42500
H         -3.71620       -0.22820      -10.89500
H         -5.19920        0.28800      -11.72810
H         -4.73540       -2.47320      -10.48200
H         -6.20510       -1.96150      -11.32220
H         -4.68440       -2.10690      -12.20990
H         -3.00560       -1.38600       -8.51770
H         -7.49380        1.35720      -11.40120
H        -10.30300        2.96290       -9.19030
H         -9.67290        3.00770      -15.45150
H        -13.41080        5.08060      -12.89670
