
  xtb     02152201133D
 energy: -338.519210639342 gnorm: 0.000273661716 xtb: 6.4.1 (unknown)
195217  0     0  0            999 V2000
   -0.0732   -9.6737    5.3427 C   0  0  0  0  0  0  0  0  0  0  0  0
    0.0014   -9.5766    6.7126 C   0  0  0  0  0  0  0  0  0  0  0  0
    0.3758  -10.7453    7.5154 C   0  0  0  0  0  0  0  0  0  0  0  0
    0.6175  -11.8674    7.1201 O   0  0  0  0  0  0  0  0  0  0  0  0
    0.4197  -10.2659    8.9259 C   0  0  0  0  0  0  0  0  0  0  0  0
    0.7161  -10.9530   10.0846 C   0  0  0  0  0  0  0  0  0  0  0  0
    0.6835  -10.2557   11.2890 C   0  0  0  0  0  0  0  0  0  0  0  0
    1.0467  -11.0830   12.7528 Cl  0  0  0  0  0  0  0  0  0  0  0  0
    0.3601   -8.8975   11.3208 C   0  0  0  0  0  0  0  0  0  0  0  0
    0.3249   -8.0605   12.8232 Cl  0  0  0  0  0  0  0  0  0  0  0  0
    0.0642   -8.2084   10.1484 C   0  0  0  0  0  0  0  0  0  0  0  0
    0.0979   -8.9049    8.9583 C   0  0  0  0  0  0  0  0  0  0  0  0
   -0.1728   -8.4206    7.5752 C   0  0  0  0  0  0  0  0  0  0  0  0
   -0.4663   -7.2775    7.2716 O   0  0  0  0  0  0  0  0  0  0  0  0
   -0.3788   -8.7102    4.3858 C   0  0  0  0  0  0  0  0  0  0  0  0
   -0.3430   -8.9207    2.9839 C   0  0  0  0  0  0  0  0  0  0  0  0
    0.1972  -10.0173    2.3704 N   0  0  0  0  0  0  0  0  0  0  0  0
    1.2933  -10.7130    2.9283 C   0  0  0  0  0  0  0  0  0  0  0  0
    2.3574  -10.0255    3.5028 C   0  0  0  0  0  0  0  0  0  0  0  0
    3.4068  -10.7255    4.0639 C   0  0  0  0  0  0  0  0  0  0  0  0
    3.4300  -12.1148    4.0531 C   0  0  0  0  0  0  0  0  0  0  0  0
    4.5441  -12.8761    4.7001 C   0  0  0  0  0  0  0  0  0  0  0  0
    2.3785  -12.7900    3.4437 C   0  0  0  0  0  0  0  0  0  0  0  0
    1.3198  -12.1032    2.8846 C   0  0  0  0  0  0  0  0  0  0  0  0
   -0.2021  -10.3656    1.0670 C   0  0  0  0  0  0  0  0  0  0  0  0
    0.7498  -10.7171    0.1128 C   0  0  0  0  0  0  0  0  0  0  0  0
    0.3550  -11.0557   -1.1644 C   0  0  0  0  0  0  0  0  0  0  0  0
   -0.9882  -11.0506   -1.5270 C   0  0  0  0  0  0  0  0  0  0  0  0
   -1.3952  -11.3954   -2.9256 C   0  0  0  0  0  0  0  0  0  0  0  0
   -1.9295  -10.7114   -0.5658 C   0  0  0  0  0  0  0  0  0  0  0  0
   -1.5493  -10.3772    0.7199 C   0  0  0  0  0  0  0  0  0  0  0  0
   -0.8702   -7.8105    2.3006 C   0  0  0  0  0  0  0  0  0  0  0  0
   -1.1468   -7.4365    0.6286 S   0  0  0  0  0  0  0  0  0  0  0  0
   -1.6757   -5.8156    1.0657 C   0  0  0  0  0  0  0  0  0  0  0  0
   -1.6791   -5.6048    2.4376 C   0  0  0  0  0  0  0  0  0  0  0  0
   -2.0976   -4.4474    3.0696 N   0  0  0  0  0  0  0  0  0  0  0  0
   -1.4656   -4.0728    4.2681 C   0  0  0  0  0  0  0  0  0  0  0  0
   -0.0825   -4.1765    4.3898 C   0  0  0  0  0  0  0  0  0  0  0  0
    0.5319   -3.8687    5.5860 C   0  0  0  0  0  0  0  0  0  0  0  0
   -0.2077   -3.4407    6.6818 C   0  0  0  0  0  0  0  0  0  0  0  0
    0.4686   -3.1618    7.9880 C   0  0  0  0  0  0  0  0  0  0  0  0
   -1.5826   -3.3073    6.5397 C   0  0  0  0  0  0  0  0  0  0  0  0
   -2.2114   -3.6203    5.3509 C   0  0  0  0  0  0  0  0  0  0  0  0
   -3.1854   -3.7145    2.5837 C   0  0  0  0  0  0  0  0  0  0  0  0
   -3.1869   -2.3235    2.6543 C   0  0  0  0  0  0  0  0  0  0  0  0
   -4.2314   -1.6026    2.1093 C   0  0  0  0  0  0  0  0  0  0  0  0
   -5.2939   -2.2381    1.4798 C   0  0  0  0  0  0  0  0  0  0  0  0
   -6.4035   -1.4582    0.8434 C   0  0  0  0  0  0  0  0  0  0  0  0
   -5.3022   -3.6285    1.4446 C   0  0  0  0  0  0  0  0  0  0  0  0
   -4.2710   -4.3593    1.9960 C   0  0  0  0  0  0  0  0  0  0  0  0
   -1.2201   -6.7517    3.1320 C   0  0  0  0  0  0  0  0  0  0  0  0
   -0.9457   -7.0878    4.8006 S   0  0  0  0  0  0  0  0  0  0  0  0
   -1.9366   -4.8814    0.0198 C   0  0  0  0  0  0  0  0  0  0  0  0
   -2.4503   -5.1408   -1.2353 C   0  0  0  0  0  0  0  0  0  0  0  0
   -3.0692   -6.4091   -1.6315 C   0  0  0  0  0  0  0  0  0  0  0  0
   -2.7082   -7.0426   -2.8157 C   0  0  0  0  0  0  0  0  0  0  0  0
   -3.3379   -8.2162   -3.1835 C   0  0  0  0  0  0  0  0  0  0  0  0
   -4.3365   -8.7564   -2.3910 C   0  0  0  0  0  0  0  0  0  0  0  0
   -4.7223   -8.1268   -1.2151 C   0  0  0  0  0  0  0  0  0  0  0  0
   -5.8219   -8.6739   -0.3476 C   0  0  0  0  0  0  0  0  0  0  0  0
   -5.2727   -9.3073    0.9314 C   0  0  0  0  0  0  0  0  0  0  0  0
   -4.0739   -6.9591   -0.8448 C   0  0  0  0  0  0  0  0  0  0  0  0
   -2.3949   -4.0006   -2.0606 C   0  0  0  0  0  0  0  0  0  0  0  0
   -2.9031   -3.7022   -3.7058 S   0  0  0  0  0  0  0  0  0  0  0  0
   -2.3714   -2.0601   -3.5468 C   0  0  0  0  0  0  0  0  0  0  0  0
   -2.2510   -0.8958   -4.3233 C   0  0  0  0  0  0  0  0  0  0  0  0
   -2.5025   -0.6673   -5.6934 C   0  0  0  0  0  0  0  0  0  0  0  0
   -2.1384    0.5981   -6.2635 C   0  0  0  0  0  0  0  0  0  0  0  0
   -2.3743    0.6543   -7.5650 N   0  0  0  0  0  0  0  0  0  0  0  0
   -3.0060   -0.7622   -8.0320 S   0  0  0  0  0  0  0  0  0  0  0  0
   -3.0003   -1.5025   -6.5918 N   0  0  0  0  0  0  0  0  0  0  0  0
   -1.6385    1.6098   -5.4161 C   0  0  0  0  0  0  0  0  0  0  0  0
   -1.2870    2.9438   -5.6805 C   0  0  0  0  0  0  0  0  0  0  0  0
   -1.1545    4.0285   -7.0240 S   0  0  0  0  0  0  0  0  0  0  0  0
   -0.6639    5.2952   -5.9231 C   0  0  0  0  0  0  0  0  0  0  0  0
   -0.2688    6.6363   -6.1191 C   0  0  0  0  0  0  0  0  0  0  0  0
   -0.1327    7.2486   -7.4429 C   0  0  0  0  0  0  0  0  0  0  0  0
   -1.1293    7.0884   -8.4007 C   0  0  0  0  0  0  0  0  0  0  0  0
   -0.9847    7.6693   -9.6468 C   0  0  0  0  0  0  0  0  0  0  0  0
    0.1452    8.4098   -9.9471 C   0  0  0  0  0  0  0  0  0  0  0  0
    1.1584    8.5636   -9.0086 C   0  0  0  0  0  0  0  0  0  0  0  0
    2.3720    9.3984   -9.3012 C   0  0  0  0  0  0  0  0  0  0  0  0
    2.2260   10.7861   -8.6731 C   0  0  0  0  0  0  0  0  0  0  0  0
    1.0118    7.9720   -7.7640 C   0  0  0  0  0  0  0  0  0  0  0  0
    0.0573    7.2447   -4.9237 C   0  0  0  0  0  0  0  0  0  0  0  0
   -0.0916    6.1542   -3.5552 S   0  0  0  0  0  0  0  0  0  0  0  0
   -0.6157    4.8784   -4.5927 C   0  0  0  0  0  0  0  0  0  0  0  0
   -0.9677    3.5291   -4.4549 C   0  0  0  0  0  0  0  0  0  0  0  0
   -1.0798    2.6084   -3.4478 N   0  0  0  0  0  0  0  0  0  0  0  0
   -1.4772    1.4076   -4.0163 C   0  0  0  0  0  0  0  0  0  0  0  0
   -1.6849    0.1064   -3.4850 C   0  0  0  0  0  0  0  0  0  0  0  0
   -1.4473   -0.4553   -2.2398 N   0  0  0  0  0  0  0  0  0  0  0  0
   -1.8492   -1.7622   -2.2876 C   0  0  0  0  0  0  0  0  0  0  0  0
   -1.8554   -2.8758   -1.4371 C   0  0  0  0  0  0  0  0  0  0  0  0
   -1.3740   -3.2220    0.1843 S   0  0  0  0  0  0  0  0  0  0  0  0
   -0.5818   -0.0206   -1.1672 C   0  0  0  0  0  0  0  0  0  0  0  0
    0.8533    0.1756   -1.6495 C   0  0  0  0  0  0  0  0  0  0  0  0
   -1.1606    3.0628   -2.0776 C   0  0  0  0  0  0  0  0  0  0  0  0
   -2.5702    2.8999   -1.5143 C   0  0  0  0  0  0  0  0  0  0  0  0
    0.4473    8.6117   -4.6613 C   0  0  0  0  0  0  0  0  0  0  0  0
    1.3034    8.8931   -3.5840 C   0  0  0  0  0  0  0  0  0  0  0  0
    1.6748   10.1943   -3.3506 C   0  0  0  0  0  0  0  0  0  0  0  0
    2.5700   10.7390   -2.2927 C   0  0  0  0  0  0  0  0  0  0  0  0
    3.1444   10.1252   -1.4277 O   0  0  0  0  0  0  0  0  0  0  0  0
    2.5906   12.2066   -2.5499 C   0  0  0  0  0  0  0  0  0  0  0  0
    1.7770   12.4919   -3.6675 C   0  0  0  0  0  0  0  0  0  0  0  0
    1.2085   11.2484   -4.1609 C   0  0  0  0  0  0  0  0  0  0  0  0
    0.3429   10.9795   -5.2067 C   0  0  0  0  0  0  0  0  0  0  0  0
   -0.0345    9.6678   -5.4437 C   0  0  0  0  0  0  0  0  0  0  0  0
    1.6413   13.7992   -4.1031 C   0  0  0  0  0  0  0  0  0  0  0  0
    2.3147   14.7951   -3.4195 C   0  0  0  0  0  0  0  0  0  0  0  0
    3.1258   14.5263   -2.3019 C   0  0  0  0  0  0  0  0  0  0  0  0
    3.2592   13.1929   -1.8667 C   0  0  0  0  0  0  0  0  0  0  0  0
    3.7699   15.6494   -1.6836 C   0  0  0  0  0  0  0  0  0  0  0  0
    4.5837   15.7961   -0.6058 C   0  0  0  0  0  0  0  0  0  0  0  0
    5.1421   14.8637    0.3952 C   0  0  0  0  0  0  0  0  0  0  0  0
    4.9985   13.6664    0.4981 O   0  0  0  0  0  0  0  0  0  0  0  0
    5.9581   15.7039    1.3124 C   0  0  0  0  0  0  0  0  0  0  0  0
    6.6889   15.3105    2.4168 C   0  0  0  0  0  0  0  0  0  0  0  0
    7.3801   16.2851    3.1273 C   0  0  0  0  0  0  0  0  0  0  0  0
    8.2999   15.8338    4.5061 Cl  0  0  0  0  0  0  0  0  0  0  0  0
    7.3345   17.6279    2.7316 C   0  0  0  0  0  0  0  0  0  0  0  0
    8.1992   18.8104    3.6288 Cl  0  0  0  0  0  0  0  0  0  0  0  0
    6.5970   18.0176    1.6195 C   0  0  0  0  0  0  0  0  0  0  0  0
    5.9122   17.0442    0.9176 C   0  0  0  0  0  0  0  0  0  0  0  0
    5.0592   17.1698   -0.2866 C   0  0  0  0  0  0  0  0  0  0  0  0
    4.7962   18.1813   -0.8957 O   0  0  0  0  0  0  0  0  0  0  0  0
    0.1390  -10.6702    4.9690 H   0  0  0  0  0  0  0  0  0  0  0  0
    0.9653  -12.0021   10.0615 H   0  0  0  0  0  0  0  0  0  0  0  0
   -0.1871   -7.1598   10.1725 H   0  0  0  0  0  0  0  0  0  0  0  0
    2.3504   -8.9455    3.5186 H   0  0  0  0  0  0  0  0  0  0  0  0
    4.2230  -10.1813    4.5162 H   0  0  0  0  0  0  0  0  0  0  0  0
    5.3979  -12.2318    4.8940 H   0  0  0  0  0  0  0  0  0  0  0  0
    4.8615  -13.7066    4.0727 H   0  0  0  0  0  0  0  0  0  0  0  0
    4.2016  -13.2863    5.6502 H   0  0  0  0  0  0  0  0  0  0  0  0
    2.3828  -13.8696    3.4200 H   0  0  0  0  0  0  0  0  0  0  0  0
    0.5007  -12.6357    2.4241 H   0  0  0  0  0  0  0  0  0  0  0  0
    1.7965  -10.7145    0.3785 H   0  0  0  0  0  0  0  0  0  0  0  0
    1.1025  -11.3207   -1.8979 H   0  0  0  0  0  0  0  0  0  0  0  0
   -2.4718  -11.5239   -2.9967 H   0  0  0  0  0  0  0  0  0  0  0  0
   -0.9070  -12.3112   -3.2542 H   0  0  0  0  0  0  0  0  0  0  0  0
   -1.0986  -10.5967   -3.6050 H   0  0  0  0  0  0  0  0  0  0  0  0
   -2.9763  -10.7066   -0.8285 H   0  0  0  0  0  0  0  0  0  0  0  0
   -2.2921  -10.1321    1.4643 H   0  0  0  0  0  0  0  0  0  0  0  0
    0.5025   -4.5053    3.5427 H   0  0  0  0  0  0  0  0  0  0  0  0
    1.6043   -3.9664    5.6735 H   0  0  0  0  0  0  0  0  0  0  0  0
    1.3842   -2.5924    7.8383 H   0  0  0  0  0  0  0  0  0  0  0  0
    0.7347   -4.1046    8.4660 H   0  0  0  0  0  0  0  0  0  0  0  0
   -0.1854   -2.6099    8.6583 H   0  0  0  0  0  0  0  0  0  0  0  0
   -2.1758   -2.9716    7.3779 H   0  0  0  0  0  0  0  0  0  0  0  0
   -3.2841   -3.5317    5.2593 H   0  0  0  0  0  0  0  0  0  0  0  0
   -2.3569   -1.8167    3.1235 H   0  0  0  0  0  0  0  0  0  0  0  0
   -4.2118   -0.5233    2.1625 H   0  0  0  0  0  0  0  0  0  0  0  0
   -6.3343   -1.5262   -0.2428 H   0  0  0  0  0  0  0  0  0  0  0  0
   -6.3547   -0.4093    1.1252 H   0  0  0  0  0  0  0  0  0  0  0  0
   -7.3725   -1.8562    1.1392 H   0  0  0  0  0  0  0  0  0  0  0  0
   -6.1324   -4.1428    0.9815 H   0  0  0  0  0  0  0  0  0  0  0  0
   -4.2981   -5.4391    1.9876 H   0  0  0  0  0  0  0  0  0  0  0  0
   -1.9364   -6.6159   -3.4382 H   0  0  0  0  0  0  0  0  0  0  0  0
   -3.0581   -8.7079   -4.1034 H   0  0  0  0  0  0  0  0  0  0  0  0
   -4.8347   -9.6651   -2.6993 H   0  0  0  0  0  0  0  0  0  0  0  0
   -6.3966   -9.4184   -0.9019 H   0  0  0  0  0  0  0  0  0  0  0  0
   -6.4987   -7.8597   -0.0760 H   0  0  0  0  0  0  0  0  0  0  0  0
   -4.6747  -10.1842    0.6965 H   0  0  0  0  0  0  0  0  0  0  0  0
   -6.0882   -9.6131    1.5832 H   0  0  0  0  0  0  0  0  0  0  0  0
   -4.6464   -8.5990    1.4697 H   0  0  0  0  0  0  0  0  0  0  0  0
   -4.3750   -6.4437    0.0547 H   0  0  0  0  0  0  0  0  0  0  0  0
   -2.0173    6.5226   -8.1626 H   0  0  0  0  0  0  0  0  0  0  0  0
   -1.7609    7.5464  -10.3875 H   0  0  0  0  0  0  0  0  0  0  0  0
    0.2462    8.8666  -10.9211 H   0  0  0  0  0  0  0  0  0  0  0  0
    2.5028    9.5007  -10.3799 H   0  0  0  0  0  0  0  0  0  0  0  0
    3.2609    8.9129   -8.8931 H   0  0  0  0  0  0  0  0  0  0  0  0
    2.1124   10.7043   -7.5938 H   0  0  0  0  0  0  0  0  0  0  0  0
    1.3487   11.2902   -9.0730 H   0  0  0  0  0  0  0  0  0  0  0  0
    3.1024   11.3940   -8.8852 H   0  0  0  0  0  0  0  0  0  0  0  0
    1.8002    8.0695   -7.0310 H   0  0  0  0  0  0  0  0  0  0  0  0
   -0.6034   -0.8115   -0.4132 H   0  0  0  0  0  0  0  0  0  0  0  0
   -0.9753    0.8798   -0.6951 H   0  0  0  0  0  0  0  0  0  0  0  0
    0.9028    0.9068   -2.4529 H   0  0  0  0  0  0  0  0  0  0  0  0
    1.2486   -0.7658   -2.0238 H   0  0  0  0  0  0  0  0  0  0  0  0
    1.4791    0.5114   -0.8271 H   0  0  0  0  0  0  0  0  0  0  0  0
   -0.4190    2.5580   -1.4576 H   0  0  0  0  0  0  0  0  0  0  0  0
   -0.8987    4.1237   -2.0871 H   0  0  0  0  0  0  0  0  0  0  0  0
   -2.8935    1.8623   -1.5544 H   0  0  0  0  0  0  0  0  0  0  0  0
   -2.5978    3.2388   -0.4821 H   0  0  0  0  0  0  0  0  0  0  0  0
   -3.2719    3.4956   -2.0936 H   0  0  0  0  0  0  0  0  0  0  0  0
    1.6760    8.0980   -2.9548 H   0  0  0  0  0  0  0  0  0  0  0  0
   -0.0447   11.7731   -5.8276 H   0  0  0  0  0  0  0  0  0  0  0  0
   -0.7243    9.4528   -6.2451 H   0  0  0  0  0  0  0  0  0  0  0  0
    1.0254   14.0407   -4.9564 H   0  0  0  0  0  0  0  0  0  0  0  0
    2.2146   15.8185   -3.7522 H   0  0  0  0  0  0  0  0  0  0  0  0
    3.8709   12.9446   -1.0142 H   0  0  0  0  0  0  0  0  0  0  0  0
    3.5684   16.5979   -2.1800 H   0  0  0  0  0  0  0  0  0  0  0  0
    6.7222   14.2755    2.7193 H   0  0  0  0  0  0  0  0  0  0  0  0
    6.5613   19.0515    1.3143 H   0  0  0  0  0  0  0  0  0  0  0  0
  1  2  2  0  0  0  0
  2  3  1  0  0  0  0
  3  4  2  0  0  0  0
  3  5  1  0  0  0  0
  5  6  2  0  0  0  0
  6  7  1  0  0  0  0
  7  8  1  0  0  0  0
  7  9  2  0  0  0  0
  9 10  1  0  0  0  0
  9 11  1  0  0  0  0
 11 12  2  0  0  0  0
 12 13  1  0  0  0  0
 13 14  2  0  0  0  0
  1 15  1  0  0  0  0
 15 16  2  0  0  0  0
 16 17  1  0  0  0  0
 17 18  1  0  0  0  0
 18 19  2  0  0  0  0
 19 20  1  0  0  0  0
 20 21  2  0  0  0  0
 21 22  1  0  0  0  0
 21 23  1  0  0  0  0
 23 24  2  0  0  0  0
 17 25  1  0  0  0  0
 25 26  2  0  0  0  0
 26 27  1  0  0  0  0
 27 28  2  0  0  0  0
 28 29  1  0  0  0  0
 28 30  1  0  0  0  0
 30 31  2  0  0  0  0
 16 32  1  0  0  0  0
 32 33  1  0  0  0  0
 33 34  1  0  0  0  0
 34 35  2  0  0  0  0
 35 36  1  0  0  0  0
 36 37  1  0  0  0  0
 37 38  2  0  0  0  0
 38 39  1  0  0  0  0
 39 40  2  0  0  0  0
 40 41  1  0  0  0  0
 40 42  1  0  0  0  0
 42 43  2  0  0  0  0
 36 44  1  0  0  0  0
 44 45  2  0  0  0  0
 45 46  1  0  0  0  0
 46 47  2  0  0  0  0
 47 48  1  0  0  0  0
 47 49  1  0  0  0  0
 49 50  2  0  0  0  0
 35 51  1  0  0  0  0
 51 52  1  0  0  0  0
 34 53  1  0  0  0  0
 53 54  2  0  0  0  0
 54 55  1  0  0  0  0
 55 56  2  0  0  0  0
 56 57  1  0  0  0  0
 57 58  2  0  0  0  0
 58 59  1  0  0  0  0
 59 60  1  0  0  0  0
 60 61  1  0  0  0  0
 59 62  2  0  0  0  0
 54 63  1  0  0  0  0
 63 64  1  0  0  0  0
 64 65  1  0  0  0  0
 65 66  1  0  0  0  0
 66 67  1  0  0  0  0
 67 68  1  0  0  0  0
 68 69  2  0  0  0  0
 69 70  1  0  0  0  0
 70 71  1  0  0  0  0
 68 72  1  0  0  0  0
 72 73  1  0  0  0  0
 73 74  1  0  0  0  0
 74 75  1  0  0  0  0
 75 76  1  0  0  0  0
 76 77  1  0  0  0  0
 77 78  2  0  0  0  0
 78 79  1  0  0  0  0
 79 80  2  0  0  0  0
 80 81  1  0  0  0  0
 81 82  1  0  0  0  0
 82 83  1  0  0  0  0
 81 84  2  0  0  0  0
 76 85  2  0  0  0  0
 85 86  1  0  0  0  0
 86 87  1  0  0  0  0
 87 88  1  0  0  0  0
 88 89  1  0  0  0  0
 89 90  1  0  0  0  0
 90 91  1  0  0  0  0
 91 92  1  0  0  0  0
 92 93  1  0  0  0  0
 93 94  1  0  0  0  0
 94 95  1  0  0  0  0
 92 96  1  0  0  0  0
 96 97  1  0  0  0  0
 89 98  1  0  0  0  0
 98 99  1  0  0  0  0
 85100  1  0  0  0  0
100101  2  0  0  0  0
101102  1  0  0  0  0
102103  1  0  0  0  0
103104  2  0  0  0  0
103105  1  0  0  0  0
105106  2  0  0  0  0
106107  1  0  0  0  0
107108  1  0  0  0  0
108109  2  0  0  0  0
106110  1  0  0  0  0
110111  2  0  0  0  0
111112  1  0  0  0  0
112113  2  0  0  0  0
112114  1  0  0  0  0
114115  2  0  0  0  0
115116  1  0  0  0  0
116117  2  0  0  0  0
116118  1  0  0  0  0
118119  2  0  0  0  0
119120  1  0  0  0  0
120121  1  0  0  0  0
120122  2  0  0  0  0
122123  1  0  0  0  0
122124  1  0  0  0  0
124125  2  0  0  0  0
125126  1  0  0  0  0
126127  2  0  0  0  0
 13  2  1  0  0  0  0
 52 15  1  0  0  0  0
 95 53  1  0  0  0  0
109100  1  0  0  0  0
126115  1  0  0  0  0
 12  5  1  0  0  0  0
 24 18  1  0  0  0  0
 31 25  1  0  0  0  0
 51 32  2  0  0  0  0
 62 55  1  0  0  0  0
 94 63  2  0  0  0  0
107102  2  0  0  0  0
125118  1  0  0  0  0
 43 37  1  0  0  0  0
 50 44  1  0  0  0  0
 93 65  2  0  0  0  0
113105  1  0  0  0  0
 91 66  2  0  0  0  0
 71 67  2  0  0  0  0
 90 72  2  0  0  0  0
 88 73  2  0  0  0  0
 87 75  2  0  0  0  0
 84 77  1  0  0  0  0
  1128  1  0  0  0  0
  6129  1  0  0  0  0
 11130  1  0  0  0  0
 19131  1  0  0  0  0
 20132  1  0  0  0  0
 22133  1  0  0  0  0
 22134  1  0  0  0  0
 22135  1  0  0  0  0
 23136  1  0  0  0  0
 24137  1  0  0  0  0
 26138  1  0  0  0  0
 27139  1  0  0  0  0
 29140  1  0  0  0  0
 29141  1  0  0  0  0
 29142  1  0  0  0  0
 30143  1  0  0  0  0
 31144  1  0  0  0  0
 38145  1  0  0  0  0
 39146  1  0  0  0  0
 41147  1  0  0  0  0
 41148  1  0  0  0  0
 41149  1  0  0  0  0
 42150  1  0  0  0  0
 43151  1  0  0  0  0
 45152  1  0  0  0  0
 46153  1  0  0  0  0
 48154  1  0  0  0  0
 48155  1  0  0  0  0
 48156  1  0  0  0  0
 49157  1  0  0  0  0
 50158  1  0  0  0  0
 56159  1  0  0  0  0
 57160  1  0  0  0  0
 58161  1  0  0  0  0
 60162  1  0  0  0  0
 60163  1  0  0  0  0
 61164  1  0  0  0  0
 61165  1  0  0  0  0
 61166  1  0  0  0  0
 62167  1  0  0  0  0
 78168  1  0  0  0  0
 79169  1  0  0  0  0
 80170  1  0  0  0  0
 82171  1  0  0  0  0
 82172  1  0  0  0  0
 83173  1  0  0  0  0
 83174  1  0  0  0  0
 83175  1  0  0  0  0
 84176  1  0  0  0  0
 96177  1  0  0  0  0
 96178  1  0  0  0  0
 97179  1  0  0  0  0
 97180  1  0  0  0  0
 97181  1  0  0  0  0
 98182  1  0  0  0  0
 98183  1  0  0  0  0
 99184  1  0  0  0  0
 99185  1  0  0  0  0
 99186  1  0  0  0  0
101187  1  0  0  0  0
108188  1  0  0  0  0
109189  1  0  0  0  0
110190  1  0  0  0  0
111191  1  0  0  0  0
113192  1  0  0  0  0
114193  1  0  0  0  0
119194  1  0  0  0  0
124195  1  0  0  0  0
M  END
