
  xtb     02272211243D
 energy: -339.219898861934 gnorm: 0.000300895527 xtb: 6.4.1 (unknown)
199219  0     0  0            999 V2000
   -0.5819   -7.5962    6.0527 C   0  0  0  0  0  0  0  0  0  0  0  0
   -1.2348   -6.9624    7.0825 C   0  0  0  0  0  0  0  0  0  0  0  0
   -1.1206   -7.4669    8.4555 C   0  0  0  0  0  0  0  0  0  0  0  0
   -0.4853   -8.4275    8.8390 O   0  0  0  0  0  0  0  0  0  0  0  0
   -1.9615   -6.5600    9.2863 C   0  0  0  0  0  0  0  0  0  0  0  0
   -2.2018   -6.5759   10.6446 C   0  0  0  0  0  0  0  0  0  0  0  0
   -3.0365   -5.5970   11.1761 C   0  0  0  0  0  0  0  0  0  0  0  0
   -3.3553   -5.5871   12.8660 Cl  0  0  0  0  0  0  0  0  0  0  0  0
   -3.6147   -4.6265   10.3543 C   0  0  0  0  0  0  0  0  0  0  0  0
   -4.6407   -3.4273   11.0380 Cl  0  0  0  0  0  0  0  0  0  0  0  0
   -3.3710   -4.6161    8.9842 C   0  0  0  0  0  0  0  0  0  0  0  0
   -2.5424   -5.5885    8.4637 C   0  0  0  0  0  0  0  0  0  0  0  0
   -2.1160   -5.8073    7.0535 C   0  0  0  0  0  0  0  0  0  0  0  0
   -2.4614   -5.1401    6.0948 O   0  0  0  0  0  0  0  0  0  0  0  0
   -0.5401   -7.3031    4.6917 C   0  0  0  0  0  0  0  0  0  0  0  0
    0.1979   -8.0438    3.7340 C   0  0  0  0  0  0  0  0  0  0  0  0
    0.8327   -9.2355    3.9807 N   0  0  0  0  0  0  0  0  0  0  0  0
    2.0565   -9.5334    3.3618 C   0  0  0  0  0  0  0  0  0  0  0  0
    3.0093   -8.5395    3.1535 C   0  0  0  0  0  0  0  0  0  0  0  0
    4.2470   -8.8618    2.6320 C   0  0  0  0  0  0  0  0  0  0  0  0
    4.5737  -10.1742    2.3183 C   0  0  0  0  0  0  0  0  0  0  0  0
    5.9517  -10.5465    1.8643 C   0  0  0  0  0  0  0  0  0  0  0  0
    3.6004  -11.1536    2.4867 C   0  0  0  0  0  0  0  0  0  0  0  0
    2.3559  -10.8435    2.9936 C   0  0  0  0  0  0  0  0  0  0  0  0
    0.2478  -10.1914    4.8377 C   0  0  0  0  0  0  0  0  0  0  0  0
    1.0271  -10.8900    5.7554 C   0  0  0  0  0  0  0  0  0  0  0  0
    0.4370  -11.7994    6.6094 C   0  0  0  0  0  0  0  0  0  0  0  0
   -0.9329  -12.0343    6.5742 C   0  0  0  0  0  0  0  0  0  0  0  0
   -1.5669  -12.9824    7.5430 C   0  0  0  0  0  0  0  0  0  0  0  0
   -1.6978  -11.3474    5.6394 C   0  0  0  0  0  0  0  0  0  0  0  0
   -1.1198  -10.4406    4.7737 C   0  0  0  0  0  0  0  0  0  0  0  0
    0.1773   -7.4070    2.4852 C   0  0  0  0  0  0  0  0  0  0  0  0
    0.8906   -7.7346    0.9377 S   0  0  0  0  0  0  0  0  0  0  0  0
    0.1340   -6.3084    0.2561 C   0  0  0  0  0  0  0  0  0  0  0  0
   -0.6559   -5.6388    1.1904 C   0  0  0  0  0  0  0  0  0  0  0  0
   -1.3889   -4.4581    0.9365 N   0  0  0  0  0  0  0  0  0  0  0  0
   -0.7253   -3.2319    0.8923 C   0  0  0  0  0  0  0  0  0  0  0  0
   -1.4269   -2.0261    0.9181 C   0  0  0  0  0  0  0  0  0  0  0  0
   -0.7759   -0.8262    0.7048 C   0  0  0  0  0  0  0  0  0  0  0  0
    0.5945   -0.7737    0.4889 C   0  0  0  0  0  0  0  0  0  0  0  0
    1.2983    0.5125    0.1758 C   0  0  0  0  0  0  0  0  0  0  0  0
    1.3062   -1.9628    0.5856 C   0  0  0  0  0  0  0  0  0  0  0  0
    0.6684   -3.1671    0.7983 C   0  0  0  0  0  0  0  0  0  0  0  0
   -2.7399   -4.6200    0.5748 C   0  0  0  0  0  0  0  0  0  0  0  0
   -3.3366   -3.8345   -0.4108 C   0  0  0  0  0  0  0  0  0  0  0  0
   -4.6564   -4.0287   -0.7666 C   0  0  0  0  0  0  0  0  0  0  0  0
   -5.4267   -5.0170   -0.1697 C   0  0  0  0  0  0  0  0  0  0  0  0
   -6.8665   -5.2112   -0.5354 C   0  0  0  0  0  0  0  0  0  0  0  0
   -4.8219   -5.8173    0.7907 C   0  0  0  0  0  0  0  0  0  0  0  0
   -3.5043   -5.6295    1.1574 C   0  0  0  0  0  0  0  0  0  0  0  0
   -0.6021   -6.2536    2.4535 C   0  0  0  0  0  0  0  0  0  0  0  0
   -1.3168   -5.8835    3.9810 S   0  0  0  0  0  0  0  0  0  0  0  0
    0.5149   -5.7754   -1.0135 C   0  0  0  0  0  0  0  0  0  0  0  0
    1.7914   -5.7322   -1.5669 C   0  0  0  0  0  0  0  0  0  0  0  0
    2.8688   -6.6766   -1.2818 C   0  0  0  0  0  0  0  0  0  0  0  0
    4.1515   -6.2313   -0.9772 C   0  0  0  0  0  0  0  0  0  0  0  0
    5.1640   -7.1488   -0.7732 C   0  0  0  0  0  0  0  0  0  0  0  0
    4.9091   -8.5058   -0.8668 C   0  0  0  0  0  0  0  0  0  0  0  0
    3.6320   -8.9684   -1.1546 C   0  0  0  0  0  0  0  0  0  0  0  0
    3.3524  -10.4373   -1.2831 C   0  0  0  0  0  0  0  0  0  0  0  0
    3.5739  -10.9040   -2.7230 C   0  0  0  0  0  0  0  0  0  0  0  0
    2.6232   -8.0440   -1.3727 C   0  0  0  0  0  0  0  0  0  0  0  0
    1.9326   -4.6233   -2.4255 C   0  0  0  0  0  0  0  0  0  0  0  0
    3.3203   -3.8555   -3.1704 S   0  0  0  0  0  0  0  0  0  0  0  0
    2.3306   -2.4878   -3.5712 C   0  0  0  0  0  0  0  0  0  0  0  0
    2.4682   -1.1651   -4.0321 C   0  0  0  0  0  0  0  0  0  0  0  0
    3.5502   -0.4477   -4.5890 C   0  0  0  0  0  0  0  0  0  0  0  0
    3.3589    0.9292   -4.9633 C   0  0  0  0  0  0  0  0  0  0  0  0
    4.4419    1.4571   -5.5103 N   0  0  0  0  0  0  0  0  0  0  0  0
    5.6028    0.3288   -5.5495 S   0  0  0  0  0  0  0  0  0  0  0  0
    4.7694   -0.8807   -4.8667 N   0  0  0  0  0  0  0  0  0  0  0  0
    2.1390    1.5674   -4.6431 C   0  0  0  0  0  0  0  0  0  0  0  0
    1.7553    2.9197   -4.6475 C   0  0  0  0  0  0  0  0  0  0  0  0
    2.4045    4.4651   -5.0831 S   0  0  0  0  0  0  0  0  0  0  0  0
    0.9985    5.2293   -4.3764 C   0  0  0  0  0  0  0  0  0  0  0  0
    0.6108    6.5777   -4.2383 C   0  0  0  0  0  0  0  0  0  0  0  0
    1.3929    7.6924   -4.7807 C   0  0  0  0  0  0  0  0  0  0  0  0
    2.7671    7.7518   -4.5708 C   0  0  0  0  0  0  0  0  0  0  0  0
    3.4960    8.8142   -5.0730 C   0  0  0  0  0  0  0  0  0  0  0  0
    2.8664    9.8193   -5.7849 C   0  0  0  0  0  0  0  0  0  0  0  0
    1.4964    9.7678   -6.0179 C   0  0  0  0  0  0  0  0  0  0  0  0
    0.8139   10.8347   -6.8256 C   0  0  0  0  0  0  0  0  0  0  0  0
    0.7970   10.4559   -8.3075 C   0  0  0  0  0  0  0  0  0  0  0  0
    0.7733    8.6950   -5.5223 C   0  0  0  0  0  0  0  0  0  0  0  0
   -0.6086    6.6878   -3.5927 C   0  0  0  0  0  0  0  0  0  0  0  0
   -1.3048    5.1290   -3.2121 S   0  0  0  0  0  0  0  0  0  0  0  0
    0.0771    4.3189   -3.8576 C   0  0  0  0  0  0  0  0  0  0  0  0
    0.5090    2.9949   -4.0196 C   0  0  0  0  0  0  0  0  0  0  0  0
    0.0894    1.7417   -3.6576 N   0  0  0  0  0  0  0  0  0  0  0  0
    1.0715    0.8474   -4.0423 C   0  0  0  0  0  0  0  0  0  0  0  0
    1.1940   -0.5534   -3.8775 C   0  0  0  0  0  0  0  0  0  0  0  0
    0.2929   -1.5000   -3.4323 N   0  0  0  0  0  0  0  0  0  0  0  0
    0.9892   -2.6585   -3.2177 C   0  0  0  0  0  0  0  0  0  0  0  0
    0.7615   -3.8817   -2.5842 C   0  0  0  0  0  0  0  0  0  0  0  0
   -0.5605   -4.5961   -1.7497 S   0  0  0  0  0  0  0  0  0  0  0  0
   -1.1435   -1.4981   -3.5857 C   0  0  0  0  0  0  0  0  0  0  0  0
   -1.6075   -2.5812   -4.5581 C   0  0  0  0  0  0  0  0  0  0  0  0
   -0.9625    1.5856   -2.6758 C   0  0  0  0  0  0  0  0  0  0  0  0
   -2.3548    1.7969   -3.2687 C   0  0  0  0  0  0  0  0  0  0  0  0
   -1.2809    7.8834   -3.1419 C   0  0  0  0  0  0  0  0  0  0  0  0
   -0.5493    9.0238   -2.8187 C   0  0  0  0  0  0  0  0  0  0  0  0
   -1.1571   10.1983   -2.4002 C   0  0  0  0  0  0  0  0  0  0  0  0
   -0.5031   11.3581   -2.2119 O   0  0  0  0  0  0  0  0  0  0  0  0
    0.9060   11.3960   -2.3395 C   0  0  0  0  0  0  0  0  0  0  0  0
    1.3490   12.8181   -2.0359 C   0  0  0  0  0  0  0  0  0  0  0  0
   -2.5622   10.2183   -2.2462 C   0  0  0  0  0  0  0  0  0  0  0  0
   -3.2983    9.0786   -2.5958 C   0  0  0  0  0  0  0  0  0  0  0  0
   -2.6897    7.9133   -3.0103 C   0  0  0  0  0  0  0  0  0  0  0  0
   -3.3333    6.7503   -3.3062 O   0  0  0  0  0  0  0  0  0  0  0  0
   -4.7437    6.6780   -3.2602 C   0  0  0  0  0  0  0  0  0  0  0  0
   -5.4016    7.3038   -4.4860 C   0  0  0  0  0  0  0  0  0  0  0  0
   -3.2806   11.3628   -1.7645 C   0  0  0  0  0  0  0  0  0  0  0  0
   -2.9163   12.2455   -0.8018 C   0  0  0  0  0  0  0  0  0  0  0  0
   -3.7397   13.4374   -0.5087 C   0  0  0  0  0  0  0  0  0  0  0  0
   -4.7731   13.7631   -1.0490 O   0  0  0  0  0  0  0  0  0  0  0  0
   -3.0315   14.1587    0.5801 C   0  0  0  0  0  0  0  0  0  0  0  0
   -3.3507   15.3543    1.1935 C   0  0  0  0  0  0  0  0  0  0  0  0
   -2.5162   15.8176    2.2048 C   0  0  0  0  0  0  0  0  0  0  0  0
   -2.8827   17.3026    2.9895 Cl  0  0  0  0  0  0  0  0  0  0  0  0
   -1.3871   15.0876    2.5910 C   0  0  0  0  0  0  0  0  0  0  0  0
   -0.3731   15.6831    3.8451 Cl  0  0  0  0  0  0  0  0  0  0  0  0
   -1.0741   13.8815    1.9734 C   0  0  0  0  0  0  0  0  0  0  0  0
   -1.9015   13.4292    0.9646 C   0  0  0  0  0  0  0  0  0  0  0  0
   -1.8015   12.1782    0.1603 C   0  0  0  0  0  0  0  0  0  0  0  0
   -1.0148   11.2784    0.3480 O   0  0  0  0  0  0  0  0  0  0  0  0
    0.0028   -8.4521    6.3741 H   0  0  0  0  0  0  0  0  0  0  0  0
   -1.7550   -7.3242   11.2800 H   0  0  0  0  0  0  0  0  0  0  0  0
   -3.8175   -3.8674    8.3491 H   0  0  0  0  0  0  0  0  0  0  0  0
    2.7897   -7.5194    3.4321 H   0  0  0  0  0  0  0  0  0  0  0  0
    4.9787   -8.0802    2.4908 H   0  0  0  0  0  0  0  0  0  0  0  0
    5.9151  -11.2433    1.0289 H   0  0  0  0  0  0  0  0  0  0  0  0
    6.5170   -9.6658    1.5722 H   0  0  0  0  0  0  0  0  0  0  0  0
    6.4859  -11.0387    2.6780 H   0  0  0  0  0  0  0  0  0  0  0  0
    3.8250  -12.1779    2.2262 H   0  0  0  0  0  0  0  0  0  0  0  0
    1.6134  -11.6165    3.1248 H   0  0  0  0  0  0  0  0  0  0  0  0
    2.0895  -10.7020    5.8047 H   0  0  0  0  0  0  0  0  0  0  0  0
    1.0482  -12.3244    7.3282 H   0  0  0  0  0  0  0  0  0  0  0  0
   -1.7230  -12.4779    8.4969 H   0  0  0  0  0  0  0  0  0  0  0  0
   -0.9258  -13.8430    7.7212 H   0  0  0  0  0  0  0  0  0  0  0  0
   -2.5317  -13.3272    7.1789 H   0  0  0  0  0  0  0  0  0  0  0  0
   -2.7621  -11.5249    5.5861 H   0  0  0  0  0  0  0  0  0  0  0  0
   -1.7250   -9.9116    4.0522 H   0  0  0  0  0  0  0  0  0  0  0  0
   -2.4892   -2.0292    1.1065 H   0  0  0  0  0  0  0  0  0  0  0  0
   -1.3522    0.0890    0.7059 H   0  0  0  0  0  0  0  0  0  0  0  0
    2.1427    0.6599    0.8471 H   0  0  0  0  0  0  0  0  0  0  0  0
    0.6247    1.3603    0.2751 H   0  0  0  0  0  0  0  0  0  0  0  0
    1.6877    0.4945   -0.8437 H   0  0  0  0  0  0  0  0  0  0  0  0
    2.3814   -1.9494    0.4774 H   0  0  0  0  0  0  0  0  0  0  0  0
    1.2627   -4.0647    0.8730 H   0  0  0  0  0  0  0  0  0  0  0  0
   -2.7614   -3.0749   -0.9163 H   0  0  0  0  0  0  0  0  0  0  0  0
   -5.0913   -3.4022   -1.5328 H   0  0  0  0  0  0  0  0  0  0  0  0
   -7.0967   -4.7266   -1.4812 H   0  0  0  0  0  0  0  0  0  0  0  0
   -7.5090   -4.7810    0.2337 H   0  0  0  0  0  0  0  0  0  0  0  0
   -7.1054   -6.2699   -0.6141 H   0  0  0  0  0  0  0  0  0  0  0  0
   -5.3934   -6.6016    1.2660 H   0  0  0  0  0  0  0  0  0  0  0  0
   -3.0742   -6.2687    1.9106 H   0  0  0  0  0  0  0  0  0  0  0  0
    4.3479   -5.1733   -0.8952 H   0  0  0  0  0  0  0  0  0  0  0  0
    6.1608   -6.8018   -0.5431 H   0  0  0  0  0  0  0  0  0  0  0  0
    5.7097   -9.2148   -0.7215 H   0  0  0  0  0  0  0  0  0  0  0  0
    4.0098  -10.9960   -0.6156 H   0  0  0  0  0  0  0  0  0  0  0  0
    2.3210  -10.6396   -0.9884 H   0  0  0  0  0  0  0  0  0  0  0  0
    4.6012  -10.7168   -3.0277 H   0  0  0  0  0  0  0  0  0  0  0  0
    2.9144  -10.3666   -3.4006 H   0  0  0  0  0  0  0  0  0  0  0  0
    3.3726  -11.9688   -2.8140 H   0  0  0  0  0  0  0  0  0  0  0  0
    1.6337   -8.3863   -1.6423 H   0  0  0  0  0  0  0  0  0  0  0  0
    3.2566    6.9775   -4.0001 H   0  0  0  0  0  0  0  0  0  0  0  0
    4.5614    8.8605   -4.9023 H   0  0  0  0  0  0  0  0  0  0  0  0
    3.4404   10.6524   -6.1647 H   0  0  0  0  0  0  0  0  0  0  0  0
   -0.2121   10.9642   -6.4738 H   0  0  0  0  0  0  0  0  0  0  0  0
    1.3397   11.7841   -6.7030 H   0  0  0  0  0  0  0  0  0  0  0  0
    0.2650    9.5182   -8.4514 H   0  0  0  0  0  0  0  0  0  0  0  0
    1.8123   10.3327   -8.6777 H   0  0  0  0  0  0  0  0  0  0  0  0
    0.3045   11.2292   -8.8925 H   0  0  0  0  0  0  0  0  0  0  0  0
   -0.2910    8.6380   -5.7016 H   0  0  0  0  0  0  0  0  0  0  0  0
   -1.6146   -1.6535   -2.6083 H   0  0  0  0  0  0  0  0  0  0  0  0
   -1.4368   -0.5317   -3.9857 H   0  0  0  0  0  0  0  0  0  0  0  0
   -1.4174   -3.5745   -4.1626 H   0  0  0  0  0  0  0  0  0  0  0  0
   -2.6764   -2.4802   -4.7261 H   0  0  0  0  0  0  0  0  0  0  0  0
   -1.0922   -2.4780   -5.5108 H   0  0  0  0  0  0  0  0  0  0  0  0
   -0.8040    2.3454   -1.9018 H   0  0  0  0  0  0  0  0  0  0  0  0
   -0.8680    0.6075   -2.2049 H   0  0  0  0  0  0  0  0  0  0  0  0
   -2.5339    1.1536   -4.1269 H   0  0  0  0  0  0  0  0  0  0  0  0
   -3.1056    1.5856   -2.5125 H   0  0  0  0  0  0  0  0  0  0  0  0
   -2.4709    2.8276   -3.5918 H   0  0  0  0  0  0  0  0  0  0  0  0
    0.5232    8.9719   -2.8897 H   0  0  0  0  0  0  0  0  0  0  0  0
    1.3629   10.6986   -1.6267 H   0  0  0  0  0  0  0  0  0  0  0  0
    1.2010   11.1091   -3.3591 H   0  0  0  0  0  0  0  0  0  0  0  0
    2.4278   12.8969   -2.1336 H   0  0  0  0  0  0  0  0  0  0  0  0
    1.0602   13.0831   -1.0225 H   0  0  0  0  0  0  0  0  0  0  0  0
    0.8748   13.5118   -2.7248 H   0  0  0  0  0  0  0  0  0  0  0  0
   -4.3692    9.1290   -2.4772 H   0  0  0  0  0  0  0  0  0  0  0  0
   -4.9545    5.6051   -3.2330 H   0  0  0  0  0  0  0  0  0  0  0  0
   -5.1234    7.1275   -2.3350 H   0  0  0  0  0  0  0  0  0  0  0  0
   -5.0319    6.8219   -5.3877 H   0  0  0  0  0  0  0  0  0  0  0  0
   -6.4783    7.1706   -4.4309 H   0  0  0  0  0  0  0  0  0  0  0  0
   -5.1803    8.3662   -4.5495 H   0  0  0  0  0  0  0  0  0  0  0  0
   -4.2615   11.5317   -2.2017 H   0  0  0  0  0  0  0  0  0  0  0  0
   -4.2246   15.9138    0.8990 H   0  0  0  0  0  0  0  0  0  0  0  0
   -0.2067   13.3160    2.2761 H   0  0  0  0  0  0  0  0  0  0  0  0
  1  2  2  0  0  0  0
  2  3  1  0  0  0  0
  3  4  2  0  0  0  0
  3  5  1  0  0  0  0
  5  6  2  0  0  0  0
  6  7  1  0  0  0  0
  7  8  1  0  0  0  0
  7  9  2  0  0  0  0
  9 10  1  0  0  0  0
  9 11  1  0  0  0  0
 11 12  2  0  0  0  0
 12 13  1  0  0  0  0
 13 14  2  0  0  0  0
  1 15  1  0  0  0  0
 15 16  2  0  0  0  0
 16 17  1  0  0  0  0
 17 18  1  0  0  0  0
 18 19  2  0  0  0  0
 19 20  1  0  0  0  0
 20 21  2  0  0  0  0
 21 22  1  0  0  0  0
 21 23  1  0  0  0  0
 23 24  2  0  0  0  0
 17 25  1  0  0  0  0
 25 26  2  0  0  0  0
 26 27  1  0  0  0  0
 27 28  2  0  0  0  0
 28 29  1  0  0  0  0
 28 30  1  0  0  0  0
 30 31  2  0  0  0  0
 16 32  1  0  0  0  0
 32 33  1  0  0  0  0
 33 34  1  0  0  0  0
 34 35  2  0  0  0  0
 35 36  1  0  0  0  0
 36 37  1  0  0  0  0
 37 38  2  0  0  0  0
 38 39  1  0  0  0  0
 39 40  2  0  0  0  0
 40 41  1  0  0  0  0
 40 42  1  0  0  0  0
 42 43  2  0  0  0  0
 36 44  1  0  0  0  0
 44 45  2  0  0  0  0
 45 46  1  0  0  0  0
 46 47  2  0  0  0  0
 47 48  1  0  0  0  0
 47 49  1  0  0  0  0
 49 50  2  0  0  0  0
 35 51  1  0  0  0  0
 51 52  1  0  0  0  0
 34 53  1  0  0  0  0
 53 54  2  0  0  0  0
 54 55  1  0  0  0  0
 55 56  2  0  0  0  0
 56 57  1  0  0  0  0
 57 58  2  0  0  0  0
 58 59  1  0  0  0  0
 59 60  1  0  0  0  0
 60 61  1  0  0  0  0
 59 62  2  0  0  0  0
 54 63  1  0  0  0  0
 63 64  1  0  0  0  0
 64 65  1  0  0  0  0
 65 66  1  0  0  0  0
 66 67  1  0  0  0  0
 67 68  1  0  0  0  0
 68 69  2  0  0  0  0
 69 70  1  0  0  0  0
 70 71  1  0  0  0  0
 68 72  1  0  0  0  0
 72 73  1  0  0  0  0
 73 74  1  0  0  0  0
 74 75  1  0  0  0  0
 75 76  1  0  0  0  0
 76 77  1  0  0  0  0
 77 78  2  0  0  0  0
 78 79  1  0  0  0  0
 79 80  2  0  0  0  0
 80 81  1  0  0  0  0
 81 82  1  0  0  0  0
 82 83  1  0  0  0  0
 81 84  2  0  0  0  0
 76 85  2  0  0  0  0
 85 86  1  0  0  0  0
 86 87  1  0  0  0  0
 87 88  1  0  0  0  0
 88 89  1  0  0  0  0
 89 90  1  0  0  0  0
 90 91  1  0  0  0  0
 91 92  1  0  0  0  0
 92 93  1  0  0  0  0
 93 94  1  0  0  0  0
 94 95  1  0  0  0  0
 92 96  1  0  0  0  0
 96 97  1  0  0  0  0
 89 98  1  0  0  0  0
 98 99  1  0  0  0  0
 85100  1  0  0  0  0
100101  2  0  0  0  0
101102  1  0  0  0  0
102103  1  0  0  0  0
103104  1  0  0  0  0
104105  1  0  0  0  0
102106  2  0  0  0  0
106107  1  0  0  0  0
107108  2  0  0  0  0
108109  1  0  0  0  0
109110  1  0  0  0  0
110111  1  0  0  0  0
106112  1  0  0  0  0
112113  2  0  0  0  0
113114  1  0  0  0  0
114115  2  0  0  0  0
114116  1  0  0  0  0
116117  2  0  0  0  0
117118  1  0  0  0  0
118119  1  0  0  0  0
118120  2  0  0  0  0
120121  1  0  0  0  0
120122  1  0  0  0  0
122123  2  0  0  0  0
123124  1  0  0  0  0
124125  2  0  0  0  0
 13  2  1  0  0  0  0
 52 15  1  0  0  0  0
 95 53  1  0  0  0  0
108100  1  0  0  0  0
124113  1  0  0  0  0
 12  5  1  0  0  0  0
 24 18  1  0  0  0  0
 31 25  1  0  0  0  0
 51 32  2  0  0  0  0
 62 55  1  0  0  0  0
 94 63  2  0  0  0  0
123116  1  0  0  0  0
 43 37  1  0  0  0  0
 50 44  1  0  0  0  0
 93 65  2  0  0  0  0
 91 66  2  0  0  0  0
 71 67  2  0  0  0  0
 90 72  2  0  0  0  0
 88 73  2  0  0  0  0
 87 75  2  0  0  0  0
 84 77  1  0  0  0  0
  1126  1  0  0  0  0
  6127  1  0  0  0  0
 11128  1  0  0  0  0
 19129  1  0  0  0  0
 20130  1  0  0  0  0
 22131  1  0  0  0  0
 22132  1  0  0  0  0
 22133  1  0  0  0  0
 23134  1  0  0  0  0
 24135  1  0  0  0  0
 26136  1  0  0  0  0
 27137  1  0  0  0  0
 29138  1  0  0  0  0
 29139  1  0  0  0  0
 29140  1  0  0  0  0
 30141  1  0  0  0  0
 31142  1  0  0  0  0
 38143  1  0  0  0  0
 39144  1  0  0  0  0
 41145  1  0  0  0  0
 41146  1  0  0  0  0
 41147  1  0  0  0  0
 42148  1  0  0  0  0
 43149  1  0  0  0  0
 45150  1  0  0  0  0
 46151  1  0  0  0  0
 48152  1  0  0  0  0
 48153  1  0  0  0  0
 48154  1  0  0  0  0
 49155  1  0  0  0  0
 50156  1  0  0  0  0
 56157  1  0  0  0  0
 57158  1  0  0  0  0
 58159  1  0  0  0  0
 60160  1  0  0  0  0
 60161  1  0  0  0  0
 61162  1  0  0  0  0
 61163  1  0  0  0  0
 61164  1  0  0  0  0
 62165  1  0  0  0  0
 78166  1  0  0  0  0
 79167  1  0  0  0  0
 80168  1  0  0  0  0
 82169  1  0  0  0  0
 82170  1  0  0  0  0
 83171  1  0  0  0  0
 83172  1  0  0  0  0
 83173  1  0  0  0  0
 84174  1  0  0  0  0
 96175  1  0  0  0  0
 96176  1  0  0  0  0
 97177  1  0  0  0  0
 97178  1  0  0  0  0
 97179  1  0  0  0  0
 98180  1  0  0  0  0
 98181  1  0  0  0  0
 99182  1  0  0  0  0
 99183  1  0  0  0  0
 99184  1  0  0  0  0
101185  1  0  0  0  0
104186  1  0  0  0  0
104187  1  0  0  0  0
105188  1  0  0  0  0
105189  1  0  0  0  0
105190  1  0  0  0  0
107191  1  0  0  0  0
110192  1  0  0  0  0
110193  1  0  0  0  0
111194  1  0  0  0  0
111195  1  0  0  0  0
111196  1  0  0  0  0
112197  1  0  0  0  0
117198  1  0  0  0  0
122199  1  0  0  0  0
M  END
