195

C         -0.07320       -9.67370        5.34270
C          0.00140       -9.57660        6.71260
C          0.37580      -10.74530        7.51540
O          0.61750      -11.86740        7.12010
C          0.41970      -10.26590        8.92590
C          0.71610      -10.95300       10.08460
C          0.68350      -10.25570       11.28900
Cl         1.04670      -11.08300       12.75280
C          0.36010       -8.89750       11.32080
Cl         0.32490       -8.06050       12.82320
C          0.06420       -8.20840       10.14840
C          0.09790       -8.90490        8.95830
C         -0.17280       -8.42060        7.57520
O         -0.46630       -7.27750        7.27160
C         -0.37880       -8.71020        4.38580
C         -0.34300       -8.92070        2.98390
N          0.19720      -10.01730        2.37040
C          1.29330      -10.71300        2.92830
C          2.35740      -10.02550        3.50280
C          3.40680      -10.72550        4.06390
C          3.43000      -12.11480        4.05310
C          4.54410      -12.87610        4.70010
C          2.37850      -12.79000        3.44370
C          1.31980      -12.10320        2.88460
C         -0.20210      -10.36560        1.06700
C          0.74980      -10.71710        0.11280
C          0.35500      -11.05570       -1.16440
C         -0.98820      -11.05060       -1.52700
C         -1.39520      -11.39540       -2.92560
C         -1.92950      -10.71140       -0.56580
C         -1.54930      -10.37720        0.71990
C         -0.87020       -7.81050        2.30060
S         -1.14680       -7.43650        0.62860
C         -1.67570       -5.81560        1.06570
C         -1.67910       -5.60480        2.43760
N         -2.09760       -4.44740        3.06960
C         -1.46560       -4.07280        4.26810
C         -0.08250       -4.17650        4.38980
C          0.53190       -3.86870        5.58600
C         -0.20770       -3.44070        6.68180
C          0.46860       -3.16180        7.98800
C         -1.58260       -3.30730        6.53970
C         -2.21140       -3.62030        5.35090
C         -3.18540       -3.71450        2.58370
C         -3.18690       -2.32350        2.65430
C         -4.23140       -1.60260        2.10930
C         -5.29390       -2.23810        1.47980
C         -6.40350       -1.45820        0.84340
C         -5.30220       -3.62850        1.44460
C         -4.27100       -4.35930        1.99600
C         -1.22010       -6.75170        3.13200
S         -0.94570       -7.08780        4.80060
C         -1.93660       -4.88140        0.01980
C         -2.45030       -5.14080       -1.23530
C         -3.06920       -6.40910       -1.63150
C         -2.70820       -7.04260       -2.81570
C         -3.33790       -8.21620       -3.18350
C         -4.33650       -8.75640       -2.39100
C         -4.72230       -8.12680       -1.21510
C         -5.82190       -8.67390       -0.34760
C         -5.27270       -9.30730        0.93140
C         -4.07390       -6.95910       -0.84480
C         -2.39490       -4.00060       -2.06060
S         -2.90310       -3.70220       -3.70580
C         -2.37140       -2.06010       -3.54680
C         -2.25100       -0.89580       -4.32330
C         -2.50250       -0.66730       -5.69340
C         -2.13840        0.59810       -6.26350
N         -2.37430        0.65430       -7.56500
S         -3.00600       -0.76220       -8.03200
N         -3.00030       -1.50250       -6.59180
C         -1.63850        1.60980       -5.41610
C         -1.28700        2.94380       -5.68050
S         -1.15450        4.02850       -7.02400
C         -0.66390        5.29520       -5.92310
C         -0.26880        6.63630       -6.11910
C         -0.13270        7.24860       -7.44290
C         -1.12930        7.08840       -8.40070
C         -0.98470        7.66930       -9.64680
C          0.14520        8.40980       -9.94710
C          1.15840        8.56360       -9.00860
C          2.37200        9.39840       -9.30120
C          2.22600       10.78610       -8.67310
C          1.01180        7.97200       -7.76400
C          0.05730        7.24470       -4.92370
S         -0.09160        6.15420       -3.55520
C         -0.61570        4.87840       -4.59270
C         -0.96770        3.52910       -4.45490
N         -1.07980        2.60840       -3.44780
C         -1.47720        1.40760       -4.01630
C         -1.68490        0.10640       -3.48500
N         -1.44730       -0.45530       -2.23980
C         -1.84920       -1.76220       -2.28760
C         -1.85540       -2.87580       -1.43710
S         -1.37400       -3.22200        0.18430
C         -0.58180       -0.02060       -1.16720
C          0.85330        0.17560       -1.64950
C         -1.16060        3.06280       -2.07760
C         -2.57020        2.89990       -1.51430
C          0.44730        8.61170       -4.66130
C          1.30340        8.89310       -3.58400
C          1.67480       10.19430       -3.35060
C          2.57000       10.73900       -2.29270
O          3.14440       10.12520       -1.42770
C          2.59060       12.20660       -2.54990
C          1.77700       12.49190       -3.66750
C          1.20850       11.24840       -4.16090
C          0.34290       10.97950       -5.20670
C         -0.03450        9.66780       -5.44370
C          1.64130       13.79920       -4.10310
C          2.31470       14.79510       -3.41950
C          3.12580       14.52630       -2.30190
C          3.25920       13.19290       -1.86670
C          3.76990       15.64940       -1.68360
C          4.58370       15.79610       -0.60580
C          5.14210       14.86370        0.39520
O          4.99850       13.66640        0.49810
C          5.95810       15.70390        1.31240
C          6.68890       15.31050        2.41680
C          7.38010       16.28510        3.12730
Cl         8.29990       15.83380        4.50610
C          7.33450       17.62790        2.73160
Cl         8.19920       18.81040        3.62880
C          6.59700       18.01760        1.61950
C          5.91220       17.04420        0.91760
C          5.05920       17.16980       -0.28660
O          4.79620       18.18130       -0.89570
H          0.13900      -10.67020        4.96900
H          0.96530      -12.00210       10.06150
H         -0.18710       -7.15980       10.17250
H          2.35040       -8.94550        3.51860
H          4.22300      -10.18130        4.51620
H          5.39790      -12.23180        4.89400
H          4.86150      -13.70660        4.07270
H          4.20160      -13.28630        5.65020
H          2.38280      -13.86960        3.42000
H          0.50070      -12.63570        2.42410
H          1.79650      -10.71450        0.37850
H          1.10250      -11.32070       -1.89790
H         -2.47180      -11.52390       -2.99670
H         -0.90700      -12.31120       -3.25420
H         -1.09860      -10.59670       -3.60500
H         -2.97630      -10.70660       -0.82850
H         -2.29210      -10.13210        1.46430
H          0.50250       -4.50530        3.54270
H          1.60430       -3.96640        5.67350
H          1.38420       -2.59240        7.83830
H          0.73470       -4.10460        8.46600
H         -0.18540       -2.60990        8.65830
H         -2.17580       -2.97160        7.37790
H         -3.28410       -3.53170        5.25930
H         -2.35690       -1.81670        3.12350
H         -4.21180       -0.52330        2.16250
H         -6.33430       -1.52620       -0.24280
H         -6.35470       -0.40930        1.12520
H         -7.37250       -1.85620        1.13920
H         -6.13240       -4.14280        0.98150
H         -4.29810       -5.43910        1.98760
H         -1.93640       -6.61590       -3.43820
H         -3.05810       -8.70790       -4.10340
H         -4.83470       -9.66510       -2.69930
H         -6.39660       -9.41840       -0.90190
H         -6.49870       -7.85970       -0.07600
H         -4.67470      -10.18420        0.69650
H         -6.08820       -9.61310        1.58320
H         -4.64640       -8.59900        1.46970
H         -4.37500       -6.44370        0.05470
H         -2.01730        6.52260       -8.16260
H         -1.76090        7.54640      -10.38750
H          0.24620        8.86660      -10.92110
H          2.50280        9.50070      -10.37990
H          3.26090        8.91290       -8.89310
H          2.11240       10.70430       -7.59380
H          1.34870       11.29020       -9.07300
H          3.10240       11.39400       -8.88520
H          1.80020        8.06950       -7.03100
H         -0.60340       -0.81150       -0.41320
H         -0.97530        0.87980       -0.69510
H          0.90280        0.90680       -2.45290
H          1.24860       -0.76580       -2.02380
H          1.47910        0.51140       -0.82710
H         -0.41900        2.55800       -1.45760
H         -0.89870        4.12370       -2.08710
H         -2.89350        1.86230       -1.55440
H         -2.59780        3.23880       -0.48210
H         -3.27190        3.49560       -2.09360
H          1.67600        8.09800       -2.95480
H         -0.04470       11.77310       -5.82760
H         -0.72430        9.45280       -6.24510
H          1.02540       14.04070       -4.95640
H          2.21460       15.81850       -3.75220
H          3.87090       12.94460       -1.01420
H          3.56840       16.59790       -2.18000
H          6.72220       14.27550        2.71930
H          6.56130       19.05150        1.31430
