
  xtb     02032215023D
 energy: -266.951134136658 gnorm: 0.000757255083 xtb: 6.4.1 (unknown)
150166  0     0  0            999 V2000
   -0.4261   -0.2405    5.3302 C   0  0  0  0  0  0  0  0  0  0  0  0
   -0.0422    0.9885    4.8811 C   0  0  0  0  0  0  0  0  0  0  0  0
    0.8520    1.2418    3.7399 C   0  0  0  0  0  0  0  0  0  0  0  0
    1.6512    0.4944    3.2176 O   0  0  0  0  0  0  0  0  0  0  0  0
    0.5238    2.6205    3.2900 C   0  0  0  0  0  0  0  0  0  0  0  0
    0.9207    3.2674    2.1368 C   0  0  0  0  0  0  0  0  0  0  0  0
    0.4203    4.5421    1.8988 C   0  0  0  0  0  0  0  0  0  0  0  0
    0.8442    5.3495    0.4426 Cl  0  0  0  0  0  0  0  0  0  0  0  0
   -0.4375    5.1563    2.8147 C   0  0  0  0  0  0  0  0  0  0  0  0
   -1.0571    6.7267    2.4834 Cl  0  0  0  0  0  0  0  0  0  0  0  0
   -0.8283    4.5001    3.9785 C   0  0  0  0  0  0  0  0  0  0  0  0
   -0.3552    3.2214    4.1973 C   0  0  0  0  0  0  0  0  0  0  0  0
   -0.7121    2.2417    5.2613 C   0  0  0  0  0  0  0  0  0  0  0  0
   -1.4050    2.4442    6.2337 O   0  0  0  0  0  0  0  0  0  0  0  0
    0.1774   -1.4574    4.9130 C   0  0  0  0  0  0  0  0  0  0  0  0
    1.5265   -1.7721    4.7539 C   0  0  0  0  0  0  0  0  0  0  0  0
    2.6236   -1.0203    5.3023 C   0  0  0  0  0  0  0  0  0  0  0  0
    3.9309   -1.0430    4.8964 C   0  0  0  0  0  0  0  0  0  0  0  0
    4.7655   -0.1939    5.6460 C   0  0  0  0  0  0  0  0  0  0  0  0
    4.1107    0.4739    6.6360 C   0  0  0  0  0  0  0  0  0  0  0  0
    4.6344    1.4437    7.6421 C   0  0  0  0  0  0  0  0  0  0  0  0
    6.0266    1.9652    7.3052 C   0  0  0  0  0  0  0  0  0  0  0  0
    2.4245    0.0631    6.6494 S   0  0  0  0  0  0  0  0  0  0  0  0
    1.7086   -2.9466    4.0040 C   0  0  0  0  0  0  0  0  0  0  0  0
    0.5369   -3.5127    3.5521 C   0  0  0  0  0  0  0  0  0  0  0  0
   -0.8433   -2.6915    4.2135 S   0  0  0  0  0  0  0  0  0  0  0  0
    0.3860   -4.3675    2.4067 C   0  0  0  0  0  0  0  0  0  0  0  0
    1.4590   -4.7370    1.6150 C   0  0  0  0  0  0  0  0  0  0  0  0
    1.3247   -4.9573    0.2323 C   0  0  0  0  0  0  0  0  0  0  0  0
    0.0806   -4.8389   -0.4344 C   0  0  0  0  0  0  0  0  0  0  0  0
   -1.0491   -4.8115    0.4262 C   0  0  0  0  0  0  0  0  0  0  0  0
   -0.8934   -4.5607    1.8198 C   0  0  0  0  0  0  0  0  0  0  0  0
   -2.1155   -4.4442    2.3444 N   0  0  0  0  0  0  0  0  0  0  0  0
   -2.9218   -4.6271    1.3334 N   0  0  0  0  0  0  0  0  0  0  0  0
   -4.3459   -4.6525    1.5033 C   0  0  0  0  0  0  0  0  0  0  0  0
   -4.7995   -6.0241    1.9937 C   0  0  0  0  0  0  0  0  0  0  0  0
   -2.3607   -4.8346    0.1717 N   0  0  0  0  0  0  0  0  0  0  0  0
   -0.0084   -4.4169   -1.7766 C   0  0  0  0  0  0  0  0  0  0  0  0
    1.1152   -4.0720   -2.5025 C   0  0  0  0  0  0  0  0  0  0  0  0
    2.3579   -4.4924   -1.9594 C   0  0  0  0  0  0  0  0  0  0  0  0
    3.5934   -4.4510   -2.4662 N   0  0  0  0  0  0  0  0  0  0  0  0
    4.3557   -4.8726   -1.4945 N   0  0  0  0  0  0  0  0  0  0  0  0
    5.7690   -5.0473   -1.6670 C   0  0  0  0  0  0  0  0  0  0  0  0
    6.0704   -6.4304   -2.2362 C   0  0  0  0  0  0  0  0  0  0  0  0
    3.7566   -5.1751   -0.3717 N   0  0  0  0  0  0  0  0  0  0  0  0
    2.4622   -4.9597   -0.6187 C   0  0  0  0  0  0  0  0  0  0  0  0
    1.0621   -2.9464   -3.4103 C   0  0  0  0  0  0  0  0  0  0  0  0
    0.0622   -2.4712   -4.2029 C   0  0  0  0  0  0  0  0  0  0  0  0
    0.1147   -1.0642   -4.4055 C   0  0  0  0  0  0  0  0  0  0  0  0
   -0.8622   -0.2409   -5.0097 C   0  0  0  0  0  0  0  0  0  0  0  0
   -1.8818   -0.8254   -5.8541 C   0  0  0  0  0  0  0  0  0  0  0  0
   -1.7152   -1.8649   -6.7180 C   0  0  0  0  0  0  0  0  0  0  0  0
   -2.9007   -2.2223   -7.4146 C   0  0  0  0  0  0  0  0  0  0  0  0
   -3.0977   -3.2271   -8.3642 C   0  0  0  0  0  0  0  0  0  0  0  0
   -4.3455   -3.4180   -8.9216 C   0  0  0  0  0  0  0  0  0  0  0  0
   -4.5618   -4.4658   -9.9765 C   0  0  0  0  0  0  0  0  0  0  0  0
   -4.4121   -3.8578  -11.3724 C   0  0  0  0  0  0  0  0  0  0  0  0
   -5.4097   -2.5944   -8.5334 C   0  0  0  0  0  0  0  0  0  0  0  0
   -5.2463   -1.5938   -7.5997 C   0  0  0  0  0  0  0  0  0  0  0  0
   -3.9899   -1.4116   -7.0439 C   0  0  0  0  0  0  0  0  0  0  0  0
   -3.5303   -0.2252   -5.8573 S   0  0  0  0  0  0  0  0  0  0  0  0
   -0.8151    1.1121   -4.6820 C   0  0  0  0  0  0  0  0  0  0  0  0
    0.2081    1.6673   -3.8716 C   0  0  0  0  0  0  0  0  0  0  0  0
    1.2699    0.8716   -3.4032 C   0  0  0  0  0  0  0  0  0  0  0  0
    2.2331    1.4103   -2.4575 C   0  0  0  0  0  0  0  0  0  0  0  0
    3.1244    2.8824   -2.7943 S   0  0  0  0  0  0  0  0  0  0  0  0
    3.7937    2.8770   -1.1870 C   0  0  0  0  0  0  0  0  0  0  0  0
    4.6341    3.8242   -0.6233 C   0  0  0  0  0  0  0  0  0  0  0  0
    5.0140    3.6603    0.6922 C   0  0  0  0  0  0  0  0  0  0  0  0
    4.5768    2.5696    1.4542 C   0  0  0  0  0  0  0  0  0  0  0  0
    5.0363    2.4179    2.8767 C   0  0  0  0  0  0  0  0  0  0  0  0
    6.4348    1.8001    2.9206 C   0  0  0  0  0  0  0  0  0  0  0  0
    3.7532    1.6218    0.8804 C   0  0  0  0  0  0  0  0  0  0  0  0
    3.3462    1.7657   -0.4483 C   0  0  0  0  0  0  0  0  0  0  0  0
    2.4668    0.9431   -1.2042 C   0  0  0  0  0  0  0  0  0  0  0  0
    1.1867   -0.4811   -3.6838 C   0  0  0  0  0  0  0  0  0  0  0  0
    2.2292   -1.6944   -2.9994 S   0  0  0  0  0  0  0  0  0  0  0  0
   -0.1106    2.9630   -3.4181 C   0  0  0  0  0  0  0  0  0  0  0  0
   -1.3270    3.4136   -3.8543 C   0  0  0  0  0  0  0  0  0  0  0  0
   -2.0566    2.2957   -5.0068 S   0  0  0  0  0  0  0  0  0  0  0  0
   -2.0761    4.4849   -3.3066 C   0  0  0  0  0  0  0  0  0  0  0  0
   -2.0959    4.7270   -1.9608 C   0  0  0  0  0  0  0  0  0  0  0  0
   -1.6670    3.7327   -0.9414 C   0  0  0  0  0  0  0  0  0  0  0  0
   -0.8685    2.8269   -1.0297 O   0  0  0  0  0  0  0  0  0  0  0  0
   -2.4920    4.0362    0.2456 C   0  0  0  0  0  0  0  0  0  0  0  0
   -2.6275    3.2899    1.3933 C   0  0  0  0  0  0  0  0  0  0  0  0
   -3.4670    3.7714    2.3980 C   0  0  0  0  0  0  0  0  0  0  0  0
   -3.6183    2.9364    3.6206 C   0  0  0  0  0  0  0  0  0  0  0  0
   -3.1139    1.8448    3.7423 O   0  0  0  0  0  0  0  0  0  0  0  0
   -4.3685    3.5181    4.5534 O   0  0  0  0  0  0  0  0  0  0  0  0
   -4.5417    2.7872    5.7644 C   0  0  0  0  0  0  0  0  0  0  0  0
   -4.1345    4.9841    2.2311 C   0  0  0  0  0  0  0  0  0  0  0  0
   -4.0033    5.7284    1.0667 C   0  0  0  0  0  0  0  0  0  0  0  0
   -3.1829    5.2461    0.0575 C   0  0  0  0  0  0  0  0  0  0  0  0
   -2.8881    5.7380   -1.2857 C   0  0  0  0  0  0  0  0  0  0  0  0
   -3.2406    6.9526   -1.8062 C   0  0  0  0  0  0  0  0  0  0  0  0
   -2.8665    7.3788   -3.0992 C   0  0  0  0  0  0  0  0  0  0  0  0
   -2.5815    7.7777   -4.1365 N   0  0  0  0  0  0  0  0  0  0  0  0
   -3.9774    7.9265   -1.1017 C   0  0  0  0  0  0  0  0  0  0  0  0
   -4.5791    8.7473   -0.5713 N   0  0  0  0  0  0  0  0  0  0  0  0
   -1.3327   -0.2935    5.9228 H   0  0  0  0  0  0  0  0  0  0  0  0
    1.5832    2.7929    1.4296 H   0  0  0  0  0  0  0  0  0  0  0  0
   -1.5003    4.9764    4.6754 H   0  0  0  0  0  0  0  0  0  0  0  0
    4.2799   -1.6255    4.0638 H   0  0  0  0  0  0  0  0  0  0  0  0
    5.8169   -0.0909    5.4510 H   0  0  0  0  0  0  0  0  0  0  0  0
    4.6550    0.9597    8.6244 H   0  0  0  0  0  0  0  0  0  0  0  0
    3.9367    2.2825    7.7163 H   0  0  0  0  0  0  0  0  0  0  0  0
    6.3333    2.7030    8.0424 H   0  0  0  0  0  0  0  0  0  0  0  0
    6.0288    2.4353    6.3248 H   0  0  0  0  0  0  0  0  0  0  0  0
    6.7534    1.1569    7.3089 H   0  0  0  0  0  0  0  0  0  0  0  0
    2.6801   -3.3312    3.7554 H   0  0  0  0  0  0  0  0  0  0  0  0
    2.4649   -4.6983    2.0013 H   0  0  0  0  0  0  0  0  0  0  0  0
   -4.6068   -3.8832    2.2331 H   0  0  0  0  0  0  0  0  0  0  0  0
   -4.7918   -4.4204    0.5347 H   0  0  0  0  0  0  0  0  0  0  0  0
   -5.8770   -6.0303    2.1296 H   0  0  0  0  0  0  0  0  0  0  0  0
   -4.5330   -6.7904    1.2696 H   0  0  0  0  0  0  0  0  0  0  0  0
   -4.3236   -6.2554    2.9434 H   0  0  0  0  0  0  0  0  0  0  0  0
   -0.9893   -4.1609   -2.1476 H   0  0  0  0  0  0  0  0  0  0  0  0
    6.1157   -4.2692   -2.3497 H   0  0  0  0  0  0  0  0  0  0  0  0
    6.2355   -4.9252   -0.6878 H   0  0  0  0  0  0  0  0  0  0  0  0
    5.7084   -7.2017   -1.5606 H   0  0  0  0  0  0  0  0  0  0  0  0
    5.5846   -6.5509   -3.2014 H   0  0  0  0  0  0  0  0  0  0  0  0
    7.1421   -6.5516   -2.3650 H   0  0  0  0  0  0  0  0  0  0  0  0
   -0.7446   -3.0862   -4.5592 H   0  0  0  0  0  0  0  0  0  0  0  0
   -0.7664   -2.3432   -6.8866 H   0  0  0  0  0  0  0  0  0  0  0  0
   -2.2661   -3.8536   -8.6531 H   0  0  0  0  0  0  0  0  0  0  0  0
   -3.8346   -5.2708   -9.8542 H   0  0  0  0  0  0  0  0  0  0  0  0
   -5.5623   -4.8913   -9.8751 H   0  0  0  0  0  0  0  0  0  0  0  0
   -4.5727   -4.6145  -12.1367 H   0  0  0  0  0  0  0  0  0  0  0  0
   -3.4147   -3.4423  -11.4981 H   0  0  0  0  0  0  0  0  0  0  0  0
   -5.1352   -3.0584  -11.5170 H   0  0  0  0  0  0  0  0  0  0  0  0
   -6.3819   -2.7517   -8.9773 H   0  0  0  0  0  0  0  0  0  0  0  0
   -6.0714   -0.9642   -7.3047 H   0  0  0  0  0  0  0  0  0  0  0  0
    4.9680    4.6735   -1.1993 H   0  0  0  0  0  0  0  0  0  0  0  0
    5.6561    4.3976    1.1521 H   0  0  0  0  0  0  0  0  0  0  0  0
    4.3390    1.7789    3.4219 H   0  0  0  0  0  0  0  0  0  0  0  0
    5.0590    3.3961    3.3630 H   0  0  0  0  0  0  0  0  0  0  0  0
    6.7886    1.7255    3.9464 H   0  0  0  0  0  0  0  0  0  0  0  0
    6.4186    0.8043    2.4834 H   0  0  0  0  0  0  0  0  0  0  0  0
    7.1380    2.4101    2.3571 H   0  0  0  0  0  0  0  0  0  0  0  0
    3.3932    0.7848    1.4603 H   0  0  0  0  0  0  0  0  0  0  0  0
    1.9872    0.0711   -0.7972 H   0  0  0  0  0  0  0  0  0  0  0  0
    0.5347    3.5533   -2.7962 H   0  0  0  0  0  0  0  0  0  0  0  0
   -2.7590    5.0174   -3.9574 H   0  0  0  0  0  0  0  0  0  0  0  0
   -2.1071    2.3532    1.5210 H   0  0  0  0  0  0  0  0  0  0  0  0
   -5.1811    3.3983    6.3953 H   0  0  0  0  0  0  0  0  0  0  0  0
   -5.0107    1.8236    5.5569 H   0  0  0  0  0  0  0  0  0  0  0  0
   -3.5735    2.6178    6.2397 H   0  0  0  0  0  0  0  0  0  0  0  0
   -4.7737    5.3411    3.0234 H   0  0  0  0  0  0  0  0  0  0  0  0
   -4.5435    6.6551    0.9566 H   0  0  0  0  0  0  0  0  0  0  0  0
  1  2  2  0  0  0  0
  2  3  1  0  0  0  0
  3  4  2  0  0  0  0
  3  5  1  0  0  0  0
  5  6  2  0  0  0  0
  6  7  1  0  0  0  0
  7  8  1  0  0  0  0
  7  9  2  0  0  0  0
  9 10  1  0  0  0  0
  9 11  1  0  0  0  0
 11 12  2  0  0  0  0
 12 13  1  0  0  0  0
 13 14  2  0  0  0  0
  1 15  1  0  0  0  0
 15 16  2  0  0  0  0
 16 17  1  0  0  0  0
 17 18  2  0  0  0  0
 18 19  1  0  0  0  0
 19 20  2  0  0  0  0
 20 21  1  0  0  0  0
 21 22  1  0  0  0  0
 20 23  1  0  0  0  0
 16 24  1  0  0  0  0
 24 25  2  0  0  0  0
 25 26  1  0  0  0  0
 25 27  1  0  0  0  0
 27 28  2  0  0  0  0
 28 29  1  0  0  0  0
 29 30  2  0  0  0  0
 30 31  1  0  0  0  0
 31 32  1  0  0  0  0
 32 33  2  0  0  0  0
 33 34  1  0  0  0  0
 34 35  1  0  0  0  0
 35 36  1  0  0  0  0
 34 37  1  0  0  0  0
 30 38  1  0  0  0  0
 38 39  2  0  0  0  0
 39 40  1  0  0  0  0
 40 41  2  0  0  0  0
 41 42  1  0  0  0  0
 42 43  1  0  0  0  0
 43 44  1  0  0  0  0
 42 45  1  0  0  0  0
 45 46  2  0  0  0  0
 39 47  1  0  0  0  0
 47 48  2  0  0  0  0
 48 49  1  0  0  0  0
 49 50  2  0  0  0  0
 50 51  1  0  0  0  0
 51 52  2  0  0  0  0
 52 53  1  0  0  0  0
 53 54  2  0  0  0  0
 54 55  1  0  0  0  0
 55 56  1  0  0  0  0
 56 57  1  0  0  0  0
 55 58  2  0  0  0  0
 58 59  1  0  0  0  0
 59 60  2  0  0  0  0
 60 61  1  0  0  0  0
 50 62  1  0  0  0  0
 62 63  2  0  0  0  0
 63 64  1  0  0  0  0
 64 65  1  0  0  0  0
 65 66  1  0  0  0  0
 66 67  1  0  0  0  0
 67 68  2  0  0  0  0
 68 69  1  0  0  0  0
 69 70  2  0  0  0  0
 70 71  1  0  0  0  0
 71 72  1  0  0  0  0
 70 73  1  0  0  0  0
 73 74  2  0  0  0  0
 74 75  1  0  0  0  0
 64 76  2  0  0  0  0
 76 77  1  0  0  0  0
 63 78  1  0  0  0  0
 78 79  2  0  0  0  0
 79 80  1  0  0  0  0
 79 81  1  0  0  0  0
 81 82  2  0  0  0  0
 82 83  1  0  0  0  0
 83 84  2  0  0  0  0
 83 85  1  0  0  0  0
 85 86  2  0  0  0  0
 86 87  1  0  0  0  0
 87 88  1  0  0  0  0
 88 89  2  0  0  0  0
 88 90  1  0  0  0  0
 90 91  1  0  0  0  0
 87 92  2  0  0  0  0
 92 93  1  0  0  0  0
 93 94  2  0  0  0  0
 94 95  1  0  0  0  0
 95 96  2  0  0  0  0
 96 97  1  0  0  0  0
 97 98  3  0  0  0  0
 96 99  1  0  0  0  0
 99100  3  0  0  0  0
 13  2  1  0  0  0  0
 26 15  1  0  0  0  0
 32 27  1  0  0  0  0
 46 40  1  0  0  0  0
 77 47  1  0  0  0  0
 95 82  1  0  0  0  0
 12  5  1  0  0  0  0
 23 17  1  0  0  0  0
 46 29  1  0  0  0  0
 76 49  1  0  0  0  0
 94 85  1  0  0  0  0
 37 31  2  0  0  0  0
 61 51  1  0  0  0  0
 80 62  1  0  0  0  0
 60 53  1  0  0  0  0
 75 65  2  0  0  0  0
 74 67  1  0  0  0  0
  1101  1  0  0  0  0
  6102  1  0  0  0  0
 11103  1  0  0  0  0
 18104  1  0  0  0  0
 19105  1  0  0  0  0
 21106  1  0  0  0  0
 21107  1  0  0  0  0
 22108  1  0  0  0  0
 22109  1  0  0  0  0
 22110  1  0  0  0  0
 24111  1  0  0  0  0
 28112  1  0  0  0  0
 35113  1  0  0  0  0
 35114  1  0  0  0  0
 36115  1  0  0  0  0
 36116  1  0  0  0  0
 36117  1  0  0  0  0
 38118  1  0  0  0  0
 43119  1  0  0  0  0
 43120  1  0  0  0  0
 44121  1  0  0  0  0
 44122  1  0  0  0  0
 44123  1  0  0  0  0
 48124  1  0  0  0  0
 52125  1  0  0  0  0
 54126  1  0  0  0  0
 56127  1  0  0  0  0
 56128  1  0  0  0  0
 57129  1  0  0  0  0
 57130  1  0  0  0  0
 57131  1  0  0  0  0
 58132  1  0  0  0  0
 59133  1  0  0  0  0
 68134  1  0  0  0  0
 69135  1  0  0  0  0
 71136  1  0  0  0  0
 71137  1  0  0  0  0
 72138  1  0  0  0  0
 72139  1  0  0  0  0
 72140  1  0  0  0  0
 73141  1  0  0  0  0
 75142  1  0  0  0  0
 78143  1  0  0  0  0
 81144  1  0  0  0  0
 86145  1  0  0  0  0
 91146  1  0  0  0  0
 91147  1  0  0  0  0
 91148  1  0  0  0  0
 92149  1  0  0  0  0
 93150  1  0  0  0  0
M  END
