
  xtb     02112206483D
 energy: -263.838829239365 gnorm: 0.000370856760 xtb: 6.4.1 (unknown)
140157  0     0  0            999 V2000
    7.8529   11.9534    2.9199 C   0  0  0  0  0  0  0  0  0  0  0  0
    8.8858   12.2292    3.7753 C   0  0  0  0  0  0  0  0  0  0  0  0
    9.6857   11.3119    4.5777 C   0  0  0  0  0  0  0  0  0  0  0  0
    9.6170   10.0984    4.6295 O   0  0  0  0  0  0  0  0  0  0  0  0
   10.6316   12.1666    5.3451 C   0  0  0  0  0  0  0  0  0  0  0  0
   11.5958   11.7955    6.2602 C   0  0  0  0  0  0  0  0  0  0  0  0
   12.3589   12.7971    6.8520 C   0  0  0  0  0  0  0  0  0  0  0  0
   13.5678   12.3712    7.9977 Cl  0  0  0  0  0  0  0  0  0  0  0  0
   12.1526   14.1408    6.5260 C   0  0  0  0  0  0  0  0  0  0  0  0
   13.1098   15.3577    7.2731 Cl  0  0  0  0  0  0  0  0  0  0  0  0
   11.1788   14.5087    5.6024 C   0  0  0  0  0  0  0  0  0  0  0  0
   10.4242   13.5117    5.0186 C   0  0  0  0  0  0  0  0  0  0  0  0
    9.3263   13.6124    4.0183 C   0  0  0  0  0  0  0  0  0  0  0  0
    8.8868   14.6233    3.5150 O   0  0  0  0  0  0  0  0  0  0  0  0
    7.2634   10.7317    2.5721 C   0  0  0  0  0  0  0  0  0  0  0  0
    7.7862    9.1554    3.1724 S   0  0  0  0  0  0  0  0  0  0  0  0
    6.5339    8.4000    2.2695 C   0  0  0  0  0  0  0  0  0  0  0  0
    5.9836    7.1463    2.0095 C   0  0  0  0  0  0  0  0  0  0  0  0
    4.8819    7.3463    1.1486 C   0  0  0  0  0  0  0  0  0  0  0  0
    4.7372    8.6804    0.8787 N   0  0  0  0  0  0  0  0  0  0  0  0
    3.7995    9.2694   -0.0410 C   0  0  0  0  0  0  0  0  0  0  0  0
    4.3580    9.3122   -1.4623 C   0  0  0  0  0  0  0  0  0  0  0  0
    5.7461    9.3350    1.5425 C   0  0  0  0  0  0  0  0  0  0  0  0
    6.1660   10.6405    1.7107 C   0  0  0  0  0  0  0  0  0  0  0  0
    4.2087    6.1674    0.8274 C   0  0  0  0  0  0  0  0  0  0  0  0
    4.7838    5.0670    1.4350 C   0  0  0  0  0  0  0  0  0  0  0  0
    6.1880    5.4782    2.4085 S   0  0  0  0  0  0  0  0  0  0  0  0
    4.3244    3.7275    1.3124 C   0  0  0  0  0  0  0  0  0  0  0  0
    4.8221    2.5578    1.8530 C   0  0  0  0  0  0  0  0  0  0  0  0
    5.9674    2.4343    2.7651 C   0  0  0  0  0  0  0  0  0  0  0  0
    7.0898    1.7174    2.3683 C   0  0  0  0  0  0  0  0  0  0  0  0
    8.1525    1.5715    3.2401 C   0  0  0  0  0  0  0  0  0  0  0  0
    8.0972    2.1273    4.5057 C   0  0  0  0  0  0  0  0  0  0  0  0
    6.9757    2.8335    4.9219 C   0  0  0  0  0  0  0  0  0  0  0  0
    6.8896    3.3913    6.3128 C   0  0  0  0  0  0  0  0  0  0  0  0
    6.2537    2.3706    7.2587 C   0  0  0  0  0  0  0  0  0  0  0  0
    5.9116    2.9749    4.0440 C   0  0  0  0  0  0  0  0  0  0  0  0
    4.0745    1.4390    1.4413 C   0  0  0  0  0  0  0  0  0  0  0  0
    4.2154   -0.2584    1.8236 S   0  0  0  0  0  0  0  0  0  0  0  0
    2.8008   -0.5579    0.8718 C   0  0  0  0  0  0  0  0  0  0  0  0
    2.0110   -1.6414    0.4586 C   0  0  0  0  0  0  0  0  0  0  0  0
    2.1735   -3.0325    0.6371 C   0  0  0  0  0  0  0  0  0  0  0  0
    1.2521   -3.9258   -0.0040 C   0  0  0  0  0  0  0  0  0  0  0  0
    1.5552   -5.1980    0.2009 N   0  0  0  0  0  0  0  0  0  0  0  0
    2.8828   -5.2662    1.1246 S   0  0  0  0  0  0  0  0  0  0  0  0
    3.1229   -3.6752    1.2989 N   0  0  0  0  0  0  0  0  0  0  0  0
    0.1416   -3.3843   -0.6880 C   0  0  0  0  0  0  0  0  0  0  0  0
   -0.9852   -4.0049   -1.2484 C   0  0  0  0  0  0  0  0  0  0  0  0
   -1.6139   -5.5972   -1.5051 S   0  0  0  0  0  0  0  0  0  0  0  0
   -3.0854   -4.8847   -2.1256 C   0  0  0  0  0  0  0  0  0  0  0  0
   -4.2793   -5.4421   -2.5981 C   0  0  0  0  0  0  0  0  0  0  0  0
   -4.5111   -6.8848   -2.7167 C   0  0  0  0  0  0  0  0  0  0  0  0
   -4.4012   -7.7038   -1.5993 C   0  0  0  0  0  0  0  0  0  0  0  0
   -4.6158   -9.0636   -1.7246 C   0  0  0  0  0  0  0  0  0  0  0  0
   -4.9237   -9.6110   -2.9565 C   0  0  0  0  0  0  0  0  0  0  0  0
   -5.0103   -8.8091   -4.0878 C   0  0  0  0  0  0  0  0  0  0  0  0
   -5.3756   -9.3952   -5.4206 C   0  0  0  0  0  0  0  0  0  0  0  0
   -6.8922   -9.3516   -5.6148 C   0  0  0  0  0  0  0  0  0  0  0  0
   -4.8024   -7.4458   -3.9560 C   0  0  0  0  0  0  0  0  0  0  0  0
   -5.1922   -4.4547   -2.9570 C   0  0  0  0  0  0  0  0  0  0  0  0
   -4.5354   -2.8313   -2.7500 S   0  0  0  0  0  0  0  0  0  0  0  0
   -3.0613   -3.4826   -2.1410 C   0  0  0  0  0  0  0  0  0  0  0  0
   -1.8549   -2.9836   -1.6448 C   0  0  0  0  0  0  0  0  0  0  0  0
   -1.2947   -1.7570   -1.3923 N   0  0  0  0  0  0  0  0  0  0  0  0
   -0.0604   -1.9783   -0.7997 C   0  0  0  0  0  0  0  0  0  0  0  0
    0.9533   -1.1046   -0.3293 C   0  0  0  0  0  0  0  0  0  0  0  0
    1.1425    0.2627   -0.4375 N   0  0  0  0  0  0  0  0  0  0  0  0
    2.2512    0.5919    0.2959 C   0  0  0  0  0  0  0  0  0  0  0  0
    2.9914    1.7377    0.6124 C   0  0  0  0  0  0  0  0  0  0  0  0
    2.9133    3.4354    0.2943 S   0  0  0  0  0  0  0  0  0  0  0  0
    0.6216    1.1980   -1.4086 C   0  0  0  0  0  0  0  0  0  0  0  0
   -0.2666    2.2647   -0.7696 C   0  0  0  0  0  0  0  0  0  0  0  0
   -2.1813   -0.6198   -1.2665 C   0  0  0  0  0  0  0  0  0  0  0  0
   -2.6765   -0.4713    0.1705 C   0  0  0  0  0  0  0  0  0  0  0  0
   -6.5447   -4.6117   -3.3330 C   0  0  0  0  0  0  0  0  0  0  0  0
   -7.4093   -3.5964   -3.7400 C   0  0  0  0  0  0  0  0  0  0  0  0
   -7.0222   -2.3199   -3.8928 F   0  0  0  0  0  0  0  0  0  0  0  0
   -8.6998   -4.0353   -3.9743 C   0  0  0  0  0  0  0  0  0  0  0  0
   -9.6878   -3.2348   -4.3793 F   0  0  0  0  0  0  0  0  0  0  0  0
   -8.8969   -5.4027   -3.7431 C   0  0  0  0  0  0  0  0  0  0  0  0
   -7.3900   -6.1273   -3.2246 S   0  0  0  0  0  0  0  0  0  0  0  0
  -10.1378   -6.0205   -3.9395 C   0  0  0  0  0  0  0  0  0  0  0  0
  -10.4987   -7.3288   -3.7285 C   0  0  0  0  0  0  0  0  0  0  0  0
   -9.6176   -8.3640   -3.1862 C   0  0  0  0  0  0  0  0  0  0  0  0
   -8.4421   -8.2600   -2.8801 O   0  0  0  0  0  0  0  0  0  0  0  0
  -10.4421   -9.5822   -3.0687 C   0  0  0  0  0  0  0  0  0  0  0  0
  -10.0713  -10.8253   -2.6006 C   0  0  0  0  0  0  0  0  0  0  0  0
  -11.0420  -11.8205   -2.5873 C   0  0  0  0  0  0  0  0  0  0  0  0
  -10.6364  -13.3932   -2.0132 Cl  0  0  0  0  0  0  0  0  0  0  0  0
  -12.3358  -11.5679   -3.0289 C   0  0  0  0  0  0  0  0  0  0  0  0
  -12.6974  -10.3139   -3.4986 C   0  0  0  0  0  0  0  0  0  0  0  0
  -11.7440   -9.3065   -3.5217 C   0  0  0  0  0  0  0  0  0  0  0  0
  -11.8082   -7.9098   -3.9517 C   0  0  0  0  0  0  0  0  0  0  0  0
  -12.9149   -7.2984   -4.4801 C   0  0  0  0  0  0  0  0  0  0  0  0
  -14.1604   -7.9374   -4.6586 C   0  0  0  0  0  0  0  0  0  0  0  0
  -15.2014   -8.3906   -4.8279 N   0  0  0  0  0  0  0  0  0  0  0  0
  -12.9874   -5.9634   -4.9326 C   0  0  0  0  0  0  0  0  0  0  0  0
  -13.1342   -4.8966   -5.3309 N   0  0  0  0  0  0  0  0  0  0  0  0
    7.4126   12.8278    2.4474 H   0  0  0  0  0  0  0  0  0  0  0  0
   11.7537   10.7585    6.5113 H   0  0  0  0  0  0  0  0  0  0  0  0
   11.0197   15.5457    5.3520 H   0  0  0  0  0  0  0  0  0  0  0  0
    2.8798    8.6790   -0.0160 H   0  0  0  0  0  0  0  0  0  0  0  0
    3.5725   10.2814    0.3045 H   0  0  0  0  0  0  0  0  0  0  0  0
    3.6337    9.7627   -2.1350 H   0  0  0  0  0  0  0  0  0  0  0  0
    5.2736    9.8981   -1.4896 H   0  0  0  0  0  0  0  0  0  0  0  0
    4.5810    8.3061   -1.8095 H   0  0  0  0  0  0  0  0  0  0  0  0
    5.7225   11.5081    1.2560 H   0  0  0  0  0  0  0  0  0  0  0  0
    3.3445    6.0937    0.1915 H   0  0  0  0  0  0  0  0  0  0  0  0
    7.1290    1.2878    1.3782 H   0  0  0  0  0  0  0  0  0  0  0  0
    9.0280    1.0204    2.9302 H   0  0  0  0  0  0  0  0  0  0  0  0
    8.9331    2.0117    5.1803 H   0  0  0  0  0  0  0  0  0  0  0  0
    7.8891    3.6426    6.6719 H   0  0  0  0  0  0  0  0  0  0  0  0
    6.2895    4.3033    6.3077 H   0  0  0  0  0  0  0  0  0  0  0  0
    6.8458    1.4586    7.2845 H   0  0  0  0  0  0  0  0  0  0  0  0
    6.1914    2.7735    8.2669 H   0  0  0  0  0  0  0  0  0  0  0  0
    5.2508    2.1163    6.9229 H   0  0  0  0  0  0  0  0  0  0  0  0
    5.0251    3.5088    4.3565 H   0  0  0  0  0  0  0  0  0  0  0  0
   -4.1652   -7.2716   -0.6385 H   0  0  0  0  0  0  0  0  0  0  0  0
   -4.5414   -9.6990   -0.8547 H   0  0  0  0  0  0  0  0  0  0  0  0
   -5.0919  -10.6745   -3.0455 H   0  0  0  0  0  0  0  0  0  0  0  0
   -5.0342  -10.4305   -5.4780 H   0  0  0  0  0  0  0  0  0  0  0  0
   -4.8927   -8.8306   -6.2208 H   0  0  0  0  0  0  0  0  0  0  0  0
   -7.3882   -9.9036   -4.8203 H   0  0  0  0  0  0  0  0  0  0  0  0
   -7.1687   -9.7876   -6.5722 H   0  0  0  0  0  0  0  0  0  0  0  0
   -7.2472   -8.3241   -5.5801 H   0  0  0  0  0  0  0  0  0  0  0  0
   -4.8584   -6.8072   -4.8265 H   0  0  0  0  0  0  0  0  0  0  0  0
    0.1028    0.6405   -2.1896 H   0  0  0  0  0  0  0  0  0  0  0  0
    1.4775    1.6968   -1.8781 H   0  0  0  0  0  0  0  0  0  0  0  0
   -0.7117    2.8841   -1.5435 H   0  0  0  0  0  0  0  0  0  0  0  0
   -1.0575    1.8216   -0.1716 H   0  0  0  0  0  0  0  0  0  0  0  0
    0.3293    2.9020   -0.1221 H   0  0  0  0  0  0  0  0  0  0  0  0
   -1.6990    0.2941   -1.5978 H   0  0  0  0  0  0  0  0  0  0  0  0
   -3.0292   -0.8080   -1.9300 H   0  0  0  0  0  0  0  0  0  0  0  0
   -3.3613    0.3692    0.2425 H   0  0  0  0  0  0  0  0  0  0  0  0
   -3.2005   -1.3719    0.4821 H   0  0  0  0  0  0  0  0  0  0  0  0
   -1.8411   -0.3092    0.8489 H   0  0  0  0  0  0  0  0  0  0  0  0
  -10.9025   -5.3414   -4.2994 H   0  0  0  0  0  0  0  0  0  0  0  0
   -9.0651  -11.0074   -2.2574 H   0  0  0  0  0  0  0  0  0  0  0  0
  -13.0672  -12.3603   -3.0041 H   0  0  0  0  0  0  0  0  0  0  0  0
  -13.7077  -10.1458   -3.8330 H   0  0  0  0  0  0  0  0  0  0  0  0
  1  2  2  0  0  0  0
  2  3  1  0  0  0  0
  3  4  2  0  0  0  0
  3  5  1  0  0  0  0
  5  6  2  0  0  0  0
  6  7  1  0  0  0  0
  7  8  1  0  0  0  0
  7  9  2  0  0  0  0
  9 10  1  0  0  0  0
  9 11  1  0  0  0  0
 11 12  2  0  0  0  0
 12 13  1  0  0  0  0
 13 14  2  0  0  0  0
  1 15  1  0  0  0  0
 15 16  1  0  0  0  0
 16 17  1  0  0  0  0
 17 18  1  0  0  0  0
 18 19  2  0  0  0  0
 19 20  1  0  0  0  0
 20 21  1  0  0  0  0
 21 22  1  0  0  0  0
 20 23  1  0  0  0  0
 23 24  1  0  0  0  0
 19 25  1  0  0  0  0
 25 26  2  0  0  0  0
 26 27  1  0  0  0  0
 26 28  1  0  0  0  0
 28 29  2  0  0  0  0
 29 30  1  0  0  0  0
 30 31  2  0  0  0  0
 31 32  1  0  0  0  0
 32 33  2  0  0  0  0
 33 34  1  0  0  0  0
 34 35  1  0  0  0  0
 35 36  1  0  0  0  0
 34 37  2  0  0  0  0
 29 38  1  0  0  0  0
 38 39  1  0  0  0  0
 39 40  1  0  0  0  0
 40 41  1  0  0  0  0
 41 42  1  0  0  0  0
 42 43  1  0  0  0  0
 43 44  2  0  0  0  0
 44 45  1  0  0  0  0
 45 46  1  0  0  0  0
 43 47  1  0  0  0  0
 47 48  1  0  0  0  0
 48 49  1  0  0  0  0
 49 50  1  0  0  0  0
 50 51  1  0  0  0  0
 51 52  1  0  0  0  0
 52 53  2  0  0  0  0
 53 54  1  0  0  0  0
 54 55  2  0  0  0  0
 55 56  1  0  0  0  0
 56 57  1  0  0  0  0
 57 58  1  0  0  0  0
 56 59  2  0  0  0  0
 51 60  2  0  0  0  0
 60 61  1  0  0  0  0
 61 62  1  0  0  0  0
 62 63  1  0  0  0  0
 63 64  1  0  0  0  0
 64 65  1  0  0  0  0
 65 66  1  0  0  0  0
 66 67  1  0  0  0  0
 67 68  1  0  0  0  0
 68 69  1  0  0  0  0
 69 70  1  0  0  0  0
 67 71  1  0  0  0  0
 71 72  1  0  0  0  0
 64 73  1  0  0  0  0
 73 74  1  0  0  0  0
 60 75  1  0  0  0  0
 75 76  2  0  0  0  0
 76 77  1  0  0  0  0
 76 78  1  0  0  0  0
 78 79  1  0  0  0  0
 78 80  2  0  0  0  0
 80 81  1  0  0  0  0
 80 82  1  0  0  0  0
 82 83  2  0  0  0  0
 83 84  1  0  0  0  0
 84 85  2  0  0  0  0
 84 86  1  0  0  0  0
 86 87  2  0  0  0  0
 87 88  1  0  0  0  0
 88 89  1  0  0  0  0
 88 90  2  0  0  0  0
 90 91  1  0  0  0  0
 91 92  2  0  0  0  0
 92 93  1  0  0  0  0
 93 94  2  0  0  0  0
 94 95  1  0  0  0  0
 95 96  3  0  0  0  0
 94 97  1  0  0  0  0
 97 98  3  0  0  0  0
 13  2  1  0  0  0  0
 24 15  2  0  0  0  0
 70 28  1  0  0  0  0
 81 75  1  0  0  0  0
 93 83  1  0  0  0  0
 12  5  1  0  0  0  0
 23 17  2  0  0  0  0
 37 30  1  0  0  0  0
 69 38  2  0  0  0  0
 92 86  1  0  0  0  0
 27 18  1  0  0  0  0
 68 40  2  0  0  0  0
 66 41  2  0  0  0  0
 46 42  2  0  0  0  0
 65 47  2  0  0  0  0
 63 48  2  0  0  0  0
 62 50  2  0  0  0  0
 59 52  1  0  0  0  0
  1 99  1  0  0  0  0
  6100  1  0  0  0  0
 11101  1  0  0  0  0
 21102  1  0  0  0  0
 21103  1  0  0  0  0
 22104  1  0  0  0  0
 22105  1  0  0  0  0
 22106  1  0  0  0  0
 24107  1  0  0  0  0
 25108  1  0  0  0  0
 31109  1  0  0  0  0
 32110  1  0  0  0  0
 33111  1  0  0  0  0
 35112  1  0  0  0  0
 35113  1  0  0  0  0
 36114  1  0  0  0  0
 36115  1  0  0  0  0
 36116  1  0  0  0  0
 37117  1  0  0  0  0
 53118  1  0  0  0  0
 54119  1  0  0  0  0
 55120  1  0  0  0  0
 57121  1  0  0  0  0
 57122  1  0  0  0  0
 58123  1  0  0  0  0
 58124  1  0  0  0  0
 58125  1  0  0  0  0
 59126  1  0  0  0  0
 71127  1  0  0  0  0
 71128  1  0  0  0  0
 72129  1  0  0  0  0
 72130  1  0  0  0  0
 72131  1  0  0  0  0
 73132  1  0  0  0  0
 73133  1  0  0  0  0
 74134  1  0  0  0  0
 74135  1  0  0  0  0
 74136  1  0  0  0  0
 82137  1  0  0  0  0
 87138  1  0  0  0  0
 90139  1  0  0  0  0
 91140  1  0  0  0  0
M  END
