
  xtb     02112204403D
 energy: -233.976861013312 gnorm: 0.000469227988 xtb: 6.4.1 (unknown)
126141  0     0  0            999 V2000
   -4.7376    7.7375   -8.0563 C   0  0  0  0  0  0  0  0  0  0  0  0
   -4.0630    7.2858   -9.1457 C   0  0  0  0  0  0  0  0  0  0  0  0
   -3.1643    6.1304   -9.2728 C   0  0  0  0  0  0  0  0  0  0  0  0
   -2.8507    5.3258   -8.4199 O   0  0  0  0  0  0  0  0  0  0  0  0
   -2.6988    6.1373  -10.6828 C   0  0  0  0  0  0  0  0  0  0  0  0
   -1.8331    5.2667  -11.3158 C   0  0  0  0  0  0  0  0  0  0  0  0
   -1.5426    5.4889  -12.6574 C   0  0  0  0  0  0  0  0  0  0  0  0
   -0.4693    4.4273  -13.4762 Cl  0  0  0  0  0  0  0  0  0  0  0  0
   -2.1136    6.5669  -13.3452 C   0  0  0  0  0  0  0  0  0  0  0  0
   -1.7337    6.8191  -15.0007 Cl  0  0  0  0  0  0  0  0  0  0  0  0
   -2.9865    7.4389  -12.7028 C   0  0  0  0  0  0  0  0  0  0  0  0
   -3.2721    7.2137  -11.3706 C   0  0  0  0  0  0  0  0  0  0  0  0
   -4.1545    7.9790  -10.4524 C   0  0  0  0  0  0  0  0  0  0  0  0
   -4.8085    8.9607  -10.7126 O   0  0  0  0  0  0  0  0  0  0  0  0
   -4.7566    7.2280   -6.7398 C   0  0  0  0  0  0  0  0  0  0  0  0
   -5.4516    7.8259   -5.8009 N   0  0  0  0  0  0  0  0  0  0  0  0
   -5.3885    7.2813   -4.6343 N   0  0  0  0  0  0  0  0  0  0  0  0
   -4.6300    6.2051   -4.5862 C   0  0  0  0  0  0  0  0  0  0  0  0
   -3.9075    5.8080   -6.1322 S   0  0  0  0  0  0  0  0  0  0  0  0
   -4.3780    5.4587   -3.4119 C   0  0  0  0  0  0  0  0  0  0  0  0
   -4.8173    5.6974   -2.1150 C   0  0  0  0  0  0  0  0  0  0  0  0
   -5.7849    6.7091   -1.6942 C   0  0  0  0  0  0  0  0  0  0  0  0
   -7.0102    6.8464   -2.3395 C   0  0  0  0  0  0  0  0  0  0  0  0
   -7.9255    7.7721   -1.8793 C   0  0  0  0  0  0  0  0  0  0  0  0
   -7.6330    8.5604   -0.7793 C   0  0  0  0  0  0  0  0  0  0  0  0
   -6.4178    8.4309   -0.1199 C   0  0  0  0  0  0  0  0  0  0  0  0
   -6.1133    9.2342    1.1115 C   0  0  0  0  0  0  0  0  0  0  0  0
   -6.4582    8.4281    2.3656 C   0  0  0  0  0  0  0  0  0  0  0  0
   -5.5032    7.4977   -0.5836 C   0  0  0  0  0  0  0  0  0  0  0  0
   -4.2190    4.8009   -1.2132 C   0  0  0  0  0  0  0  0  0  0  0  0
   -4.3598    4.6121    0.5191 S   0  0  0  0  0  0  0  0  0  0  0  0
   -3.2677    3.2744    0.4346 C   0  0  0  0  0  0  0  0  0  0  0  0
   -2.6279    2.3710    1.2950 C   0  0  0  0  0  0  0  0  0  0  0  0
   -2.6133    2.2965    2.7049 C   0  0  0  0  0  0  0  0  0  0  0  0
   -1.7555    1.3384    3.3369 C   0  0  0  0  0  0  0  0  0  0  0  0
   -1.7966    1.4158    4.6579 N   0  0  0  0  0  0  0  0  0  0  0  0
   -2.8309    2.5905    5.0700 S   0  0  0  0  0  0  0  0  0  0  0  0
   -3.2644    3.0479    3.5790 N   0  0  0  0  0  0  0  0  0  0  0  0
   -1.0394    0.4286    2.5286 C   0  0  0  0  0  0  0  0  0  0  0  0
   -0.2365   -0.6673    2.8757 C   0  0  0  0  0  0  0  0  0  0  0  0
    0.3821   -1.4403    4.2949 S   0  0  0  0  0  0  0  0  0  0  0  0
    1.1142   -2.6556    3.2750 C   0  0  0  0  0  0  0  0  0  0  0  0
    1.8970   -3.7824    3.5666 C   0  0  0  0  0  0  0  0  0  0  0  0
    2.2274   -4.2150    4.9285 C   0  0  0  0  0  0  0  0  0  0  0  0
    1.1989   -4.5133    5.8166 C   0  0  0  0  0  0  0  0  0  0  0  0
    1.5006   -4.9666    7.0866 C   0  0  0  0  0  0  0  0  0  0  0  0
    2.8186   -5.1210    7.4797 C   0  0  0  0  0  0  0  0  0  0  0  0
    3.8565   -4.8094    6.6111 C   0  0  0  0  0  0  0  0  0  0  0  0
    5.2884   -4.9468    7.0419 C   0  0  0  0  0  0  0  0  0  0  0  0
    5.8187   -3.6189    7.5848 C   0  0  0  0  0  0  0  0  0  0  0  0
    3.5492   -4.3441    5.3403 C   0  0  0  0  0  0  0  0  0  0  0  0
    2.2348   -4.4619    2.4050 C   0  0  0  0  0  0  0  0  0  0  0  0
    1.6069   -3.7015    0.9543 S   0  0  0  0  0  0  0  0  0  0  0  0
    0.8817   -2.4566    1.9076 C   0  0  0  0  0  0  0  0  0  0  0  0
    0.1136   -1.3080    1.6829 C   0  0  0  0  0  0  0  0  0  0  0  0
   -0.4110   -0.6322    0.6146 N   0  0  0  0  0  0  0  0  0  0  0  0
   -1.1211    0.4514    1.1057 C   0  0  0  0  0  0  0  0  0  0  0  0
   -1.8387    1.5075    0.4814 C   0  0  0  0  0  0  0  0  0  0  0  0
   -1.9750    1.9123   -0.8372 N   0  0  0  0  0  0  0  0  0  0  0  0
   -2.8285    2.9822   -0.8607 C   0  0  0  0  0  0  0  0  0  0  0  0
   -3.3651    3.8636   -1.8062 C   0  0  0  0  0  0  0  0  0  0  0  0
   -3.2637    4.1046   -3.5127 S   0  0  0  0  0  0  0  0  0  0  0  0
   -1.1409    1.6427   -1.9874 C   0  0  0  0  0  0  0  0  0  0  0  0
    0.3134    2.0258   -1.7261 C   0  0  0  0  0  0  0  0  0  0  0  0
   -0.4718   -1.2824   -0.6759 C   0  0  0  0  0  0  0  0  0  0  0  0
   -1.8974   -1.7008   -1.0256 C   0  0  0  0  0  0  0  0  0  0  0  0
    2.8620   -5.7178    2.2449 C   0  0  0  0  0  0  0  0  0  0  0  0
    2.7868   -6.4110    1.1358 N   0  0  0  0  0  0  0  0  0  0  0  0
    3.3587   -7.5727    1.1845 N   0  0  0  0  0  0  0  0  0  0  0  0
    3.9070   -7.8699    2.3284 C   0  0  0  0  0  0  0  0  0  0  0  0
    3.7580   -6.5499    3.4966 S   0  0  0  0  0  0  0  0  0  0  0  0
    4.6324   -9.0685    2.5485 C   0  0  0  0  0  0  0  0  0  0  0  0
    5.1754   -9.5443    3.6943 C   0  0  0  0  0  0  0  0  0  0  0  0
    6.2826  -10.5480    3.6072 C   0  0  0  0  0  0  0  0  0  0  0  0
    6.5455  -11.2545    2.6649 O   0  0  0  0  0  0  0  0  0  0  0  0
    7.0060  -10.4198    4.8874 C   0  0  0  0  0  0  0  0  0  0  0  0
    8.1937  -11.0091    5.2725 C   0  0  0  0  0  0  0  0  0  0  0  0
    8.7159  -10.7167    6.5297 C   0  0  0  0  0  0  0  0  0  0  0  0
    9.9856  -11.3508    6.9993 C   0  0  0  0  0  0  0  0  0  0  0  0
    8.0301   -9.8289    7.3593 C   0  0  0  0  0  0  0  0  0  0  0  0
    6.8329   -9.2401    6.9855 C   0  0  0  0  0  0  0  0  0  0  0  0
    6.3076   -9.5432    5.7390 C   0  0  0  0  0  0  0  0  0  0  0  0
    5.0665   -9.1414    5.0861 C   0  0  0  0  0  0  0  0  0  0  0  0
    3.9348   -8.7263    5.7327 C   0  0  0  0  0  0  0  0  0  0  0  0
    2.6625   -8.6559    5.1247 C   0  0  0  0  0  0  0  0  0  0  0  0
    1.6007   -8.6465    4.6900 N   0  0  0  0  0  0  0  0  0  0  0  0
    3.8927   -8.4197    7.1074 C   0  0  0  0  0  0  0  0  0  0  0  0
    3.8189   -8.1386    8.2178 N   0  0  0  0  0  0  0  0  0  0  0  0
   -5.3494    8.6240   -8.1925 H   0  0  0  0  0  0  0  0  0  0  0  0
   -1.3931    4.4371  -10.7852 H   0  0  0  0  0  0  0  0  0  0  0  0
   -3.4270    8.2692  -13.2319 H   0  0  0  0  0  0  0  0  0  0  0  0
   -7.2457    6.2189   -3.1839 H   0  0  0  0  0  0  0  0  0  0  0  0
   -8.8763    7.8782   -2.3798 H   0  0  0  0  0  0  0  0  0  0  0  0
   -8.3556    9.2828   -0.4277 H   0  0  0  0  0  0  0  0  0  0  0  0
   -5.0529    9.4935    1.1316 H   0  0  0  0  0  0  0  0  0  0  0  0
   -6.6919   10.1597    1.1046 H   0  0  0  0  0  0  0  0  0  0  0  0
   -7.5168    8.1785    2.3743 H   0  0  0  0  0  0  0  0  0  0  0  0
   -5.8889    7.5016    2.3886 H   0  0  0  0  0  0  0  0  0  0  0  0
   -6.2289    9.0007    3.2611 H   0  0  0  0  0  0  0  0  0  0  0  0
   -4.5494    7.3962   -0.0858 H   0  0  0  0  0  0  0  0  0  0  0  0
    0.1721   -4.4112    5.4995 H   0  0  0  0  0  0  0  0  0  0  0  0
    0.7028   -5.2112    7.7712 H   0  0  0  0  0  0  0  0  0  0  0  0
    3.0457   -5.4967    8.4660 H   0  0  0  0  0  0  0  0  0  0  0  0
    5.3615   -5.7102    7.8186 H   0  0  0  0  0  0  0  0  0  0  0  0
    5.9006   -5.2604    6.1923 H   0  0  0  0  0  0  0  0  0  0  0  0
    6.8578   -3.7203    7.8892 H   0  0  0  0  0  0  0  0  0  0  0  0
    5.2330   -3.3034    8.4449 H   0  0  0  0  0  0  0  0  0  0  0  0
    5.7532   -2.8445    6.8238 H   0  0  0  0  0  0  0  0  0  0  0  0
    4.3469   -4.0703    4.6629 H   0  0  0  0  0  0  0  0  0  0  0  0
   -1.5324    2.2540   -2.8042 H   0  0  0  0  0  0  0  0  0  0  0  0
   -1.2342    0.6011   -2.2953 H   0  0  0  0  0  0  0  0  0  0  0  0
    0.7165    1.4869   -0.8719 H   0  0  0  0  0  0  0  0  0  0  0  0
    0.9178    1.8032   -2.6011 H   0  0  0  0  0  0  0  0  0  0  0  0
    0.3844    3.0910   -1.5188 H   0  0  0  0  0  0  0  0  0  0  0  0
   -0.0365   -0.6475   -1.4478 H   0  0  0  0  0  0  0  0  0  0  0  0
    0.1560   -2.1738   -0.6024 H   0  0  0  0  0  0  0  0  0  0  0  0
   -2.5674   -0.8445   -1.0495 H   0  0  0  0  0  0  0  0  0  0  0  0
   -2.2699   -2.4019   -0.2826 H   0  0  0  0  0  0  0  0  0  0  0  0
   -1.9119   -2.1876   -1.9968 H   0  0  0  0  0  0  0  0  0  0  0  0
    4.8589   -9.6213    1.6426 H   0  0  0  0  0  0  0  0  0  0  0  0
    8.6991  -11.6864    4.6007 H   0  0  0  0  0  0  0  0  0  0  0  0
   10.5160  -11.8201    6.1753 H   0  0  0  0  0  0  0  0  0  0  0  0
   10.6349  -10.6128    7.4662 H   0  0  0  0  0  0  0  0  0  0  0  0
    9.7639  -12.1151    7.7443 H   0  0  0  0  0  0  0  0  0  0  0  0
    8.4475   -9.5951    8.3279 H   0  0  0  0  0  0  0  0  0  0  0  0
    6.3361   -8.5533    7.6516 H   0  0  0  0  0  0  0  0  0  0  0  0
  1  2  2  0  0  0  0
  2  3  1  0  0  0  0
  3  4  2  0  0  0  0
  3  5  1  0  0  0  0
  5  6  2  0  0  0  0
  6  7  1  0  0  0  0
  7  8  1  0  0  0  0
  7  9  2  0  0  0  0
  9 10  1  0  0  0  0
  9 11  1  0  0  0  0
 11 12  2  0  0  0  0
 12 13  1  0  0  0  0
 13 14  2  0  0  0  0
  1 15  1  0  0  0  0
 15 16  2  0  0  0  0
 16 17  1  0  0  0  0
 17 18  2  0  0  0  0
 18 19  1  0  0  0  0
 18 20  1  0  0  0  0
 20 21  2  0  0  0  0
 21 22  1  0  0  0  0
 22 23  2  0  0  0  0
 23 24  1  0  0  0  0
 24 25  2  0  0  0  0
 25 26  1  0  0  0  0
 26 27  1  0  0  0  0
 27 28  1  0  0  0  0
 26 29  2  0  0  0  0
 21 30  1  0  0  0  0
 30 31  1  0  0  0  0
 31 32  1  0  0  0  0
 32 33  1  0  0  0  0
 33 34  1  0  0  0  0
 34 35  1  0  0  0  0
 35 36  2  0  0  0  0
 36 37  1  0  0  0  0
 37 38  1  0  0  0  0
 35 39  1  0  0  0  0
 39 40  1  0  0  0  0
 40 41  1  0  0  0  0
 41 42  1  0  0  0  0
 42 43  1  0  0  0  0
 43 44  1  0  0  0  0
 44 45  2  0  0  0  0
 45 46  1  0  0  0  0
 46 47  2  0  0  0  0
 47 48  1  0  0  0  0
 48 49  1  0  0  0  0
 49 50  1  0  0  0  0
 48 51  2  0  0  0  0
 43 52  2  0  0  0  0
 52 53  1  0  0  0  0
 53 54  1  0  0  0  0
 54 55  1  0  0  0  0
 55 56  1  0  0  0  0
 56 57  1  0  0  0  0
 57 58  1  0  0  0  0
 58 59  1  0  0  0  0
 59 60  1  0  0  0  0
 60 61  1  0  0  0  0
 61 62  1  0  0  0  0
 59 63  1  0  0  0  0
 63 64  1  0  0  0  0
 56 65  1  0  0  0  0
 65 66  1  0  0  0  0
 52 67  1  0  0  0  0
 67 68  2  0  0  0  0
 68 69  1  0  0  0  0
 69 70  2  0  0  0  0
 70 71  1  0  0  0  0
 70 72  1  0  0  0  0
 72 73  2  0  0  0  0
 73 74  1  0  0  0  0
 74 75  2  0  0  0  0
 74 76  1  0  0  0  0
 76 77  2  0  0  0  0
 77 78  1  0  0  0  0
 78 79  1  0  0  0  0
 78 80  2  0  0  0  0
 80 81  1  0  0  0  0
 81 82  2  0  0  0  0
 82 83  1  0  0  0  0
 83 84  2  0  0  0  0
 84 85  1  0  0  0  0
 85 86  3  0  0  0  0
 84 87  1  0  0  0  0
 87 88  3  0  0  0  0
 13  2  1  0  0  0  0
 19 15  1  0  0  0  0
 62 20  1  0  0  0  0
 71 67  1  0  0  0  0
 83 73  1  0  0  0  0
 12  5  1  0  0  0  0
 29 22  1  0  0  0  0
 61 30  2  0  0  0  0
 82 76  1  0  0  0  0
 60 32  2  0  0  0  0
 58 33  2  0  0  0  0
 38 34  2  0  0  0  0
 57 39  2  0  0  0  0
 55 40  2  0  0  0  0
 54 42  2  0  0  0  0
 51 44  1  0  0  0  0
  1 89  1  0  0  0  0
  6 90  1  0  0  0  0
 11 91  1  0  0  0  0
 23 92  1  0  0  0  0
 24 93  1  0  0  0  0
 25 94  1  0  0  0  0
 27 95  1  0  0  0  0
 27 96  1  0  0  0  0
 28 97  1  0  0  0  0
 28 98  1  0  0  0  0
 28 99  1  0  0  0  0
 29100  1  0  0  0  0
 45101  1  0  0  0  0
 46102  1  0  0  0  0
 47103  1  0  0  0  0
 49104  1  0  0  0  0
 49105  1  0  0  0  0
 50106  1  0  0  0  0
 50107  1  0  0  0  0
 50108  1  0  0  0  0
 51109  1  0  0  0  0
 63110  1  0  0  0  0
 63111  1  0  0  0  0
 64112  1  0  0  0  0
 64113  1  0  0  0  0
 64114  1  0  0  0  0
 65115  1  0  0  0  0
 65116  1  0  0  0  0
 66117  1  0  0  0  0
 66118  1  0  0  0  0
 66119  1  0  0  0  0
 72120  1  0  0  0  0
 77121  1  0  0  0  0
 79122  1  0  0  0  0
 79123  1  0  0  0  0
 79124  1  0  0  0  0
 80125  1  0  0  0  0
 81126  1  0  0  0  0
M  END
