147

C          7.69640        3.97700       -4.67560
C          7.86640        5.29200       -4.37580
C          7.25030        5.99660       -3.21160
O          6.44980        5.56330       -2.41350
C          7.90980        7.30270       -3.20900
S          7.84030        8.70940       -2.23650
C          9.06520        9.44670       -3.23570
Cl         9.60570       11.02530       -2.89620
C          9.50200        8.64850       -4.25740
C          8.83530        7.41010       -4.23730
C          8.82780        6.18190       -5.00720
C          9.54910        5.96390       -6.15040
C         10.44320        6.92990       -6.65830
N         11.17700        7.70190       -7.08480
C          9.47300        4.80950       -6.95600
N          9.44010        3.91340       -7.67340
C          6.70020        3.08720       -4.16380
C          5.34540        3.43010       -3.97220
C          4.67950        4.63920       -4.30940
C          3.35050        4.62590       -4.04990
C          2.36030        5.71370       -4.27540
C          1.33500        5.32720       -5.34280
S          2.82170        3.10100       -3.39740
C          4.43870        2.45990       -3.49070
C          4.79010        1.13820       -3.23320
C          6.14170        0.79340       -3.41520
C          7.04760        1.75560       -3.89900
S          8.64200        1.09010       -4.06260
C          8.09300       -0.46790       -3.48740
C          9.06310       -1.58930       -3.36090
C         10.06020       -1.33880       -2.22790
C          6.77910       -0.45900       -3.17670
C          3.80230        0.14120       -2.87270
C          3.60380       -1.08370       -3.47240
C          4.36090       -1.56680       -4.62950
C          4.79800       -2.88810       -4.67370
C          5.56670       -3.32360       -5.73570
C          5.90240       -2.45430       -6.75890
C          5.44820       -1.14160       -6.74830
C          5.82000       -0.18240       -7.84290
C          6.92020        0.77150       -7.37490
C          4.67400       -0.71210       -5.68110
C          2.55400       -1.79170       -2.84660
S          1.81600       -3.34270       -3.16470
C          0.71590       -3.05780       -1.85940
C         -0.32920       -3.71170       -1.18800
C         -0.85960       -5.00970       -1.34960
C         -1.86590       -5.46510       -0.43540
N         -2.23390       -6.71530       -0.66760
S         -1.38880       -7.27020       -1.93330
N         -0.52030       -5.93720       -2.23140
C         -2.36700       -4.56390        0.52850
C         -3.41800       -4.69490        1.44640
S         -4.57120       -5.87740        1.96630
C         -5.27700       -4.68450        3.03840
C         -6.36670       -4.71380        3.91860
C         -7.22730       -5.88280        4.09060
C         -6.66160       -7.14540        4.25380
C         -7.47590       -8.25070        4.40580
C         -8.85320       -8.11240        4.38880
C         -9.43570       -6.86450        4.20600
C        -10.92840       -6.70040        4.21720
C        -11.41240       -6.32470        5.61940
C         -8.61380       -5.75730        4.05800
C         -6.53340       -3.49250        4.58490
S         -5.34660       -2.30660        4.04670
C         -4.62710       -3.44500        2.97660
C         -3.56850       -3.45060        2.06780
N         -2.65190       -2.56150        1.57310
C         -1.88150       -3.22600        0.63850
C         -0.77440       -2.83380       -0.15950
N          0.00760       -1.68640       -0.19510
C          0.90720       -1.83320       -1.21870
C          1.96130       -1.10340       -1.78820
S          2.69850        0.44130       -1.54780
C          0.34420       -0.77250        0.87610
C          1.15780       -1.48020        1.95760
C         -2.84740       -1.14780        1.82120
C         -2.32890       -0.71750        3.19090
C         -7.44250       -3.26300        5.63880
C         -7.64760       -2.14310        6.40070
C         -6.99910       -0.90460        6.26150
C         -7.10800        0.14900        7.12800
C         -6.32350        1.29560        6.92810
C         -6.27310        2.40380        7.73370
C         -7.11190        2.62190        8.94070
O         -7.93350        1.87510        9.42760
C         -6.71740        3.95520        9.40420
S         -7.16360        4.99680       10.68630
C         -6.01390        6.17580       10.11350
Cl        -5.83030        7.65760       10.93370
C         -5.32650        5.78310        8.99770
C         -5.73600        4.50070        8.59020
C         -5.41410        3.55040        7.53930
C         -4.44240        3.74280        6.58730
C         -3.68230        4.92920        6.53470
N         -3.05060        5.88510        6.46580
C         -4.05960        2.82890        5.58860
N         -3.67250        2.14190        4.75140
H          8.42120        3.50710       -5.33260
H         10.25430        8.94430       -4.96430
H          5.17450        5.48480       -4.75080
H          1.83820        5.92610       -3.33870
H          2.89390        6.61620       -4.58000
H          1.83120        5.12240       -6.28890
H          0.62460        6.13620       -5.49110
H          0.79010        4.43670       -5.03770
H          8.50810       -2.51050       -3.17300
H          9.60970       -1.70420       -4.30020
H          9.53670       -1.22670       -1.28120
H         10.62780       -0.43090       -2.41900
H         10.75350       -2.17180       -2.14610
H          6.26570       -1.31460       -2.77910
H          4.55070       -3.56350       -3.86820
H          5.91150       -4.34680       -5.76280
H          6.51400       -2.80050       -7.57950
H          4.94290        0.39970       -8.13500
H          6.16820       -0.73620       -8.71650
H          6.57020        1.36880       -6.53590
H          7.21450        1.44390       -8.17660
H          7.79680        0.21230       -7.05540
H          4.29940        0.30160       -5.67160
H         -5.58780       -7.25200        4.27750
H         -7.03400       -9.22690        4.53840
H         -9.48310       -8.98200        4.50810
H        -11.22060       -5.91750        3.51440
H        -11.40560       -7.63230        3.90900
H        -11.12660       -7.09140        6.33620
H        -10.97220       -5.38080        5.93340
H        -12.49480       -6.22290        5.63310
H         -9.05580       -4.78640        3.88250
H          0.94100        0.02680        0.42950
H         -0.54370       -0.32090        1.30670
H          2.07520       -1.88390        1.53510
H          1.41830       -0.77840        2.74510
H          0.58850       -2.30160        2.38840
H         -2.39890       -0.57830        1.00690
H         -3.92700       -0.96160        1.78930
H         -2.54460        0.33480        3.35270
H         -1.26020       -0.88250        3.29010
H         -2.83130       -1.28470        3.96990
H         -8.02360       -4.13970        5.89840
H         -8.35890       -2.22660        7.21210
H         -6.33680       -0.76460        5.41950
H         -7.75840        0.09940        7.98800
H         -5.68020        1.28400        6.05620
H         -4.58190        6.38770        8.51490
