
  xtb     02042216153D
 energy: -261.276128441306 gnorm: 0.000586375105 xtb: 6.4.1 (unknown)
147163  0     0  0            999 V2000
    7.6964    3.9770   -4.6756 C   0  0  0  0  0  0  0  0  0  0  0  0
    7.8664    5.2920   -4.3758 C   0  0  0  0  0  0  0  0  0  0  0  0
    7.2503    5.9966   -3.2116 C   0  0  0  0  0  0  0  0  0  0  0  0
    6.4498    5.5633   -2.4135 O   0  0  0  0  0  0  0  0  0  0  0  0
    7.9098    7.3027   -3.2090 C   0  0  0  0  0  0  0  0  0  0  0  0
    7.8403    8.7094   -2.2365 S   0  0  0  0  0  0  0  0  0  0  0  0
    9.0652    9.4467   -3.2357 C   0  0  0  0  0  0  0  0  0  0  0  0
    9.6057   11.0253   -2.8962 Cl  0  0  0  0  0  0  0  0  0  0  0  0
    9.5020    8.6485   -4.2574 C   0  0  0  0  0  0  0  0  0  0  0  0
    8.8353    7.4101   -4.2373 C   0  0  0  0  0  0  0  0  0  0  0  0
    8.8278    6.1819   -5.0072 C   0  0  0  0  0  0  0  0  0  0  0  0
    9.5491    5.9639   -6.1504 C   0  0  0  0  0  0  0  0  0  0  0  0
   10.4432    6.9299   -6.6583 C   0  0  0  0  0  0  0  0  0  0  0  0
   11.1770    7.7019   -7.0848 N   0  0  0  0  0  0  0  0  0  0  0  0
    9.4730    4.8095   -6.9560 C   0  0  0  0  0  0  0  0  0  0  0  0
    9.4401    3.9134   -7.6734 N   0  0  0  0  0  0  0  0  0  0  0  0
    6.7002    3.0872   -4.1638 C   0  0  0  0  0  0  0  0  0  0  0  0
    5.3454    3.4301   -3.9722 C   0  0  0  0  0  0  0  0  0  0  0  0
    4.6795    4.6392   -4.3094 C   0  0  0  0  0  0  0  0  0  0  0  0
    3.3505    4.6259   -4.0499 C   0  0  0  0  0  0  0  0  0  0  0  0
    2.3603    5.7137   -4.2754 C   0  0  0  0  0  0  0  0  0  0  0  0
    1.3350    5.3272   -5.3428 C   0  0  0  0  0  0  0  0  0  0  0  0
    2.8217    3.1010   -3.3974 S   0  0  0  0  0  0  0  0  0  0  0  0
    4.4387    2.4599   -3.4907 C   0  0  0  0  0  0  0  0  0  0  0  0
    4.7901    1.1382   -3.2332 C   0  0  0  0  0  0  0  0  0  0  0  0
    6.1417    0.7934   -3.4152 C   0  0  0  0  0  0  0  0  0  0  0  0
    7.0476    1.7556   -3.8990 C   0  0  0  0  0  0  0  0  0  0  0  0
    8.6420    1.0901   -4.0626 S   0  0  0  0  0  0  0  0  0  0  0  0
    8.0930   -0.4679   -3.4874 C   0  0  0  0  0  0  0  0  0  0  0  0
    9.0631   -1.5893   -3.3609 C   0  0  0  0  0  0  0  0  0  0  0  0
   10.0602   -1.3388   -2.2279 C   0  0  0  0  0  0  0  0  0  0  0  0
    6.7791   -0.4590   -3.1767 C   0  0  0  0  0  0  0  0  0  0  0  0
    3.8023    0.1412   -2.8727 C   0  0  0  0  0  0  0  0  0  0  0  0
    3.6038   -1.0837   -3.4724 C   0  0  0  0  0  0  0  0  0  0  0  0
    4.3609   -1.5668   -4.6295 C   0  0  0  0  0  0  0  0  0  0  0  0
    4.7980   -2.8881   -4.6737 C   0  0  0  0  0  0  0  0  0  0  0  0
    5.5667   -3.3236   -5.7357 C   0  0  0  0  0  0  0  0  0  0  0  0
    5.9024   -2.4543   -6.7589 C   0  0  0  0  0  0  0  0  0  0  0  0
    5.4482   -1.1416   -6.7483 C   0  0  0  0  0  0  0  0  0  0  0  0
    5.8200   -0.1824   -7.8429 C   0  0  0  0  0  0  0  0  0  0  0  0
    6.9202    0.7715   -7.3749 C   0  0  0  0  0  0  0  0  0  0  0  0
    4.6740   -0.7121   -5.6811 C   0  0  0  0  0  0  0  0  0  0  0  0
    2.5540   -1.7917   -2.8466 C   0  0  0  0  0  0  0  0  0  0  0  0
    1.8160   -3.3427   -3.1647 S   0  0  0  0  0  0  0  0  0  0  0  0
    0.7159   -3.0578   -1.8594 C   0  0  0  0  0  0  0  0  0  0  0  0
   -0.3292   -3.7117   -1.1880 C   0  0  0  0  0  0  0  0  0  0  0  0
   -0.8596   -5.0097   -1.3496 C   0  0  0  0  0  0  0  0  0  0  0  0
   -1.8659   -5.4651   -0.4354 C   0  0  0  0  0  0  0  0  0  0  0  0
   -2.2339   -6.7153   -0.6676 N   0  0  0  0  0  0  0  0  0  0  0  0
   -1.3888   -7.2702   -1.9333 S   0  0  0  0  0  0  0  0  0  0  0  0
   -0.5203   -5.9372   -2.2314 N   0  0  0  0  0  0  0  0  0  0  0  0
   -2.3670   -4.5639    0.5285 C   0  0  0  0  0  0  0  0  0  0  0  0
   -3.4180   -4.6949    1.4464 C   0  0  0  0  0  0  0  0  0  0  0  0
   -4.5712   -5.8774    1.9663 S   0  0  0  0  0  0  0  0  0  0  0  0
   -5.2770   -4.6845    3.0384 C   0  0  0  0  0  0  0  0  0  0  0  0
   -6.3667   -4.7138    3.9186 C   0  0  0  0  0  0  0  0  0  0  0  0
   -7.2273   -5.8828    4.0906 C   0  0  0  0  0  0  0  0  0  0  0  0
   -6.6616   -7.1454    4.2538 C   0  0  0  0  0  0  0  0  0  0  0  0
   -7.4759   -8.2507    4.4058 C   0  0  0  0  0  0  0  0  0  0  0  0
   -8.8532   -8.1124    4.3888 C   0  0  0  0  0  0  0  0  0  0  0  0
   -9.4357   -6.8645    4.2060 C   0  0  0  0  0  0  0  0  0  0  0  0
  -10.9284   -6.7004    4.2172 C   0  0  0  0  0  0  0  0  0  0  0  0
  -11.4124   -6.3247    5.6194 C   0  0  0  0  0  0  0  0  0  0  0  0
   -8.6138   -5.7573    4.0580 C   0  0  0  0  0  0  0  0  0  0  0  0
   -6.5334   -3.4925    4.5849 C   0  0  0  0  0  0  0  0  0  0  0  0
   -5.3466   -2.3066    4.0467 S   0  0  0  0  0  0  0  0  0  0  0  0
   -4.6271   -3.4450    2.9766 C   0  0  0  0  0  0  0  0  0  0  0  0
   -3.5685   -3.4506    2.0678 C   0  0  0  0  0  0  0  0  0  0  0  0
   -2.6519   -2.5615    1.5731 N   0  0  0  0  0  0  0  0  0  0  0  0
   -1.8815   -3.2260    0.6385 C   0  0  0  0  0  0  0  0  0  0  0  0
   -0.7744   -2.8338   -0.1595 C   0  0  0  0  0  0  0  0  0  0  0  0
    0.0076   -1.6864   -0.1951 N   0  0  0  0  0  0  0  0  0  0  0  0
    0.9072   -1.8332   -1.2187 C   0  0  0  0  0  0  0  0  0  0  0  0
    1.9613   -1.1034   -1.7882 C   0  0  0  0  0  0  0  0  0  0  0  0
    2.6985    0.4413   -1.5478 S   0  0  0  0  0  0  0  0  0  0  0  0
    0.3442   -0.7725    0.8761 C   0  0  0  0  0  0  0  0  0  0  0  0
    1.1578   -1.4802    1.9576 C   0  0  0  0  0  0  0  0  0  0  0  0
   -2.8474   -1.1478    1.8212 C   0  0  0  0  0  0  0  0  0  0  0  0
   -2.3289   -0.7175    3.1909 C   0  0  0  0  0  0  0  0  0  0  0  0
   -7.4425   -3.2630    5.6388 C   0  0  0  0  0  0  0  0  0  0  0  0
   -7.6476   -2.1431    6.4007 C   0  0  0  0  0  0  0  0  0  0  0  0
   -6.9991   -0.9046    6.2615 C   0  0  0  0  0  0  0  0  0  0  0  0
   -7.1080    0.1490    7.1280 C   0  0  0  0  0  0  0  0  0  0  0  0
   -6.3235    1.2956    6.9281 C   0  0  0  0  0  0  0  0  0  0  0  0
   -6.2731    2.4038    7.7337 C   0  0  0  0  0  0  0  0  0  0  0  0
   -7.1119    2.6219    8.9407 C   0  0  0  0  0  0  0  0  0  0  0  0
   -7.9335    1.8751    9.4276 O   0  0  0  0  0  0  0  0  0  0  0  0
   -6.7174    3.9552    9.4042 C   0  0  0  0  0  0  0  0  0  0  0  0
   -7.1636    4.9968   10.6863 S   0  0  0  0  0  0  0  0  0  0  0  0
   -6.0139    6.1758   10.1135 C   0  0  0  0  0  0  0  0  0  0  0  0
   -5.8303    7.6576   10.9337 Cl  0  0  0  0  0  0  0  0  0  0  0  0
   -5.3265    5.7831    8.9977 C   0  0  0  0  0  0  0  0  0  0  0  0
   -5.7360    4.5007    8.5902 C   0  0  0  0  0  0  0  0  0  0  0  0
   -5.4141    3.5504    7.5393 C   0  0  0  0  0  0  0  0  0  0  0  0
   -4.4424    3.7428    6.5873 C   0  0  0  0  0  0  0  0  0  0  0  0
   -3.6823    4.9292    6.5347 C   0  0  0  0  0  0  0  0  0  0  0  0
   -3.0506    5.8851    6.4658 N   0  0  0  0  0  0  0  0  0  0  0  0
   -4.0596    2.8289    5.5886 C   0  0  0  0  0  0  0  0  0  0  0  0
   -3.6725    2.1419    4.7514 N   0  0  0  0  0  0  0  0  0  0  0  0
    8.4212    3.5071   -5.3326 H   0  0  0  0  0  0  0  0  0  0  0  0
   10.2543    8.9443   -4.9643 H   0  0  0  0  0  0  0  0  0  0  0  0
    5.1745    5.4848   -4.7508 H   0  0  0  0  0  0  0  0  0  0  0  0
    1.8382    5.9261   -3.3387 H   0  0  0  0  0  0  0  0  0  0  0  0
    2.8939    6.6162   -4.5800 H   0  0  0  0  0  0  0  0  0  0  0  0
    1.8312    5.1224   -6.2889 H   0  0  0  0  0  0  0  0  0  0  0  0
    0.6246    6.1362   -5.4911 H   0  0  0  0  0  0  0  0  0  0  0  0
    0.7901    4.4367   -5.0377 H   0  0  0  0  0  0  0  0  0  0  0  0
    8.5081   -2.5105   -3.1730 H   0  0  0  0  0  0  0  0  0  0  0  0
    9.6097   -1.7042   -4.3002 H   0  0  0  0  0  0  0  0  0  0  0  0
    9.5367   -1.2267   -1.2812 H   0  0  0  0  0  0  0  0  0  0  0  0
   10.6278   -0.4309   -2.4190 H   0  0  0  0  0  0  0  0  0  0  0  0
   10.7535   -2.1718   -2.1461 H   0  0  0  0  0  0  0  0  0  0  0  0
    6.2657   -1.3146   -2.7791 H   0  0  0  0  0  0  0  0  0  0  0  0
    4.5507   -3.5635   -3.8682 H   0  0  0  0  0  0  0  0  0  0  0  0
    5.9115   -4.3468   -5.7628 H   0  0  0  0  0  0  0  0  0  0  0  0
    6.5140   -2.8005   -7.5795 H   0  0  0  0  0  0  0  0  0  0  0  0
    4.9429    0.3997   -8.1350 H   0  0  0  0  0  0  0  0  0  0  0  0
    6.1682   -0.7362   -8.7165 H   0  0  0  0  0  0  0  0  0  0  0  0
    6.5702    1.3688   -6.5359 H   0  0  0  0  0  0  0  0  0  0  0  0
    7.2145    1.4439   -8.1766 H   0  0  0  0  0  0  0  0  0  0  0  0
    7.7968    0.2123   -7.0554 H   0  0  0  0  0  0  0  0  0  0  0  0
    4.2994    0.3016   -5.6716 H   0  0  0  0  0  0  0  0  0  0  0  0
   -5.5878   -7.2520    4.2775 H   0  0  0  0  0  0  0  0  0  0  0  0
   -7.0340   -9.2269    4.5384 H   0  0  0  0  0  0  0  0  0  0  0  0
   -9.4831   -8.9820    4.5081 H   0  0  0  0  0  0  0  0  0  0  0  0
  -11.2206   -5.9175    3.5144 H   0  0  0  0  0  0  0  0  0  0  0  0
  -11.4056   -7.6323    3.9090 H   0  0  0  0  0  0  0  0  0  0  0  0
  -11.1266   -7.0914    6.3362 H   0  0  0  0  0  0  0  0  0  0  0  0
  -10.9722   -5.3808    5.9334 H   0  0  0  0  0  0  0  0  0  0  0  0
  -12.4948   -6.2229    5.6331 H   0  0  0  0  0  0  0  0  0  0  0  0
   -9.0558   -4.7864    3.8825 H   0  0  0  0  0  0  0  0  0  0  0  0
    0.9410    0.0268    0.4295 H   0  0  0  0  0  0  0  0  0  0  0  0
   -0.5437   -0.3209    1.3067 H   0  0  0  0  0  0  0  0  0  0  0  0
    2.0752   -1.8839    1.5351 H   0  0  0  0  0  0  0  0  0  0  0  0
    1.4183   -0.7784    2.7451 H   0  0  0  0  0  0  0  0  0  0  0  0
    0.5885   -2.3016    2.3884 H   0  0  0  0  0  0  0  0  0  0  0  0
   -2.3989   -0.5783    1.0069 H   0  0  0  0  0  0  0  0  0  0  0  0
   -3.9270   -0.9616    1.7893 H   0  0  0  0  0  0  0  0  0  0  0  0
   -2.5446    0.3348    3.3527 H   0  0  0  0  0  0  0  0  0  0  0  0
   -1.2602   -0.8825    3.2901 H   0  0  0  0  0  0  0  0  0  0  0  0
   -2.8313   -1.2847    3.9699 H   0  0  0  0  0  0  0  0  0  0  0  0
   -8.0236   -4.1397    5.8984 H   0  0  0  0  0  0  0  0  0  0  0  0
   -8.3589   -2.2266    7.2121 H   0  0  0  0  0  0  0  0  0  0  0  0
   -6.3368   -0.7646    5.4195 H   0  0  0  0  0  0  0  0  0  0  0  0
   -7.7584    0.0994    7.9880 H   0  0  0  0  0  0  0  0  0  0  0  0
   -5.6802    1.2840    6.0562 H   0  0  0  0  0  0  0  0  0  0  0  0
   -4.5819    6.3877    8.5149 H   0  0  0  0  0  0  0  0  0  0  0  0
  1  2  2  0  0  0  0
  2  3  1  0  0  0  0
  3  4  2  0  0  0  0
  3  5  1  0  0  0  0
  5  6  1  0  0  0  0
  6  7  1  0  0  0  0
  7  8  1  0  0  0  0
  7  9  2  0  0  0  0
  9 10  1  0  0  0  0
 10 11  1  0  0  0  0
 11 12  2  0  0  0  0
 12 13  1  0  0  0  0
 13 14  3  0  0  0  0
 12 15  1  0  0  0  0
 15 16  3  0  0  0  0
  1 17  1  0  0  0  0
 17 18  2  0  0  0  0
 18 19  1  0  0  0  0
 19 20  2  0  0  0  0
 20 21  1  0  0  0  0
 21 22  1  0  0  0  0
 20 23  1  0  0  0  0
 23 24  1  0  0  0  0
 24 25  2  0  0  0  0
 25 26  1  0  0  0  0
 26 27  2  0  0  0  0
 27 28  1  0  0  0  0
 28 29  1  0  0  0  0
 29 30  1  0  0  0  0
 30 31  1  0  0  0  0
 29 32  2  0  0  0  0
 25 33  1  0  0  0  0
 33 34  2  0  0  0  0
 34 35  1  0  0  0  0
 35 36  2  0  0  0  0
 36 37  1  0  0  0  0
 37 38  2  0  0  0  0
 38 39  1  0  0  0  0
 39 40  1  0  0  0  0
 40 41  1  0  0  0  0
 39 42  2  0  0  0  0
 34 43  1  0  0  0  0
 43 44  1  0  0  0  0
 44 45  1  0  0  0  0
 45 46  1  0  0  0  0
 46 47  1  0  0  0  0
 47 48  1  0  0  0  0
 48 49  2  0  0  0  0
 49 50  1  0  0  0  0
 50 51  1  0  0  0  0
 48 52  1  0  0  0  0
 52 53  1  0  0  0  0
 53 54  1  0  0  0  0
 54 55  1  0  0  0  0
 55 56  1  0  0  0  0
 56 57  1  0  0  0  0
 57 58  2  0  0  0  0
 58 59  1  0  0  0  0
 59 60  2  0  0  0  0
 60 61  1  0  0  0  0
 61 62  1  0  0  0  0
 62 63  1  0  0  0  0
 61 64  2  0  0  0  0
 56 65  2  0  0  0  0
 65 66  1  0  0  0  0
 66 67  1  0  0  0  0
 67 68  1  0  0  0  0
 68 69  1  0  0  0  0
 69 70  1  0  0  0  0
 70 71  1  0  0  0  0
 71 72  1  0  0  0  0
 72 73  1  0  0  0  0
 73 74  1  0  0  0  0
 74 75  1  0  0  0  0
 72 76  1  0  0  0  0
 76 77  1  0  0  0  0
 69 78  1  0  0  0  0
 78 79  1  0  0  0  0
 65 80  1  0  0  0  0
 80 81  2  0  0  0  0
 81 82  1  0  0  0  0
 82 83  2  0  0  0  0
 83 84  1  0  0  0  0
 84 85  2  0  0  0  0
 85 86  1  0  0  0  0
 86 87  2  0  0  0  0
 86 88  1  0  0  0  0
 88 89  1  0  0  0  0
 89 90  1  0  0  0  0
 90 91  1  0  0  0  0
 90 92  2  0  0  0  0
 92 93  1  0  0  0  0
 93 94  1  0  0  0  0
 94 95  2  0  0  0  0
 95 96  1  0  0  0  0
 96 97  3  0  0  0  0
 95 98  1  0  0  0  0
 98 99  3  0  0  0  0
 11  2  1  0  0  0  0
 27 17  1  0  0  0  0
 75 33  1  0  0  0  0
 94 85  1  0  0  0  0
 10  5  2  0  0  0  0
 24 18  1  0  0  0  0
 32 26  1  0  0  0  0
 42 35  1  0  0  0  0
 74 43  2  0  0  0  0
 93 88  2  0  0  0  0
 73 45  2  0  0  0  0
 71 46  2  0  0  0  0
 51 47  2  0  0  0  0
 70 52  2  0  0  0  0
 68 53  2  0  0  0  0
 67 55  2  0  0  0  0
 64 57  1  0  0  0  0
  1100  1  0  0  0  0
  9101  1  0  0  0  0
 19102  1  0  0  0  0
 21103  1  0  0  0  0
 21104  1  0  0  0  0
 22105  1  0  0  0  0
 22106  1  0  0  0  0
 22107  1  0  0  0  0
 30108  1  0  0  0  0
 30109  1  0  0  0  0
 31110  1  0  0  0  0
 31111  1  0  0  0  0
 31112  1  0  0  0  0
 32113  1  0  0  0  0
 36114  1  0  0  0  0
 37115  1  0  0  0  0
 38116  1  0  0  0  0
 40117  1  0  0  0  0
 40118  1  0  0  0  0
 41119  1  0  0  0  0
 41120  1  0  0  0  0
 41121  1  0  0  0  0
 42122  1  0  0  0  0
 58123  1  0  0  0  0
 59124  1  0  0  0  0
 60125  1  0  0  0  0
 62126  1  0  0  0  0
 62127  1  0  0  0  0
 63128  1  0  0  0  0
 63129  1  0  0  0  0
 63130  1  0  0  0  0
 64131  1  0  0  0  0
 76132  1  0  0  0  0
 76133  1  0  0  0  0
 77134  1  0  0  0  0
 77135  1  0  0  0  0
 77136  1  0  0  0  0
 78137  1  0  0  0  0
 78138  1  0  0  0  0
 79139  1  0  0  0  0
 79140  1  0  0  0  0
 79141  1  0  0  0  0
 80142  1  0  0  0  0
 81143  1  0  0  0  0
 82144  1  0  0  0  0
 83145  1  0  0  0  0
 84146  1  0  0  0  0
 92147  1  0  0  0  0
M  END
