221

C         11.89230        1.14930        4.18880
C         12.27550        2.32770        4.77150
C         13.69880        2.53300        5.14850
O         14.64290        1.83350        4.85290
C         13.66320        3.73820        5.98060
S         14.79140        4.64920        6.89240
C         13.52130        5.75640        7.33860
Cl        13.86310        7.08490        8.34900
C         12.30030        5.44400        6.80600
C         12.38520        4.27580        6.02930
C         11.51210        3.48210        5.17980
C         10.31410        3.92280        4.67090
C          9.69330        5.09820        5.13300
N          9.15940        6.04190        5.51090
C          9.65190        3.31510        3.58810
N          9.12140        2.89350        2.65960
C         10.59740        0.60890        4.13830
C         10.04760       -0.25490        3.17610
N         10.68860       -0.75310        2.07710
C         12.04050       -1.12620        2.10770
C         12.86800       -0.85660        1.02170
C         14.19760       -1.22790        1.05770
C         14.73560       -1.86990        2.16680
C         16.18630       -2.23130        2.22230
C         13.89760       -2.14650        3.24180
C         12.56570       -1.78630        3.21730
C          9.96760       -0.88680        0.87210
C          9.11280        0.13000        0.45420
C          8.39840       -0.01490       -0.71780
C          8.52460       -1.15720       -1.50070
C          7.72190       -1.31290       -2.75540
C          9.39630       -2.15510       -1.08200
C         10.11170       -2.02910        0.09270
C          8.67120       -0.46820        3.42700
S          7.42500       -1.33960        2.60380
C          6.26060       -0.86300        3.82680
C          6.80460       -0.02740        4.79260
N          6.09390        0.62820        5.78070
C          6.71270        0.87350        7.01500
C          6.52000        2.08570        7.67430
C          7.14050        2.32110        8.88300
C          7.97010        1.36760        9.46560
C          8.63370        1.64560       10.77970
C          8.15830        0.16460        8.80010
C          7.53950       -0.08630        7.59060
C          4.79550        1.09510        5.52940
C          3.82700        1.05390        6.52850
C          2.52460        1.41740        6.24950
C          2.15000        1.83800        4.97930
C          0.71920        2.15160        4.66340
C          3.13700        1.94160        4.00690
C          4.44410        1.58600        4.27380
C          8.18910        0.15150        4.56830
S          9.42070        1.03450        5.38900
C          4.88270       -1.23550        3.71260
C          4.04390       -1.67590        4.71670
C          4.50780       -2.15650        6.01590
C          5.72010       -2.83490        6.13200
C          6.14410       -3.28830        7.36570
C          5.37410       -3.07060        8.49540
C          4.15500       -2.41410        8.39680
C          3.27650       -2.21840        9.59850
C          2.18800       -3.29230        9.64380
C          3.72840       -1.97420        7.15310
C          2.69560       -1.65250        4.29440
S          1.18760       -2.01590        5.09670
C          0.33440       -1.58990        3.65200
C         -0.98550       -1.45320        3.19020
C         -2.22000       -1.60830        3.85610
C         -3.43110       -1.29950        3.15210
N         -4.50760       -1.44390        3.90930
S         -4.03770       -1.93010        5.38040
N         -2.44170       -1.97370        5.10930
C         -3.35530       -0.94020        1.78930
C         -4.36490       -0.69500        0.84460
S         -6.09250       -0.60800        0.75770
C         -5.96450       -0.31480       -0.96070
C         -6.93180       -0.08340       -1.95760
C         -8.36520       -0.00990       -1.65250
C         -8.98520       -1.06320       -0.98940
C        -10.32760       -0.97750       -0.66780
C        -11.05000        0.15840       -0.98400
C        -10.44100        1.22720       -1.63220
C        -11.21370        2.48130       -1.91820
C        -11.21620        3.39660       -0.69280
C         -9.09870        1.13060       -1.96420
C         -6.33940        0.10100       -3.19430
S         -4.58470        0.02010       -3.11850
C         -4.64620       -0.28430       -1.42030
C         -3.73060       -0.49960       -0.38360
N         -2.37260       -0.58480       -0.23310
C         -2.11150       -0.85000        1.10210
C         -0.90840       -1.01230        1.83900
N          0.43050       -0.85660        1.50930
C          1.17200       -1.20300        2.60660
C          2.52380       -1.23760        2.97480
S          4.03300       -0.88380        2.21670
C          1.04340       -0.05990        0.46980
C          0.55250        1.38500        0.51260
C         -1.54060       -0.76040       -1.40180
C         -0.99850       -2.18440       -1.49710
C         -6.94410        0.24880       -4.47410
C         -8.24210        0.02710       -4.83900
C         -8.48500        0.21610       -6.21790
C         -9.70910        0.07300       -6.90350
C        -10.94580       -0.22470       -6.21120
C        -11.93300       -1.09960       -6.57220
C        -13.02180       -1.12020       -5.68280
C        -12.86690       -0.25250       -4.64010
S        -13.93900        0.08660       -3.30030
C        -14.67010       -1.56180       -2.99080
C        -13.62580       -2.57360       -2.56540
S        -11.36530        0.60530       -4.73660
C         -9.66520        0.23010       -8.28100
C         -8.48440        0.54980       -8.99830
C         -7.27150        0.76190       -8.30260
C         -6.07690        1.19010       -8.98930
C         -5.95640        2.09500      -10.01180
C         -4.63100        2.32860      -10.40780
C         -3.72630        1.59170       -9.69330
S         -2.00280        1.59410       -9.95050
C         -1.38660        0.78390       -8.43140
C         -1.50780        1.67300       -7.20970
S         -4.51170        0.58830       -8.51530
C         -7.30770        0.55640       -6.92830
S         -5.95100        0.70010       -5.84540
C         -8.71090        0.58710      -10.38900
C        -10.00590        0.31620      -10.75320
S        -11.03040        0.07330       -9.34690
C        -10.51350        0.31130      -12.07720
C        -11.66750       -0.23260      -12.54330
C        -12.24640        0.25440      -13.83470
O        -11.69210        0.92770      -14.67110
C        -13.62410       -0.23120      -13.79250
S        -15.02030       -0.07340      -14.77210
C        -15.90200       -1.08690      -13.66110
Cl       -17.53950       -1.44880      -13.95300
C        -15.15700       -1.52900      -12.60120
C        -13.84640       -1.02830      -12.67630
C        -12.60090       -1.16900      -11.94540
C        -12.32050       -2.18160      -11.06730
C        -11.01730       -2.52470      -10.64980
N         -9.97260       -2.89280      -10.34810
C        -13.32120       -3.04220      -10.57420
N        -14.12510       -3.73170      -10.13230
H         12.70380        0.55960        3.77630
H         11.40920        6.01890        6.97570
H         12.46460       -0.34710        0.15940
H         14.83140       -1.00390        0.21220
H         16.72850       -1.47720        2.79340
H         16.61640       -2.27710        1.22500
H         16.32890       -3.19040        2.71560
H         14.29500       -2.65090        4.11010
H         11.92280       -2.01030        4.05630
H          9.02030        1.02930        1.04530
H          7.73600        0.77730       -1.03410
H          8.18770       -2.02650       -3.43060
H          7.61460       -0.35900       -3.26720
H          6.72320       -1.67720       -2.51230
H          9.51210       -3.04820       -1.67880
H         10.78080       -2.81380        0.41390
H          5.88900        2.84010        7.22820
H          6.98780        3.26730        9.38160
H          9.23040        2.55480       10.71910
H          9.28150        0.82280       11.07080
H          7.88600        1.79120       11.55880
H          8.79430       -0.59360        9.23360
H          7.68270       -1.03330        7.09250
H          4.10210        0.71600        7.51620
H          1.77930        1.35600        7.02940
H          0.64760        2.94420        3.92110
H          0.18300        2.45920        5.55760
H          0.22140        1.26530        4.26490
H          2.88310        2.30610        3.02140
H          5.19840        1.68290        3.50650
H          6.31730       -3.02160        5.25160
H          7.08220       -3.81850        7.44830
H          5.71890       -3.41960        9.45800
H          3.87620       -2.26870       10.50940
H          2.80530       -1.23410        9.55320
H          1.57380       -3.24580        8.74750
H          1.54890       -3.14950       10.51190
H          2.63610       -4.28190        9.70110
H          2.78120       -1.46380        7.07090
H         -8.41850       -1.94800       -0.74090
H        -10.80680       -1.80220       -0.16010
H        -12.09760        0.22530       -0.72940
H        -10.76560        3.00710       -2.76330
H        -12.24220        2.22590       -2.18100
H        -11.67320        2.89270        0.15570
H        -10.19840        3.66850       -0.42100
H        -11.77600        4.30550       -0.89970
H         -8.60960        1.95250       -2.46790
H          2.11920       -0.07930        0.66070
H          0.88500       -0.51150       -0.50970
H          0.80240        1.82900        1.47320
H          1.03070        1.96360       -0.27330
H         -0.52610        1.44040        0.38540
H         -2.17720       -0.55980       -2.26730
H         -0.73830       -0.02210       -1.41830
H         -1.82250       -2.88900       -1.58260
H         -0.36640       -2.28310       -2.37550
H         -0.41980       -2.44580       -0.61440
H         -8.99070       -0.29580       -4.14130
H        -11.86930       -1.74070       -7.43320
H        -13.88010       -1.75240       -5.81950
H        -15.20070       -1.87180       -3.88960
H        -15.39400       -1.38080       -2.19670
H        -14.10420       -3.52550       -2.34440
H        -12.89480       -2.72830       -3.35670
H        -13.10240       -2.22840       -1.67710
H         -6.79520        2.62560      -10.42530
H         -4.34170        3.01840      -11.17890
H         -0.34370        0.56090       -8.65480
H         -1.93680       -0.14920       -8.31140
H         -2.54980        1.89640       -6.99310
H         -0.97460        2.60780       -7.36620
H         -1.08170        1.16600       -6.34650
H         -7.93420        0.74240      -11.11580
H         -9.94360        0.88570      -12.80110
H        -15.54060       -2.16310      -11.82400
