
  xtb     02262203253D
 energy: -322.460304594835 gnorm: 0.000469248852 xtb: 6.4.1 (unknown)
187207  0     0  0            999 V2000
    4.5021   -4.5068   12.9128 C   0  0  0  0  0  0  0  0  0  0  0  0
    5.8542   -4.3719   12.9620 C   0  0  0  0  0  0  0  0  0  0  0  0
    6.7723   -3.9980   11.8408 C   0  0  0  0  0  0  0  0  0  0  0  0
    6.4923   -3.6396   10.7193 O   0  0  0  0  0  0  0  0  0  0  0  0
    8.1072   -4.2318   12.3875 C   0  0  0  0  0  0  0  0  0  0  0  0
    9.7087   -4.1035   11.7970 S   0  0  0  0  0  0  0  0  0  0  0  0
   10.3071   -4.6599   13.3373 C   0  0  0  0  0  0  0  0  0  0  0  0
   11.9825   -4.8229   13.5925 Cl  0  0  0  0  0  0  0  0  0  0  0  0
    9.3245   -4.9290   14.2506 C   0  0  0  0  0  0  0  0  0  0  0  0
    8.0543   -4.6829   13.6978 C   0  0  0  0  0  0  0  0  0  0  0  0
    6.6676   -4.7643   14.1093 C   0  0  0  0  0  0  0  0  0  0  0  0
    6.2532   -5.1045   15.3690 C   0  0  0  0  0  0  0  0  0  0  0  0
    4.9213   -5.1375   15.8300 C   0  0  0  0  0  0  0  0  0  0  0  0
    3.8693   -5.1806   16.2887 N   0  0  0  0  0  0  0  0  0  0  0  0
    7.1734   -5.4563   16.3803 C   0  0  0  0  0  0  0  0  0  0  0  0
    7.9028   -5.7493   17.2158 N   0  0  0  0  0  0  0  0  0  0  0  0
    3.5640   -4.1263   11.8956 C   0  0  0  0  0  0  0  0  0  0  0  0
    2.3636   -4.8530   11.8070 C   0  0  0  0  0  0  0  0  0  0  0  0
    1.4178   -4.5595   10.8575 C   0  0  0  0  0  0  0  0  0  0  0  0
    1.6072   -3.4874    9.9734 C   0  0  0  0  0  0  0  0  0  0  0  0
    2.7875   -2.7419   10.0818 C   0  0  0  0  0  0  0  0  0  0  0  0
    3.7449   -3.0486   11.0188 C   0  0  0  0  0  0  0  0  0  0  0  0
    0.6408   -3.1770    8.9503 C   0  0  0  0  0  0  0  0  0  0  0  0
   -0.7177   -3.4278    8.9099 C   0  0  0  0  0  0  0  0  0  0  0  0
   -1.5460   -3.8889   10.0263 C   0  0  0  0  0  0  0  0  0  0  0  0
   -1.4009   -3.3334   11.2962 C   0  0  0  0  0  0  0  0  0  0  0  0
   -2.2284   -3.7417   12.3234 C   0  0  0  0  0  0  0  0  0  0  0  0
   -3.2079   -4.6943   12.0967 C   0  0  0  0  0  0  0  0  0  0  0  0
   -3.3706   -5.2535   10.8362 C   0  0  0  0  0  0  0  0  0  0  0  0
   -4.4666   -6.2416   10.5610 C   0  0  0  0  0  0  0  0  0  0  0  0
   -5.6854   -5.5268    9.9737 C   0  0  0  0  0  0  0  0  0  0  0  0
   -2.5346   -4.8417    9.8085 C   0  0  0  0  0  0  0  0  0  0  0  0
   -1.2677   -3.0772    7.6587 C   0  0  0  0  0  0  0  0  0  0  0  0
   -2.8922   -3.1579    7.0179 S   0  0  0  0  0  0  0  0  0  0  0  0
   -2.3152   -2.4789    5.5348 C   0  0  0  0  0  0  0  0  0  0  0  0
   -2.8154   -2.0644    4.2900 C   0  0  0  0  0  0  0  0  0  0  0  0
   -4.1364   -1.9856    3.8000 C   0  0  0  0  0  0  0  0  0  0  0  0
   -4.3642   -1.3827    2.5179 C   0  0  0  0  0  0  0  0  0  0  0  0
   -5.6506   -1.3174    2.2112 N   0  0  0  0  0  0  0  0  0  0  0  0
   -6.5011   -1.9666    3.4261 S   0  0  0  0  0  0  0  0  0  0  0  0
   -5.2612   -2.3533    4.3939 N   0  0  0  0  0  0  0  0  0  0  0  0
   -3.2528   -0.9999    1.7369 C   0  0  0  0  0  0  0  0  0  0  0  0
   -3.1728   -0.5302    0.4144 C   0  0  0  0  0  0  0  0  0  0  0  0
   -4.2188   -0.0856   -0.8915 S   0  0  0  0  0  0  0  0  0  0  0  0
   -2.8185    0.2312   -1.8852 C   0  0  0  0  0  0  0  0  0  0  0  0
   -2.6584    0.6928   -3.2116 C   0  0  0  0  0  0  0  0  0  0  0  0
   -3.7374    0.8931   -4.1764 C   0  0  0  0  0  0  0  0  0  0  0  0
   -5.0010    1.3101   -3.7664 C   0  0  0  0  0  0  0  0  0  0  0  0
   -6.0019    1.5059   -4.6989 C   0  0  0  0  0  0  0  0  0  0  0  0
   -5.7650    1.2765   -6.0422 C   0  0  0  0  0  0  0  0  0  0  0  0
   -4.5221    0.8245   -6.4680 C   0  0  0  0  0  0  0  0  0  0  0  0
   -4.2739    0.5012   -7.9141 C   0  0  0  0  0  0  0  0  0  0  0  0
   -4.6199   -0.9610   -8.2009 C   0  0  0  0  0  0  0  0  0  0  0  0
   -3.5228    0.6318   -5.5281 C   0  0  0  0  0  0  0  0  0  0  0  0
   -1.3214    0.8580   -3.5162 C   0  0  0  0  0  0  0  0  0  0  0  0
   -0.2548    0.3409   -2.2210 S   0  0  0  0  0  0  0  0  0  0  0  0
   -1.6163   -0.0057   -1.2197 C   0  0  0  0  0  0  0  0  0  0  0  0
   -1.8190   -0.4432    0.0959 C   0  0  0  0  0  0  0  0  0  0  0  0
   -1.0511   -0.8088    1.1723 N   0  0  0  0  0  0  0  0  0  0  0  0
   -1.9175   -1.1562    2.2014 C   0  0  0  0  0  0  0  0  0  0  0  0
   -1.7061   -1.5816    3.5395 C   0  0  0  0  0  0  0  0  0  0  0  0
   -0.5778   -1.6572    4.3363 N   0  0  0  0  0  0  0  0  0  0  0  0
   -0.9457   -2.2078    5.5358 C   0  0  0  0  0  0  0  0  0  0  0  0
   -0.3459   -2.5426    6.7572 C   0  0  0  0  0  0  0  0  0  0  0  0
    1.2306   -2.4638    7.4556 S   0  0  0  0  0  0  0  0  0  0  0  0
    0.6951   -0.9832    4.2220 C   0  0  0  0  0  0  0  0  0  0  0  0
    1.8473   -1.9576    3.9812 C   0  0  0  0  0  0  0  0  0  0  0  0
    0.2938   -1.2762    0.9137 C   0  0  0  0  0  0  0  0  0  0  0  0
    0.3067   -2.7795    0.6436 C   0  0  0  0  0  0  0  0  0  0  0  0
   -0.7618    1.5351   -4.6482 C   0  0  0  0  0  0  0  0  0  0  0  0
   -1.1174    2.7925   -5.1186 C   0  0  0  0  0  0  0  0  0  0  0  0
   -2.0418    3.6374   -4.5347 N   0  0  0  0  0  0  0  0  0  0  0  0
   -2.2325    3.6317   -3.1444 C   0  0  0  0  0  0  0  0  0  0  0  0
   -1.1553    3.4668   -2.2781 C   0  0  0  0  0  0  0  0  0  0  0  0
   -1.3664    3.3471   -0.9177 C   0  0  0  0  0  0  0  0  0  0  0  0
   -2.6452    3.4074   -0.3818 C   0  0  0  0  0  0  0  0  0  0  0  0
   -2.8910    3.2108    1.0825 C   0  0  0  0  0  0  0  0  0  0  0  0
   -3.7075    3.6493   -1.2465 C   0  0  0  0  0  0  0  0  0  0  0  0
   -3.5110    3.7632   -2.6070 C   0  0  0  0  0  0  0  0  0  0  0  0
   -2.8097    4.4876   -5.3461 C   0  0  0  0  0  0  0  0  0  0  0  0
   -3.2617    4.0647   -6.5923 C   0  0  0  0  0  0  0  0  0  0  0  0
   -4.0076    4.9139   -7.3857 C   0  0  0  0  0  0  0  0  0  0  0  0
   -4.3290    6.1961   -6.9613 C   0  0  0  0  0  0  0  0  0  0  0  0
   -5.1195    7.1241   -7.8318 C   0  0  0  0  0  0  0  0  0  0  0  0
   -3.8781    6.6083   -5.7121 C   0  0  0  0  0  0  0  0  0  0  0  0
   -3.1251    5.7731   -4.9130 C   0  0  0  0  0  0  0  0  0  0  0  0
   -0.3508    3.1279   -6.2610 C   0  0  0  0  0  0  0  0  0  0  0  0
   -0.2598    4.5312   -7.2571 S   0  0  0  0  0  0  0  0  0  0  0  0
    1.0181    3.7864   -8.2337 C   0  0  0  0  0  0  0  0  0  0  0  0
    1.4103    2.5319   -7.7195 C   0  0  0  0  0  0  0  0  0  0  0  0
    2.4903    1.7877   -8.0977 N   0  0  0  0  0  0  0  0  0  0  0  0
    2.4860    0.3980   -7.8379 C   0  0  0  0  0  0  0  0  0  0  0  0
    1.3898   -0.3806   -8.1959 C   0  0  0  0  0  0  0  0  0  0  0  0
    1.3939   -1.7344   -7.9287 C   0  0  0  0  0  0  0  0  0  0  0  0
    2.4811   -2.3405   -7.3077 C   0  0  0  0  0  0  0  0  0  0  0  0
    2.4570   -3.8057   -6.9994 C   0  0  0  0  0  0  0  0  0  0  0  0
    3.5768   -1.5549   -6.9728 C   0  0  0  0  0  0  0  0  0  0  0  0
    3.5861   -0.1980   -7.2329 C   0  0  0  0  0  0  0  0  0  0  0  0
    3.6266    2.3325   -8.7086 C   0  0  0  0  0  0  0  0  0  0  0  0
    4.1277    3.5788   -8.3335 C   0  0  0  0  0  0  0  0  0  0  0  0
    5.2201    4.1119   -8.9839 C   0  0  0  0  0  0  0  0  0  0  0  0
    5.8512    3.4250  -10.0189 C   0  0  0  0  0  0  0  0  0  0  0  0
    6.9977    4.0472  -10.7514 C   0  0  0  0  0  0  0  0  0  0  0  0
    5.3804    2.1616  -10.3492 C   0  0  0  0  0  0  0  0  0  0  0  0
    4.2840    1.6165   -9.7075 C   0  0  0  0  0  0  0  0  0  0  0  0
    0.5875    2.1722   -6.6266 C   0  0  0  0  0  0  0  0  0  0  0  0
    0.5644    0.8184   -5.5464 S   0  0  0  0  0  0  0  0  0  0  0  0
    1.4829    4.5267   -9.3229 C   0  0  0  0  0  0  0  0  0  0  0  0
    2.1171    4.0232  -10.4383 C   0  0  0  0  0  0  0  0  0  0  0  0
    1.9482    2.6392  -10.9268 C   0  0  0  0  0  0  0  0  0  0  0  0
    1.2492    1.7644  -10.4530 O   0  0  0  0  0  0  0  0  0  0  0  0
    2.7092    2.6123  -12.1799 C   0  0  0  0  0  0  0  0  0  0  0  0
    3.0863    1.4427  -13.3692 S   0  0  0  0  0  0  0  0  0  0  0  0
    4.0366    2.6317  -14.2210 C   0  0  0  0  0  0  0  0  0  0  0  0
    4.8401    2.2091  -15.6639 Cl  0  0  0  0  0  0  0  0  0  0  0  0
    4.0534    3.8594  -13.6194 C   0  0  0  0  0  0  0  0  0  0  0  0
    3.2841    3.8435  -12.4421 C   0  0  0  0  0  0  0  0  0  0  0  0
    2.9413    4.7548  -11.3632 C   0  0  0  0  0  0  0  0  0  0  0  0
    3.4617    6.0150  -11.2044 C   0  0  0  0  0  0  0  0  0  0  0  0
    4.3516    6.5725  -12.1411 C   0  0  0  0  0  0  0  0  0  0  0  0
    5.0932    7.0360  -12.8855 N   0  0  0  0  0  0  0  0  0  0  0  0
    3.2355    6.8369  -10.0849 C   0  0  0  0  0  0  0  0  0  0  0  0
    3.1131    7.5409   -9.1856 N   0  0  0  0  0  0  0  0  0  0  0  0
    4.0426   -5.0145   13.7540 H   0  0  0  0  0  0  0  0  0  0  0  0
    9.5192   -5.2824   15.2457 H   0  0  0  0  0  0  0  0  0  0  0  0
    2.2010   -5.6831   12.4793 H   0  0  0  0  0  0  0  0  0  0  0  0
    0.5269   -5.1627   10.7813 H   0  0  0  0  0  0  0  0  0  0  0  0
    2.9414   -1.9023    9.4191 H   0  0  0  0  0  0  0  0  0  0  0  0
    4.6278   -2.4375   11.0914 H   0  0  0  0  0  0  0  0  0  0  0  0
   -0.6469   -2.5795   11.4681 H   0  0  0  0  0  0  0  0  0  0  0  0
   -2.1138   -3.3101   13.3067 H   0  0  0  0  0  0  0  0  0  0  0  0
   -3.8534   -5.0044   12.9057 H   0  0  0  0  0  0  0  0  0  0  0  0
   -4.1167   -6.9949    9.8519 H   0  0  0  0  0  0  0  0  0  0  0  0
   -4.7527   -6.7474   11.4851 H   0  0  0  0  0  0  0  0  0  0  0  0
   -6.0591   -4.7819   10.6728 H   0  0  0  0  0  0  0  0  0  0  0  0
   -6.4806   -6.2392    9.7672 H   0  0  0  0  0  0  0  0  0  0  0  0
   -5.4192   -5.0228    9.0475 H   0  0  0  0  0  0  0  0  0  0  0  0
   -2.6451   -5.2786    8.8266 H   0  0  0  0  0  0  0  0  0  0  0  0
   -5.1923    1.4962   -2.7216 H   0  0  0  0  0  0  0  0  0  0  0  0
   -6.9754    1.8423   -4.3739 H   0  0  0  0  0  0  0  0  0  0  0  0
   -6.5508    1.4400   -6.7654 H   0  0  0  0  0  0  0  0  0  0  0  0
   -3.2238    0.6744   -8.1612 H   0  0  0  0  0  0  0  0  0  0  0  0
   -4.8852    1.1476   -8.5472 H   0  0  0  0  0  0  0  0  0  0  0  0
   -5.6678   -1.1522   -7.9808 H   0  0  0  0  0  0  0  0  0  0  0  0
   -4.0151   -1.6201   -7.5818 H   0  0  0  0  0  0  0  0  0  0  0  0
   -4.4344   -1.1978   -9.2459 H   0  0  0  0  0  0  0  0  0  0  0  0
   -2.5620    0.2572   -5.8514 H   0  0  0  0  0  0  0  0  0  0  0  0
    0.8766   -0.4599    5.1680 H   0  0  0  0  0  0  0  0  0  0  0  0
    0.6230   -0.2254    3.4407 H   0  0  0  0  0  0  0  0  0  0  0  0
    1.9827   -2.5932    4.8520 H   0  0  0  0  0  0  0  0  0  0  0  0
    1.6579   -2.5959    3.1231 H   0  0  0  0  0  0  0  0  0  0  0  0
    2.7685   -1.4054    3.8163 H   0  0  0  0  0  0  0  0  0  0  0  0
    0.6453   -0.7407    0.0279 H   0  0  0  0  0  0  0  0  0  0  0  0
    0.9622   -1.0344    1.7343 H   0  0  0  0  0  0  0  0  0  0  0  0
   -0.0734   -3.3260    1.5045 H   0  0  0  0  0  0  0  0  0  0  0  0
   -0.3215   -3.0119   -0.2133 H   0  0  0  0  0  0  0  0  0  0  0  0
    1.3195   -3.1112    0.4311 H   0  0  0  0  0  0  0  0  0  0  0  0
   -0.1517    3.4174   -2.6755 H   0  0  0  0  0  0  0  0  0  0  0  0
   -0.5185    3.1954   -0.2646 H   0  0  0  0  0  0  0  0  0  0  0  0
   -1.9562    3.0709    1.6199 H   0  0  0  0  0  0  0  0  0  0  0  0
   -3.5176    2.3336    1.2443 H   0  0  0  0  0  0  0  0  0  0  0  0
   -3.4109    4.0704    1.5030 H   0  0  0  0  0  0  0  0  0  0  0  0
   -4.7082    3.7258   -0.8464 H   0  0  0  0  0  0  0  0  0  0  0  0
   -4.3477    3.9290   -3.2686 H   0  0  0  0  0  0  0  0  0  0  0  0
   -3.0377    3.0651   -6.9310 H   0  0  0  0  0  0  0  0  0  0  0  0
   -4.3500    4.5687   -8.3505 H   0  0  0  0  0  0  0  0  0  0  0  0
   -5.7117    6.5692   -8.5554 H   0  0  0  0  0  0  0  0  0  0  0  0
   -5.7824    7.7459   -7.2341 H   0  0  0  0  0  0  0  0  0  0  0  0
   -4.4458    7.7836   -8.3799 H   0  0  0  0  0  0  0  0  0  0  0  0
   -4.1135    7.6036   -5.3636 H   0  0  0  0  0  0  0  0  0  0  0  0
   -2.7738    6.1112   -3.9493 H   0  0  0  0  0  0  0  0  0  0  0  0
    0.5610    0.0847   -8.7060 H   0  0  0  0  0  0  0  0  0  0  0  0
    0.5420   -2.3348   -8.2126 H   0  0  0  0  0  0  0  0  0  0  0  0
    1.8200   -3.9921   -6.1343 H   0  0  0  0  0  0  0  0  0  0  0  0
    3.4544   -4.1744   -6.7742 H   0  0  0  0  0  0  0  0  0  0  0  0
    2.0528   -4.3695   -7.8376 H   0  0  0  0  0  0  0  0  0  0  0  0
    4.4342   -2.0082   -6.4968 H   0  0  0  0  0  0  0  0  0  0  0  0
    4.4413    0.4058   -6.9656 H   0  0  0  0  0  0  0  0  0  0  0  0
    3.6553    4.1313   -7.5352 H   0  0  0  0  0  0  0  0  0  0  0  0
    5.5874    5.0844   -8.6899 H   0  0  0  0  0  0  0  0  0  0  0  0
    7.4441    3.3425  -11.4480 H   0  0  0  0  0  0  0  0  0  0  0  0
    6.6586    4.9182  -11.3129 H   0  0  0  0  0  0  0  0  0  0  0  0
    7.7615    4.3841  -10.0526 H   0  0  0  0  0  0  0  0  0  0  0  0
    5.8658    1.5990  -11.1335 H   0  0  0  0  0  0  0  0  0  0  0  0
    3.9185    0.6398   -9.9875 H   0  0  0  0  0  0  0  0  0  0  0  0
    1.2961    5.5931   -9.2774 H   0  0  0  0  0  0  0  0  0  0  0  0
    4.5847    4.7066  -14.0105 H   0  0  0  0  0  0  0  0  0  0  0  0
  1  2  2  0  0  0  0
  2  3  1  0  0  0  0
  3  4  2  0  0  0  0
  3  5  1  0  0  0  0
  5  6  1  0  0  0  0
  6  7  1  0  0  0  0
  7  8  1  0  0  0  0
  7  9  2  0  0  0  0
  9 10  1  0  0  0  0
 10 11  1  0  0  0  0
 11 12  2  0  0  0  0
 12 13  1  0  0  0  0
 13 14  3  0  0  0  0
 12 15  1  0  0  0  0
 15 16  3  0  0  0  0
  1 17  1  0  0  0  0
 17 18  2  0  0  0  0
 18 19  1  0  0  0  0
 19 20  2  0  0  0  0
 20 21  1  0  0  0  0
 21 22  2  0  0  0  0
 20 23  1  0  0  0  0
 23 24  2  0  0  0  0
 24 25  1  0  0  0  0
 25 26  2  0  0  0  0
 26 27  1  0  0  0  0
 27 28  2  0  0  0  0
 28 29  1  0  0  0  0
 29 30  1  0  0  0  0
 30 31  1  0  0  0  0
 29 32  2  0  0  0  0
 24 33  1  0  0  0  0
 33 34  1  0  0  0  0
 34 35  1  0  0  0  0
 35 36  1  0  0  0  0
 36 37  1  0  0  0  0
 37 38  1  0  0  0  0
 38 39  2  0  0  0  0
 39 40  1  0  0  0  0
 40 41  1  0  0  0  0
 38 42  1  0  0  0  0
 42 43  1  0  0  0  0
 43 44  1  0  0  0  0
 44 45  1  0  0  0  0
 45 46  1  0  0  0  0
 46 47  1  0  0  0  0
 47 48  2  0  0  0  0
 48 49  1  0  0  0  0
 49 50  2  0  0  0  0
 50 51  1  0  0  0  0
 51 52  1  0  0  0  0
 52 53  1  0  0  0  0
 51 54  2  0  0  0  0
 46 55  2  0  0  0  0
 55 56  1  0  0  0  0
 56 57  1  0  0  0  0
 57 58  1  0  0  0  0
 58 59  1  0  0  0  0
 59 60  1  0  0  0  0
 60 61  1  0  0  0  0
 61 62  1  0  0  0  0
 62 63  1  0  0  0  0
 63 64  1  0  0  0  0
 64 65  1  0  0  0  0
 62 66  1  0  0  0  0
 66 67  1  0  0  0  0
 59 68  1  0  0  0  0
 68 69  1  0  0  0  0
 55 70  1  0  0  0  0
 70 71  2  0  0  0  0
 71 72  1  0  0  0  0
 72 73  1  0  0  0  0
 73 74  2  0  0  0  0
 74 75  1  0  0  0  0
 75 76  2  0  0  0  0
 76 77  1  0  0  0  0
 76 78  1  0  0  0  0
 78 79  2  0  0  0  0
 72 80  1  0  0  0  0
 80 81  2  0  0  0  0
 81 82  1  0  0  0  0
 82 83  2  0  0  0  0
 83 84  1  0  0  0  0
 83 85  1  0  0  0  0
 85 86  2  0  0  0  0
 71 87  1  0  0  0  0
 87 88  1  0  0  0  0
 88 89  1  0  0  0  0
 89 90  2  0  0  0  0
 90 91  1  0  0  0  0
 91 92  1  0  0  0  0
 92 93  2  0  0  0  0
 93 94  1  0  0  0  0
 94 95  2  0  0  0  0
 95 96  1  0  0  0  0
 95 97  1  0  0  0  0
 97 98  2  0  0  0  0
 91 99  1  0  0  0  0
 99100  2  0  0  0  0
100101  1  0  0  0  0
101102  2  0  0  0  0
102103  1  0  0  0  0
102104  1  0  0  0  0
104105  2  0  0  0  0
 90106  1  0  0  0  0
106107  1  0  0  0  0
 89108  1  0  0  0  0
108109  2  0  0  0  0
109110  1  0  0  0  0
110111  2  0  0  0  0
110112  1  0  0  0  0
112113  1  0  0  0  0
113114  1  0  0  0  0
114115  1  0  0  0  0
114116  2  0  0  0  0
116117  1  0  0  0  0
117118  1  0  0  0  0
118119  2  0  0  0  0
119120  1  0  0  0  0
120121  3  0  0  0  0
119122  1  0  0  0  0
122123  3  0  0  0  0
 11  2  1  0  0  0  0
 22 17  1  0  0  0  0
 65 23  1  0  0  0  0
107 70  1  0  0  0  0
118109  1  0  0  0  0
 10  5  2  0  0  0  0
 32 25  1  0  0  0  0
 64 33  2  0  0  0  0
 79 73  1  0  0  0  0
 86 80  1  0  0  0  0
106 87  2  0  0  0  0
117112  2  0  0  0  0
 63 35  2  0  0  0  0
 98 92  1  0  0  0  0
105 99  1  0  0  0  0
 61 36  2  0  0  0  0
 41 37  2  0  0  0  0
 60 42  2  0  0  0  0
 58 43  2  0  0  0  0
 57 45  2  0  0  0  0
 54 47  1  0  0  0  0
  1124  1  0  0  0  0
  9125  1  0  0  0  0
 18126  1  0  0  0  0
 19127  1  0  0  0  0
 21128  1  0  0  0  0
 22129  1  0  0  0  0
 26130  1  0  0  0  0
 27131  1  0  0  0  0
 28132  1  0  0  0  0
 30133  1  0  0  0  0
 30134  1  0  0  0  0
 31135  1  0  0  0  0
 31136  1  0  0  0  0
 31137  1  0  0  0  0
 32138  1  0  0  0  0
 48139  1  0  0  0  0
 49140  1  0  0  0  0
 50141  1  0  0  0  0
 52142  1  0  0  0  0
 52143  1  0  0  0  0
 53144  1  0  0  0  0
 53145  1  0  0  0  0
 53146  1  0  0  0  0
 54147  1  0  0  0  0
 66148  1  0  0  0  0
 66149  1  0  0  0  0
 67150  1  0  0  0  0
 67151  1  0  0  0  0
 67152  1  0  0  0  0
 68153  1  0  0  0  0
 68154  1  0  0  0  0
 69155  1  0  0  0  0
 69156  1  0  0  0  0
 69157  1  0  0  0  0
 74158  1  0  0  0  0
 75159  1  0  0  0  0
 77160  1  0  0  0  0
 77161  1  0  0  0  0
 77162  1  0  0  0  0
 78163  1  0  0  0  0
 79164  1  0  0  0  0
 81165  1  0  0  0  0
 82166  1  0  0  0  0
 84167  1  0  0  0  0
 84168  1  0  0  0  0
 84169  1  0  0  0  0
 85170  1  0  0  0  0
 86171  1  0  0  0  0
 93172  1  0  0  0  0
 94173  1  0  0  0  0
 96174  1  0  0  0  0
 96175  1  0  0  0  0
 96176  1  0  0  0  0
 97177  1  0  0  0  0
 98178  1  0  0  0  0
100179  1  0  0  0  0
101180  1  0  0  0  0
103181  1  0  0  0  0
103182  1  0  0  0  0
103183  1  0  0  0  0
104184  1  0  0  0  0
105185  1  0  0  0  0
108186  1  0  0  0  0
116187  1  0  0  0  0
M  END
