187

C          4.50210       -4.50680       12.91280
C          5.85420       -4.37190       12.96200
C          6.77230       -3.99800       11.84080
O          6.49230       -3.63960       10.71930
C          8.10720       -4.23180       12.38750
S          9.70870       -4.10350       11.79700
C         10.30710       -4.65990       13.33730
Cl        11.98250       -4.82290       13.59250
C          9.32450       -4.92900       14.25060
C          8.05430       -4.68290       13.69780
C          6.66760       -4.76430       14.10930
C          6.25320       -5.10450       15.36900
C          4.92130       -5.13750       15.83000
N          3.86930       -5.18060       16.28870
C          7.17340       -5.45630       16.38030
N          7.90280       -5.74930       17.21580
C          3.56400       -4.12630       11.89560
C          2.36360       -4.85300       11.80700
C          1.41780       -4.55950       10.85750
C          1.60720       -3.48740        9.97340
C          2.78750       -2.74190       10.08180
C          3.74490       -3.04860       11.01880
C          0.64080       -3.17700        8.95030
C         -0.71770       -3.42780        8.90990
C         -1.54600       -3.88890       10.02630
C         -1.40090       -3.33340       11.29620
C         -2.22840       -3.74170       12.32340
C         -3.20790       -4.69430       12.09670
C         -3.37060       -5.25350       10.83620
C         -4.46660       -6.24160       10.56100
C         -5.68540       -5.52680        9.97370
C         -2.53460       -4.84170        9.80850
C         -1.26770       -3.07720        7.65870
S         -2.89220       -3.15790        7.01790
C         -2.31520       -2.47890        5.53480
C         -2.81540       -2.06440        4.29000
C         -4.13640       -1.98560        3.80000
C         -4.36420       -1.38270        2.51790
N         -5.65060       -1.31740        2.21120
S         -6.50110       -1.96660        3.42610
N         -5.26120       -2.35330        4.39390
C         -3.25280       -0.99990        1.73690
C         -3.17280       -0.53020        0.41440
S         -4.21880       -0.08560       -0.89150
C         -2.81850        0.23120       -1.88520
C         -2.65840        0.69280       -3.21160
C         -3.73740        0.89310       -4.17640
C         -5.00100        1.31010       -3.76640
C         -6.00190        1.50590       -4.69890
C         -5.76500        1.27650       -6.04220
C         -4.52210        0.82450       -6.46800
C         -4.27390        0.50120       -7.91410
C         -4.61990       -0.96100       -8.20090
C         -3.52280        0.63180       -5.52810
C         -1.32140        0.85800       -3.51620
S         -0.25480        0.34090       -2.22100
C         -1.61630       -0.00570       -1.21970
C         -1.81900       -0.44320        0.09590
N         -1.05110       -0.80880        1.17230
C         -1.91750       -1.15620        2.20140
C         -1.70610       -1.58160        3.53950
N         -0.57780       -1.65720        4.33630
C         -0.94570       -2.20780        5.53580
C         -0.34590       -2.54260        6.75720
S          1.23060       -2.46380        7.45560
C          0.69510       -0.98320        4.22200
C          1.84730       -1.95760        3.98120
C          0.29380       -1.27620        0.91370
C          0.30670       -2.77950        0.64360
C         -0.76180        1.53510       -4.64820
C         -1.11740        2.79250       -5.11860
N         -2.04180        3.63740       -4.53470
C         -2.23250        3.63170       -3.14440
C         -1.15530        3.46680       -2.27810
C         -1.36640        3.34710       -0.91770
C         -2.64520        3.40740       -0.38180
C         -2.89100        3.21080        1.08250
C         -3.70750        3.64930       -1.24650
C         -3.51100        3.76320       -2.60700
C         -2.80970        4.48760       -5.34610
C         -3.26170        4.06470       -6.59230
C         -4.00760        4.91390       -7.38570
C         -4.32900        6.19610       -6.96130
C         -5.11950        7.12410       -7.83180
C         -3.87810        6.60830       -5.71210
C         -3.12510        5.77310       -4.91300
C         -0.35080        3.12790       -6.26100
S         -0.25980        4.53120       -7.25710
C          1.01810        3.78640       -8.23370
C          1.41030        2.53190       -7.71950
N          2.49030        1.78770       -8.09770
C          2.48600        0.39800       -7.83790
C          1.38980       -0.38060       -8.19590
C          1.39390       -1.73440       -7.92870
C          2.48110       -2.34050       -7.30770
C          2.45700       -3.80570       -6.99940
C          3.57680       -1.55490       -6.97280
C          3.58610       -0.19800       -7.23290
C          3.62660        2.33250       -8.70860
C          4.12770        3.57880       -8.33350
C          5.22010        4.11190       -8.98390
C          5.85120        3.42500      -10.01890
C          6.99770        4.04720      -10.75140
C          5.38040        2.16160      -10.34920
C          4.28400        1.61650       -9.70750
C          0.58750        2.17220       -6.62660
S          0.56440        0.81840       -5.54640
C          1.48290        4.52670       -9.32290
C          2.11710        4.02320      -10.43830
C          1.94820        2.63920      -10.92680
O          1.24920        1.76440      -10.45300
C          2.70920        2.61230      -12.17990
S          3.08630        1.44270      -13.36920
C          4.03660        2.63170      -14.22100
Cl         4.84010        2.20910      -15.66390
C          4.05340        3.85940      -13.61940
C          3.28410        3.84350      -12.44210
C          2.94130        4.75480      -11.36320
C          3.46170        6.01500      -11.20440
C          4.35160        6.57250      -12.14110
N          5.09320        7.03600      -12.88550
C          3.23550        6.83690      -10.08490
N          3.11310        7.54090       -9.18560
H          4.04260       -5.01450       13.75400
H          9.51920       -5.28240       15.24570
H          2.20100       -5.68310       12.47930
H          0.52690       -5.16270       10.78130
H          2.94140       -1.90230        9.41910
H          4.62780       -2.43750       11.09140
H         -0.64690       -2.57950       11.46810
H         -2.11380       -3.31010       13.30670
H         -3.85340       -5.00440       12.90570
H         -4.11670       -6.99490        9.85190
H         -4.75270       -6.74740       11.48510
H         -6.05910       -4.78190       10.67280
H         -6.48060       -6.23920        9.76720
H         -5.41920       -5.02280        9.04750
H         -2.64510       -5.27860        8.82660
H         -5.19230        1.49620       -2.72160
H         -6.97540        1.84230       -4.37390
H         -6.55080        1.44000       -6.76540
H         -3.22380        0.67440       -8.16120
H         -4.88520        1.14760       -8.54720
H         -5.66780       -1.15220       -7.98080
H         -4.01510       -1.62010       -7.58180
H         -4.43440       -1.19780       -9.24590
H         -2.56200        0.25720       -5.85140
H          0.87660       -0.45990        5.16800
H          0.62300       -0.22540        3.44070
H          1.98270       -2.59320        4.85200
H          1.65790       -2.59590        3.12310
H          2.76850       -1.40540        3.81630
H          0.64530       -0.74070        0.02790
H          0.96220       -1.03440        1.73430
H         -0.07340       -3.32600        1.50450
H         -0.32150       -3.01190       -0.21330
H          1.31950       -3.11120        0.43110
H         -0.15170        3.41740       -2.67550
H         -0.51850        3.19540       -0.26460
H         -1.95620        3.07090        1.61990
H         -3.51760        2.33360        1.24430
H         -3.41090        4.07040        1.50300
H         -4.70820        3.72580       -0.84640
H         -4.34770        3.92900       -3.26860
H         -3.03770        3.06510       -6.93100
H         -4.35000        4.56870       -8.35050
H         -5.71170        6.56920       -8.55540
H         -5.78240        7.74590       -7.23410
H         -4.44580        7.78360       -8.37990
H         -4.11350        7.60360       -5.36360
H         -2.77380        6.11120       -3.94930
H          0.56100        0.08470       -8.70600
H          0.54200       -2.33480       -8.21260
H          1.82000       -3.99210       -6.13430
H          3.45440       -4.17440       -6.77420
H          2.05280       -4.36950       -7.83760
H          4.43420       -2.00820       -6.49680
H          4.44130        0.40580       -6.96560
H          3.65530        4.13130       -7.53520
H          5.58740        5.08440       -8.68990
H          7.44410        3.34250      -11.44800
H          6.65860        4.91820      -11.31290
H          7.76150        4.38410      -10.05260
H          5.86580        1.59900      -11.13350
H          3.91850        0.63980       -9.98750
H          1.29610        5.59310       -9.27740
H          4.58470        4.70660      -14.01050
