
  xtb     02032221283D
 energy: -343.802576017793 gnorm: 0.000732812526 xtb: 6.4.1 (unknown)
215237  0     0  0            999 V2000
   -9.0654   13.6577   -4.3792 C   0  0  0  0  0  0  0  0  0  0  0  0
   -8.5150   14.6839   -3.6477 C   0  0  0  0  0  0  0  0  0  0  0  0
   -7.2128   14.6517   -2.9738 C   0  0  0  0  0  0  0  0  0  0  0  0
   -6.4167   13.7279   -2.9401 O   0  0  0  0  0  0  0  0  0  0  0  0
   -7.0500   15.9694   -2.3382 C   0  0  0  0  0  0  0  0  0  0  0  0
   -5.9978   16.4542   -1.5874 C   0  0  0  0  0  0  0  0  0  0  0  0
   -6.0835   17.7464   -1.0925 C   0  0  0  0  0  0  0  0  0  0  0  0
   -7.1993   18.5423   -1.3388 C   0  0  0  0  0  0  0  0  0  0  0  0
   -7.2807   19.9247   -0.7728 C   0  0  0  0  0  0  0  0  0  0  0  0
   -8.2579   18.0429   -2.0980 C   0  0  0  0  0  0  0  0  0  0  0  0
   -8.1848   16.7564   -2.6011 C   0  0  0  0  0  0  0  0  0  0  0  0
   -9.1183   15.9780   -3.4177 C   0  0  0  0  0  0  0  0  0  0  0  0
  -10.3388   16.4248   -3.8603 C   0  0  0  0  0  0  0  0  0  0  0  0
  -10.8576   17.7083   -3.5937 C   0  0  0  0  0  0  0  0  0  0  0  0
  -11.3436   18.7345   -3.4198 N   0  0  0  0  0  0  0  0  0  0  0  0
  -11.2575   15.6889   -4.6355 C   0  0  0  0  0  0  0  0  0  0  0  0
  -12.0641   15.1619   -5.2627 N   0  0  0  0  0  0  0  0  0  0  0  0
   -8.5905   12.3703   -4.6430 C   0  0  0  0  0  0  0  0  0  0  0  0
   -7.0795   11.6669   -4.0821 S   0  0  0  0  0  0  0  0  0  0  0  0
   -7.4873   10.1994   -4.8575 C   0  0  0  0  0  0  0  0  0  0  0  0
   -6.9332    8.9115   -4.9952 C   0  0  0  0  0  0  0  0  0  0  0  0
   -7.7995    8.1103   -5.7376 C   0  0  0  0  0  0  0  0  0  0  0  0
   -9.0358    8.8824   -6.1493 C   0  0  0  0  0  0  0  0  0  0  0  0
  -10.2458    8.2110   -5.4633 C   0  0  0  0  0  0  0  0  0  0  0  0
  -11.5998    8.8524   -5.7298 C   0  0  0  0  0  0  0  0  0  0  0  0
   -9.1425    8.8986   -7.6914 C   0  0  0  0  0  0  0  0  0  0  0  0
   -9.7446   10.1598   -8.2993 C   0  0  0  0  0  0  0  0  0  0  0  0
   -8.7248   10.2292   -5.5317 C   0  0  0  0  0  0  0  0  0  0  0  0
   -9.3355   11.4539   -5.4062 C   0  0  0  0  0  0  0  0  0  0  0  0
   -7.3384    6.8102   -5.8911 C   0  0  0  0  0  0  0  0  0  0  0  0
   -6.1172    6.6093   -5.2630 C   0  0  0  0  0  0  0  0  0  0  0  0
   -5.5297    8.0623   -4.4845 S   0  0  0  0  0  0  0  0  0  0  0  0
   -5.3877    5.3965   -5.1548 C   0  0  0  0  0  0  0  0  0  0  0  0
   -5.7579    4.1444   -5.6007 C   0  0  0  0  0  0  0  0  0  0  0  0
   -4.8314    3.1674   -5.2338 C   0  0  0  0  0  0  0  0  0  0  0  0
   -4.7774    1.4365   -5.4090 S   0  0  0  0  0  0  0  0  0  0  0  0
   -3.3071    1.4040   -4.4894 C   0  0  0  0  0  0  0  0  0  0  0  0
   -2.4618    0.3777   -3.9565 C   0  0  0  0  0  0  0  0  0  0  0  0
   -1.4399    1.0341   -3.2198 C   0  0  0  0  0  0  0  0  0  0  0  0
   -1.5827    2.5446   -3.3209 C   0  0  0  0  0  0  0  0  0  0  0  0
   -1.6339    3.1486   -1.9342 C   0  0  0  0  0  0  0  0  0  0  0  0
   -0.4541    3.4829   -1.2809 C   0  0  0  0  0  0  0  0  0  0  0  0
   -0.4836    4.0008   -0.0008 C   0  0  0  0  0  0  0  0  0  0  0  0
   -1.6884    4.1986    0.6615 C   0  0  0  0  0  0  0  0  0  0  0  0
   -1.7177    4.8178    2.0292 C   0  0  0  0  0  0  0  0  0  0  0  0
   -1.7628    6.3433    1.9217 C   0  0  0  0  0  0  0  0  0  0  0  0
   -2.8636    3.8563    0.0077 C   0  0  0  0  0  0  0  0  0  0  0  0
   -2.8387    3.3302   -1.2709 C   0  0  0  0  0  0  0  0  0  0  0  0
   -0.5119    3.2025   -4.1761 C   0  0  0  0  0  0  0  0  0  0  0  0
   -0.4449    4.5904   -4.2172 C   0  0  0  0  0  0  0  0  0  0  0  0
    0.4762    5.2247   -5.0273 C   0  0  0  0  0  0  0  0  0  0  0  0
    1.3503    4.4926   -5.8212 C   0  0  0  0  0  0  0  0  0  0  0  0
    2.3833    5.1821   -6.6655 C   0  0  0  0  0  0  0  0  0  0  0  0
    3.6794    5.3710   -5.8747 C   0  0  0  0  0  0  0  0  0  0  0  0
    1.2757    3.1074   -5.7794 C   0  0  0  0  0  0  0  0  0  0  0  0
    0.3527    2.4662   -4.9722 C   0  0  0  0  0  0  0  0  0  0  0  0
   -2.8708    2.6522   -4.0913 C   0  0  0  0  0  0  0  0  0  0  0  0
   -3.7343    3.6623   -4.5143 C   0  0  0  0  0  0  0  0  0  0  0  0
   -3.8536    5.3685   -4.2980 S   0  0  0  0  0  0  0  0  0  0  0  0
   -0.5191    0.3193   -2.4989 C   0  0  0  0  0  0  0  0  0  0  0  0
   -0.6193   -1.0719   -2.5251 C   0  0  0  0  0  0  0  0  0  0  0  0
    0.1173   -2.1023   -1.8664 C   0  0  0  0  0  0  0  0  0  0  0  0
    1.1766   -2.0675   -0.9600 C   0  0  0  0  0  0  0  0  0  0  0  0
    1.6291   -3.2643   -0.4681 C   0  0  0  0  0  0  0  0  0  0  0  0
    1.0410   -4.4916   -0.8740 C   0  0  0  0  0  0  0  0  0  0  0  0
   -0.0012   -4.5494   -1.7833 C   0  0  0  0  0  0  0  0  0  0  0  0
   -0.4654   -3.3342   -2.2678 C   0  0  0  0  0  0  0  0  0  0  0  0
   -1.5131   -3.0800   -3.1188 N   0  0  0  0  0  0  0  0  0  0  0  0
   -2.3126   -4.0753   -3.7818 C   0  0  0  0  0  0  0  0  0  0  0  0
   -1.7013   -4.4858   -5.1207 C   0  0  0  0  0  0  0  0  0  0  0  0
   -1.6245   -1.7214   -3.2902 C   0  0  0  0  0  0  0  0  0  0  0  0
   -2.5599   -1.0015   -4.0209 C   0  0  0  0  0  0  0  0  0  0  0  0
    1.7001   -5.5275   -0.1357 C   0  0  0  0  0  0  0  0  0  0  0  0
    1.5614   -7.2534   -0.0364 S   0  0  0  0  0  0  0  0  0  0  0  0
    2.7760   -7.2657    1.2091 C   0  0  0  0  0  0  0  0  0  0  0  0
    3.3450   -8.2707    1.9947 C   0  0  0  0  0  0  0  0  0  0  0  0
    4.2500   -7.7633    2.8997 C   0  0  0  0  0  0  0  0  0  0  0  0
    4.4173   -6.0159    2.7675 S   0  0  0  0  0  0  0  0  0  0  0  0
    3.2507   -5.9786    1.4983 C   0  0  0  0  0  0  0  0  0  0  0  0
    2.6338   -4.9923    0.7295 C   0  0  0  0  0  0  0  0  0  0  0  0
    2.7172   -3.4985    0.5688 C   0  0  0  0  0  0  0  0  0  0  0  0
    4.1192   -3.1806    0.0817 C   0  0  0  0  0  0  0  0  0  0  0  0
    4.4040   -2.9957   -1.2631 C   0  0  0  0  0  0  0  0  0  0  0  0
    5.7051   -2.7744   -1.6779 C   0  0  0  0  0  0  0  0  0  0  0  0
    6.7518   -2.7451   -0.7670 C   0  0  0  0  0  0  0  0  0  0  0  0
    8.1574   -2.4684   -1.2179 C   0  0  0  0  0  0  0  0  0  0  0  0
    8.4492   -0.9670   -1.1744 C   0  0  0  0  0  0  0  0  0  0  0  0
    6.4611   -2.9370    0.5780 C   0  0  0  0  0  0  0  0  0  0  0  0
    5.1637   -3.1547    0.9985 C   0  0  0  0  0  0  0  0  0  0  0  0
    2.3652   -2.7276    1.8245 C   0  0  0  0  0  0  0  0  0  0  0  0
    2.7443   -1.3970    1.9512 C   0  0  0  0  0  0  0  0  0  0  0  0
    2.3807   -0.6666    3.0661 C   0  0  0  0  0  0  0  0  0  0  0  0
    1.6297   -1.2421    4.0828 C   0  0  0  0  0  0  0  0  0  0  0  0
    1.2781   -0.4611    5.3162 C   0  0  0  0  0  0  0  0  0  0  0  0
    2.3712   -0.6155    6.3756 C   0  0  0  0  0  0  0  0  0  0  0  0
    1.2524   -2.5712    3.9513 C   0  0  0  0  0  0  0  0  0  0  0  0
    1.6079   -3.3041    2.8341 C   0  0  0  0  0  0  0  0  0  0  0  0
    4.9953   -8.4600    3.8846 C   0  0  0  0  0  0  0  0  0  0  0  0
    4.9369  -10.1976    4.0170 S   0  0  0  0  0  0  0  0  0  0  0  0
    6.0204  -10.1497    5.3676 C   0  0  0  0  0  0  0  0  0  0  0  0
    6.4748  -11.2269    6.1549 C   0  0  0  0  0  0  0  0  0  0  0  0
    7.1496  -10.9237    7.3456 C   0  0  0  0  0  0  0  0  0  0  0  0
    7.3797   -9.6681    7.7726 O   0  0  0  0  0  0  0  0  0  0  0  0
    7.3938   -8.6086    6.7922 C   0  0  0  0  0  0  0  0  0  0  0  0
    8.8249   -8.5842    6.2001 C   0  0  0  0  0  0  0  0  0  0  0  0
    9.0669   -7.5376    5.1222 C   0  0  0  0  0  0  0  0  0  0  0  0
    7.0773   -7.3327    7.5843 C   0  0  0  0  0  0  0  0  0  0  0  0
    5.6777   -7.3608    8.1874 C   0  0  0  0  0  0  0  0  0  0  0  0
    6.3979   -8.8541    5.6895 C   0  0  0  0  0  0  0  0  0  0  0  0
    5.8188   -7.9065    4.8456 C   0  0  0  0  0  0  0  0  0  0  0  0
    7.4864  -12.0626    8.0590 C   0  0  0  0  0  0  0  0  0  0  0  0
    7.1026  -13.2467    7.4258 C   0  0  0  0  0  0  0  0  0  0  0  0
    6.2926  -12.9208    5.9093 S   0  0  0  0  0  0  0  0  0  0  0  0
    7.3699  -14.5124    7.9667 C   0  0  0  0  0  0  0  0  0  0  0  0
    7.0916  -15.7554    7.4720 C   0  0  0  0  0  0  0  0  0  0  0  0
    7.5484  -17.2085    8.3529 S   0  0  0  0  0  0  0  0  0  0  0  0
    6.8652  -18.2233    7.1086 C   0  0  0  0  0  0  0  0  0  0  0  0
    6.8221  -19.5903    7.2244 C   0  0  0  0  0  0  0  0  0  0  0  0
    6.1919  -20.4552    6.3134 C   0  0  0  0  0  0  0  0  0  0  0  0
    5.6755  -21.2203    5.6300 N   0  0  0  0  0  0  0  0  0  0  0  0
    7.4019  -20.2188    8.3435 C   0  0  0  0  0  0  0  0  0  0  0  0
    7.8823  -20.7352    9.2487 N   0  0  0  0  0  0  0  0  0  0  0  0
    6.3689  -17.4789    6.0842 N   0  0  0  0  0  0  0  0  0  0  0  0
    5.8600  -18.0444    4.8781 C   0  0  0  0  0  0  0  0  0  0  0  0
    6.7226  -18.7096    4.0186 C   0  0  0  0  0  0  0  0  0  0  0  0
    6.2278  -19.2372    2.8407 C   0  0  0  0  0  0  0  0  0  0  0  0
    4.8886  -19.0887    2.5216 C   0  0  0  0  0  0  0  0  0  0  0  0
    4.0401  -18.4057    3.3758 C   0  0  0  0  0  0  0  0  0  0  0  0
    4.5220  -17.8780    4.5602 C   0  0  0  0  0  0  0  0  0  0  0  0
    6.4393  -16.0977    6.2299 C   0  0  0  0  0  0  0  0  0  0  0  0
    6.0059  -15.3282    5.3921 O   0  0  0  0  0  0  0  0  0  0  0  0
  -10.0319   13.8509   -4.8288 H   0  0  0  0  0  0  0  0  0  0  0  0
   -5.1350   15.8338   -1.3996 H   0  0  0  0  0  0  0  0  0  0  0  0
   -5.2710   18.1481   -0.5044 H   0  0  0  0  0  0  0  0  0  0  0  0
   -7.9125   20.5597   -1.3887 H   0  0  0  0  0  0  0  0  0  0  0  0
   -6.2930   20.3722   -0.6923 H   0  0  0  0  0  0  0  0  0  0  0  0
   -7.7156   19.8875    0.2268 H   0  0  0  0  0  0  0  0  0  0  0  0
   -9.1154   18.6701   -2.2807 H   0  0  0  0  0  0  0  0  0  0  0  0
  -10.0574    8.2136   -4.3864 H   0  0  0  0  0  0  0  0  0  0  0  0
  -10.2748    7.1684   -5.7891 H   0  0  0  0  0  0  0  0  0  0  0  0
  -11.8648    8.7906   -6.7814 H   0  0  0  0  0  0  0  0  0  0  0  0
  -12.3635    8.3273   -5.1598 H   0  0  0  0  0  0  0  0  0  0  0  0
  -11.6060    9.8932   -5.4206 H   0  0  0  0  0  0  0  0  0  0  0  0
   -9.7254    8.0283   -7.9993 H   0  0  0  0  0  0  0  0  0  0  0  0
   -8.1360    8.7776   -8.1001 H   0  0  0  0  0  0  0  0  0  0  0  0
  -10.7384   10.3603   -7.9126 H   0  0  0  0  0  0  0  0  0  0  0  0
   -9.8174   10.0376   -9.3781 H   0  0  0  0  0  0  0  0  0  0  0  0
   -9.1139   11.0217   -8.0981 H   0  0  0  0  0  0  0  0  0  0  0  0
  -10.2830   11.7354   -5.8291 H   0  0  0  0  0  0  0  0  0  0  0  0
   -7.8519    6.0332   -6.4265 H   0  0  0  0  0  0  0  0  0  0  0  0
   -6.6624    3.9464   -6.1444 H   0  0  0  0  0  0  0  0  0  0  0  0
    0.4927    3.3481   -1.7843 H   0  0  0  0  0  0  0  0  0  0  0  0
    0.4438    4.2566    0.4924 H   0  0  0  0  0  0  0  0  0  0  0  0
   -2.5958    4.4688    2.5762 H   0  0  0  0  0  0  0  0  0  0  0  0
   -0.8271    4.5224    2.5881 H   0  0  0  0  0  0  0  0  0  0  0  0
   -1.7729    6.7957    2.9107 H   0  0  0  0  0  0  0  0  0  0  0  0
   -2.6553    6.6582    1.3857 H   0  0  0  0  0  0  0  0  0  0  0  0
   -0.8933    6.7097    1.3802 H   0  0  0  0  0  0  0  0  0  0  0  0
   -3.8123    3.9998    0.5054 H   0  0  0  0  0  0  0  0  0  0  0  0
   -3.7668    3.0613   -1.7540 H   0  0  0  0  0  0  0  0  0  0  0  0
   -1.1173    5.1757   -3.6063 H   0  0  0  0  0  0  0  0  0  0  0  0
    0.5130    6.3046   -5.0473 H   0  0  0  0  0  0  0  0  0  0  0  0
    2.0104    6.1579   -6.9831 H   0  0  0  0  0  0  0  0  0  0  0  0
    2.5899    4.5877   -7.5579 H   0  0  0  0  0  0  0  0  0  0  0  0
    4.0741    4.4074   -5.5601 H   0  0  0  0  0  0  0  0  0  0  0  0
    3.4954    5.9714   -4.9864 H   0  0  0  0  0  0  0  0  0  0  0  0
    4.4285    5.8717   -6.4837 H   0  0  0  0  0  0  0  0  0  0  0  0
    1.9448    2.5187   -6.3913 H   0  0  0  0  0  0  0  0  0  0  0  0
    0.3088    1.3870   -4.9624 H   0  0  0  0  0  0  0  0  0  0  0  0
    0.2471    0.8069   -1.9168 H   0  0  0  0  0  0  0  0  0  0  0  0
    1.6070   -1.1279   -0.6511 H   0  0  0  0  0  0  0  0  0  0  0  0
   -0.4285   -5.4970   -2.0723 H   0  0  0  0  0  0  0  0  0  0  0  0
   -3.3152   -3.6681   -3.9360 H   0  0  0  0  0  0  0  0  0  0  0  0
   -2.3980   -4.9451   -3.1253 H   0  0  0  0  0  0  0  0  0  0  0  0
   -0.7078   -4.9015   -4.9688 H   0  0  0  0  0  0  0  0  0  0  0  0
   -1.6175   -3.6219   -5.7760 H   0  0  0  0  0  0  0  0  0  0  0  0
   -2.3237   -5.2335   -5.6044 H   0  0  0  0  0  0  0  0  0  0  0  0
   -3.3424   -1.4722   -4.5956 H   0  0  0  0  0  0  0  0  0  0  0  0
    3.1078   -9.3167    1.9244 H   0  0  0  0  0  0  0  0  0  0  0  0
    3.6069   -3.0239   -1.9915 H   0  0  0  0  0  0  0  0  0  0  0  0
    5.9096   -2.6297   -2.7295 H   0  0  0  0  0  0  0  0  0  0  0  0
    8.8637   -2.9910   -0.5695 H   0  0  0  0  0  0  0  0  0  0  0  0
    8.2966   -2.8319   -2.2380 H   0  0  0  0  0  0  0  0  0  0  0  0
    9.4617   -0.7656   -1.5166 H   0  0  0  0  0  0  0  0  0  0  0  0
    8.3438   -0.5905   -0.1595 H   0  0  0  0  0  0  0  0  0  0  0  0
    7.7528   -0.4281   -1.8129 H   0  0  0  0  0  0  0  0  0  0  0  0
    7.2613   -2.9223    1.3044 H   0  0  0  0  0  0  0  0  0  0  0  0
    4.9555   -3.3045    2.0484 H   0  0  0  0  0  0  0  0  0  0  0  0
    3.3369   -0.9335    1.1756 H   0  0  0  0  0  0  0  0  0  0  0  0
    2.6825    0.3682    3.1471 H   0  0  0  0  0  0  0  0  0  0  0  0
    1.1655    0.5957    5.0657 H   0  0  0  0  0  0  0  0  0  0  0  0
    0.3298   -0.8186    5.7229 H   0  0  0  0  0  0  0  0  0  0  0  0
    2.1180   -0.0513    7.2703 H   0  0  0  0  0  0  0  0  0  0  0  0
    2.4895   -1.6624    6.6463 H   0  0  0  0  0  0  0  0  0  0  0  0
    3.3224   -0.2522    5.9926 H   0  0  0  0  0  0  0  0  0  0  0  0
    0.6670   -3.0392    4.7301 H   0  0  0  0  0  0  0  0  0  0  0  0
    1.2901   -4.3333    2.7504 H   0  0  0  0  0  0  0  0  0  0  0  0
    9.0189   -9.5776    5.7849 H   0  0  0  0  0  0  0  0  0  0  0  0
    9.5184   -8.4308    7.0296 H   0  0  0  0  0  0  0  0  0  0  0  0
   10.0847   -7.6312    4.7512 H   0  0  0  0  0  0  0  0  0  0  0  0
    8.3859   -7.6749    4.2859 H   0  0  0  0  0  0  0  0  0  0  0  0
    8.9415   -6.5316    5.5133 H   0  0  0  0  0  0  0  0  0  0  0  0
    7.8146   -7.2520    8.3844 H   0  0  0  0  0  0  0  0  0  0  0  0
    7.1827   -6.4692    6.9294 H   0  0  0  0  0  0  0  0  0  0  0  0
    4.9200   -7.4035    7.4082 H   0  0  0  0  0  0  0  0  0  0  0  0
    5.5653   -8.2314    8.8283 H   0  0  0  0  0  0  0  0  0  0  0  0
    5.5108   -6.4671    8.7833 H   0  0  0  0  0  0  0  0  0  0  0  0
    5.9728   -6.8451    4.9166 H   0  0  0  0  0  0  0  0  0  0  0  0
    7.9924  -12.0432    9.0065 H   0  0  0  0  0  0  0  0  0  0  0  0
    7.8797  -14.4876    8.9233 H   0  0  0  0  0  0  0  0  0  0  0  0
    7.7669  -18.8159    4.2747 H   0  0  0  0  0  0  0  0  0  0  0  0
    6.8910  -19.7646    2.1727 H   0  0  0  0  0  0  0  0  0  0  0  0
    4.5060  -19.5054    1.6023 H   0  0  0  0  0  0  0  0  0  0  0  0
    2.9976  -18.2848    3.1241 H   0  0  0  0  0  0  0  0  0  0  0  0
    3.8721  -17.3412    5.2341 H   0  0  0  0  0  0  0  0  0  0  0  0
  1  2  2  0  0  0  0
  2  3  1  0  0  0  0
  3  4  2  0  0  0  0
  3  5  1  0  0  0  0
  5  6  2  0  0  0  0
  6  7  1  0  0  0  0
  7  8  2  0  0  0  0
  8  9  1  0  0  0  0
  8 10  1  0  0  0  0
 10 11  2  0  0  0  0
 11 12  1  0  0  0  0
 12 13  2  0  0  0  0
 13 14  1  0  0  0  0
 14 15  3  0  0  0  0
 13 16  1  0  0  0  0
 16 17  3  0  0  0  0
  1 18  1  0  0  0  0
 18 19  1  0  0  0  0
 19 20  1  0  0  0  0
 20 21  1  0  0  0  0
 21 22  2  0  0  0  0
 22 23  1  0  0  0  0
 23 24  1  0  0  0  0
 24 25  1  0  0  0  0
 23 26  1  0  0  0  0
 26 27  1  0  0  0  0
 23 28  1  0  0  0  0
 28 29  1  0  0  0  0
 22 30  1  0  0  0  0
 30 31  2  0  0  0  0
 31 32  1  0  0  0  0
 31 33  1  0  0  0  0
 33 34  2  0  0  0  0
 34 35  1  0  0  0  0
 35 36  1  0  0  0  0
 36 37  1  0  0  0  0
 37 38  1  0  0  0  0
 38 39  2  0  0  0  0
 39 40  1  0  0  0  0
 40 41  1  0  0  0  0
 41 42  2  0  0  0  0
 42 43  1  0  0  0  0
 43 44  2  0  0  0  0
 44 45  1  0  0  0  0
 45 46  1  0  0  0  0
 44 47  1  0  0  0  0
 47 48  2  0  0  0  0
 40 49  1  0  0  0  0
 49 50  2  0  0  0  0
 50 51  1  0  0  0  0
 51 52  2  0  0  0  0
 52 53  1  0  0  0  0
 53 54  1  0  0  0  0
 52 55  1  0  0  0  0
 55 56  2  0  0  0  0
 40 57  1  0  0  0  0
 57 58  1  0  0  0  0
 58 59  1  0  0  0  0
 39 60  1  0  0  0  0
 60 61  2  0  0  0  0
 61 62  1  0  0  0  0
 62 63  2  0  0  0  0
 63 64  1  0  0  0  0
 64 65  2  0  0  0  0
 65 66  1  0  0  0  0
 66 67  2  0  0  0  0
 67 68  1  0  0  0  0
 68 69  1  0  0  0  0
 69 70  1  0  0  0  0
 68 71  1  0  0  0  0
 71 72  2  0  0  0  0
 65 73  1  0  0  0  0
 73 74  1  0  0  0  0
 74 75  1  0  0  0  0
 75 76  1  0  0  0  0
 76 77  2  0  0  0  0
 77 78  1  0  0  0  0
 78 79  1  0  0  0  0
 79 80  1  0  0  0  0
 80 81  1  0  0  0  0
 81 82  1  0  0  0  0
 82 83  2  0  0  0  0
 83 84  1  0  0  0  0
 84 85  2  0  0  0  0
 85 86  1  0  0  0  0
 86 87  1  0  0  0  0
 85 88  1  0  0  0  0
 88 89  2  0  0  0  0
 81 90  1  0  0  0  0
 90 91  2  0  0  0  0
 91 92  1  0  0  0  0
 92 93  2  0  0  0  0
 93 94  1  0  0  0  0
 94 95  1  0  0  0  0
 93 96  1  0  0  0  0
 96 97  2  0  0  0  0
 77 98  1  0  0  0  0
 98 99  1  0  0  0  0
 99100  1  0  0  0  0
100101  1  0  0  0  0
101102  2  0  0  0  0
102103  1  0  0  0  0
103104  1  0  0  0  0
104105  1  0  0  0  0
105106  1  0  0  0  0
104107  1  0  0  0  0
107108  1  0  0  0  0
104109  1  0  0  0  0
109110  1  0  0  0  0
102111  1  0  0  0  0
111112  2  0  0  0  0
112113  1  0  0  0  0
112114  1  0  0  0  0
114115  2  0  0  0  0
115116  1  0  0  0  0
116117  1  0  0  0  0
117118  2  0  0  0  0
118119  1  0  0  0  0
119120  3  0  0  0  0
118121  1  0  0  0  0
121122  3  0  0  0  0
117123  1  0  0  0  0
123124  1  0  0  0  0
124125  2  0  0  0  0
125126  1  0  0  0  0
126127  2  0  0  0  0
127128  1  0  0  0  0
128129  2  0  0  0  0
123130  1  0  0  0  0
130131  2  0  0  0  0
 12  2  1  0  0  0  0
 29 18  2  0  0  0  0
 59 33  1  0  0  0  0
 71 61  1  0  0  0  0
 80 73  2  0  0  0  0
 89 82  1  0  0  0  0
 97 90  1  0  0  0  0
110 98  2  0  0  0  0
130115  1  0  0  0  0
 11  5  1  0  0  0  0
 28 20  2  0  0  0  0
 58 35  2  0  0  0  0
 67 62  1  0  0  0  0
 79 75  2  0  0  0  0
109100  2  0  0  0  0
129124  1  0  0  0  0
 32 21  1  0  0  0  0
 57 37  2  0  0  0  0
 81 64  1  0  0  0  0
113101  1  0  0  0  0
 72 38  1  0  0  0  0
 48 41  1  0  0  0  0
 56 49  1  0  0  0  0
  1132  1  0  0  0  0
  6133  1  0  0  0  0
  7134  1  0  0  0  0
  9135  1  0  0  0  0
  9136  1  0  0  0  0
  9137  1  0  0  0  0
 10138  1  0  0  0  0
 24139  1  0  0  0  0
 24140  1  0  0  0  0
 25141  1  0  0  0  0
 25142  1  0  0  0  0
 25143  1  0  0  0  0
 26144  1  0  0  0  0
 26145  1  0  0  0  0
 27146  1  0  0  0  0
 27147  1  0  0  0  0
 27148  1  0  0  0  0
 29149  1  0  0  0  0
 30150  1  0  0  0  0
 34151  1  0  0  0  0
 42152  1  0  0  0  0
 43153  1  0  0  0  0
 45154  1  0  0  0  0
 45155  1  0  0  0  0
 46156  1  0  0  0  0
 46157  1  0  0  0  0
 46158  1  0  0  0  0
 47159  1  0  0  0  0
 48160  1  0  0  0  0
 50161  1  0  0  0  0
 51162  1  0  0  0  0
 53163  1  0  0  0  0
 53164  1  0  0  0  0
 54165  1  0  0  0  0
 54166  1  0  0  0  0
 54167  1  0  0  0  0
 55168  1  0  0  0  0
 56169  1  0  0  0  0
 60170  1  0  0  0  0
 63171  1  0  0  0  0
 66172  1  0  0  0  0
 69173  1  0  0  0  0
 69174  1  0  0  0  0
 70175  1  0  0  0  0
 70176  1  0  0  0  0
 70177  1  0  0  0  0
 72178  1  0  0  0  0
 76179  1  0  0  0  0
 83180  1  0  0  0  0
 84181  1  0  0  0  0
 86182  1  0  0  0  0
 86183  1  0  0  0  0
 87184  1  0  0  0  0
 87185  1  0  0  0  0
 87186  1  0  0  0  0
 88187  1  0  0  0  0
 89188  1  0  0  0  0
 91189  1  0  0  0  0
 92190  1  0  0  0  0
 94191  1  0  0  0  0
 94192  1  0  0  0  0
 95193  1  0  0  0  0
 95194  1  0  0  0  0
 95195  1  0  0  0  0
 96196  1  0  0  0  0
 97197  1  0  0  0  0
105198  1  0  0  0  0
105199  1  0  0  0  0
106200  1  0  0  0  0
106201  1  0  0  0  0
106202  1  0  0  0  0
107203  1  0  0  0  0
107204  1  0  0  0  0
108205  1  0  0  0  0
108206  1  0  0  0  0
108207  1  0  0  0  0
110208  1  0  0  0  0
111209  1  0  0  0  0
114210  1  0  0  0  0
125211  1  0  0  0  0
126212  1  0  0  0  0
127213  1  0  0  0  0
128214  1  0  0  0  0
129215  1  0  0  0  0
M  END
