
  xtb     02062223283D
 energy: -396.863742716110 gnorm: 0.000814387825 xtb: 6.4.1 (unknown)
216239  0     0  0            999 V2000
  -12.9728    2.7126    1.2841 C   0  0  0  0  0  0  0  0  0  0  0  0
  -13.8970    3.7067    1.1875 C   0  0  0  0  0  0  0  0  0  0  0  0
  -13.5967    5.1597    1.0350 C   0  0  0  0  0  0  0  0  0  0  0  0
  -12.5254    5.6686    0.7914 O   0  0  0  0  0  0  0  0  0  0  0  0
  -14.9007    5.8375    1.0798 C   0  0  0  0  0  0  0  0  0  0  0  0
  -15.1741    7.1927    1.0612 C   0  0  0  0  0  0  0  0  0  0  0  0
  -16.4991    7.5930    1.0873 C   0  0  0  0  0  0  0  0  0  0  0  0
  -17.5383    6.6621    1.1203 C   0  0  0  0  0  0  0  0  0  0  0  0
  -18.9570    7.1355    1.1363 C   0  0  0  0  0  0  0  0  0  0  0  0
  -17.2526    5.2991    1.1345 C   0  0  0  0  0  0  0  0  0  0  0  0
  -15.9311    4.8821    1.1166 C   0  0  0  0  0  0  0  0  0  0  0  0
  -15.3412    3.5454    1.1335 C   0  0  0  0  0  0  0  0  0  0  0  0
  -16.0410    2.3682    1.1203 C   0  0  0  0  0  0  0  0  0  0  0  0
  -17.4489    2.2824    1.0668 C   0  0  0  0  0  0  0  0  0  0  0  0
  -18.5869    2.1369    1.0262 N   0  0  0  0  0  0  0  0  0  0  0  0
  -15.4764    1.0753    1.1381 C   0  0  0  0  0  0  0  0  0  0  0  0
  -15.0977   -0.0088    1.1568 N   0  0  0  0  0  0  0  0  0  0  0  0
  -11.5809    2.8663    1.5242 C   0  0  0  0  0  0  0  0  0  0  0  0
  -10.5807    1.9508    1.2675 C   0  0  0  0  0  0  0  0  0  0  0  0
   -9.3643    2.5598    1.6480 C   0  0  0  0  0  0  0  0  0  0  0  0
   -8.0192    2.1427    1.6112 C   0  0  0  0  0  0  0  0  0  0  0  0
   -7.5718    0.8818    1.0204 C   0  0  0  0  0  0  0  0  0  0  0  0
   -8.1598    0.3863   -0.1416 C   0  0  0  0  0  0  0  0  0  0  0  0
   -7.7056   -0.7982   -0.6848 C   0  0  0  0  0  0  0  0  0  0  0  0
   -8.2953   -1.2482   -1.8116 F   0  0  0  0  0  0  0  0  0  0  0  0
   -6.6739   -1.5484   -0.1312 C   0  0  0  0  0  0  0  0  0  0  0  0
   -6.1786   -2.8185   -0.7561 C   0  0  0  0  0  0  0  0  0  0  0  0
   -5.0466   -2.5268   -1.7443 C   0  0  0  0  0  0  0  0  0  0  0  0
   -6.1016   -1.0115    1.0170 C   0  0  0  0  0  0  0  0  0  0  0  0
   -5.0837   -1.6800    1.6003 F   0  0  0  0  0  0  0  0  0  0  0  0
   -6.5230    0.1670    1.5961 C   0  0  0  0  0  0  0  0  0  0  0  0
   -7.1352    3.0528    2.1675 C   0  0  0  0  0  0  0  0  0  0  0  0
   -7.5097    4.3035    2.7329 C   0  0  0  0  0  0  0  0  0  0  0  0
   -8.8479    4.7307    2.7567 C   0  0  0  0  0  0  0  0  0  0  0  0
   -9.2574    6.0227    3.3092 C   0  0  0  0  0  0  0  0  0  0  0  0
   -8.6147    6.5539    4.4274 C   0  0  0  0  0  0  0  0  0  0  0  0
   -8.9830    7.7954    4.9015 C   0  0  0  0  0  0  0  0  0  0  0  0
   -9.9902    8.5647    4.3309 C   0  0  0  0  0  0  0  0  0  0  0  0
  -10.3922    9.8981    4.8878 C   0  0  0  0  0  0  0  0  0  0  0  0
  -11.4307    9.7255    5.9988 C   0  0  0  0  0  0  0  0  0  0  0  0
  -10.6321    7.9839    3.2418 C   0  0  0  0  0  0  0  0  0  0  0  0
  -10.2890    6.7532    2.7213 C   0  0  0  0  0  0  0  0  0  0  0  0
  -11.6364    8.6690    2.6554 F   0  0  0  0  0  0  0  0  0  0  0  0
   -8.3238    8.2888    5.9738 F   0  0  0  0  0  0  0  0  0  0  0  0
   -9.7375    3.8288    2.1806 C   0  0  0  0  0  0  0  0  0  0  0  0
  -11.0699    3.9909    2.0866 O   0  0  0  0  0  0  0  0  0  0  0  0
   -6.2913    4.9165    3.1212 C   0  0  0  0  0  0  0  0  0  0  0  0
   -5.2853    4.0488    2.7840 C   0  0  0  0  0  0  0  0  0  0  0  0
   -5.7905    2.9168    2.2110 O   0  0  0  0  0  0  0  0  0  0  0  0
   -3.8682    4.0864    2.9197 C   0  0  0  0  0  0  0  0  0  0  0  0
   -3.0330    4.9917    3.5529 C   0  0  0  0  0  0  0  0  0  0  0  0
   -3.4631    6.2215    4.2256 C   0  0  0  0  0  0  0  0  0  0  0  0
   -3.1148    6.4332    5.5556 C   0  0  0  0  0  0  0  0  0  0  0  0
   -3.5629    7.5645    6.2122 C   0  0  0  0  0  0  0  0  0  0  0  0
   -4.3590    8.4847    5.5543 C   0  0  0  0  0  0  0  0  0  0  0  0
   -4.6922    8.3033    4.2172 C   0  0  0  0  0  0  0  0  0  0  0  0
   -5.5284    9.3198    3.4938 C   0  0  0  0  0  0  0  0  0  0  0  0
   -4.6493   10.4345    2.9247 C   0  0  0  0  0  0  0  0  0  0  0  0
   -4.2218    7.1774    3.5577 C   0  0  0  0  0  0  0  0  0  0  0  0
   -1.6956    4.5524    3.5069 C   0  0  0  0  0  0  0  0  0  0  0  0
   -0.1972    5.2336    4.0992 S   0  0  0  0  0  0  0  0  0  0  0  0
    0.6612    3.8844    3.4297 C   0  0  0  0  0  0  0  0  0  0  0  0
    1.9808    3.4097    3.2940 C   0  0  0  0  0  0  0  0  0  0  0  0
    3.2516    3.9582    3.5856 C   0  0  0  0  0  0  0  0  0  0  0  0
    4.4391    3.2685    3.1431 C   0  0  0  0  0  0  0  0  0  0  0  0
    5.5429    3.9453    3.4163 N   0  0  0  0  0  0  0  0  0  0  0  0
    5.1361    5.3182    4.1705 S   0  0  0  0  0  0  0  0  0  0  0  0
    3.5316    5.1091    4.1754 N   0  0  0  0  0  0  0  0  0  0  0  0
    4.3201    1.9866    2.5577 C   0  0  0  0  0  0  0  0  0  0  0  0
    5.2497    1.0184    2.1297 C   0  0  0  0  0  0  0  0  0  0  0  0
    6.9583    0.8345    1.9044 S   0  0  0  0  0  0  0  0  0  0  0  0
    6.6900   -0.7913    1.3179 C   0  0  0  0  0  0  0  0  0  0  0  0
    7.5530   -1.7992    0.8484 C   0  0  0  0  0  0  0  0  0  0  0  0
    9.0124   -1.6819    0.8104 C   0  0  0  0  0  0  0  0  0  0  0  0
    9.8150   -2.6721    1.3726 C   0  0  0  0  0  0  0  0  0  0  0  0
   11.1907   -2.5509    1.3307 C   0  0  0  0  0  0  0  0  0  0  0  0
   11.7741   -1.4480    0.7315 C   0  0  0  0  0  0  0  0  0  0  0  0
   10.9887   -0.4412    0.1841 C   0  0  0  0  0  0  0  0  0  0  0  0
   11.6227    0.7347   -0.5008 C   0  0  0  0  0  0  0  0  0  0  0  0
   11.9053    0.4039   -1.9679 C   0  0  0  0  0  0  0  0  0  0  0  0
    9.6078   -0.5661    0.2335 C   0  0  0  0  0  0  0  0  0  0  0  0
    6.8335   -2.9189    0.4629 C   0  0  0  0  0  0  0  0  0  0  0  0
    5.1051   -2.7570    0.7218 S   0  0  0  0  0  0  0  0  0  0  0  0
    5.3401   -1.1574    1.3205 C   0  0  0  0  0  0  0  0  0  0  0  0
    4.5205   -0.1248    1.7822 C   0  0  0  0  0  0  0  0  0  0  0  0
    3.1771    0.0926    1.9607 N   0  0  0  0  0  0  0  0  0  0  0  0
    3.0404    1.3964    2.3974 C   0  0  0  0  0  0  0  0  0  0  0  0
    1.8828    2.1719    2.6088 C   0  0  0  0  0  0  0  0  0  0  0  0
    0.5640    1.9229    2.2793 N   0  0  0  0  0  0  0  0  0  0  0  0
   -0.1732    2.9625    2.7876 C   0  0  0  0  0  0  0  0  0  0  0  0
   -1.5171    3.3441    2.8281 C   0  0  0  0  0  0  0  0  0  0  0  0
   -3.0124    2.7038    2.2572 S   0  0  0  0  0  0  0  0  0  0  0  0
    0.0897    1.1921    1.1208 C   0  0  0  0  0  0  0  0  0  0  0  0
   -0.1611    2.1300   -0.0599 C   0  0  0  0  0  0  0  0  0  0  0  0
    2.2881   -1.0111    2.2691 C   0  0  0  0  0  0  0  0  0  0  0  0
    2.7807   -1.7977    3.4833 C   0  0  0  0  0  0  0  0  0  0  0  0
    7.2600   -4.1038   -0.1960 C   0  0  0  0  0  0  0  0  0  0  0  0
    8.4502   -4.4721   -0.7718 C   0  0  0  0  0  0  0  0  0  0  0  0
    8.2508   -5.7591   -1.3292 C   0  0  0  0  0  0  0  0  0  0  0  0
    9.0796   -6.6238   -2.0647 C   0  0  0  0  0  0  0  0  0  0  0  0
   10.4967   -6.3381   -2.2917 C   0  0  0  0  0  0  0  0  0  0  0  0
   11.1186   -6.6629   -3.4949 C   0  0  0  0  0  0  0  0  0  0  0  0
   12.4502   -6.3455   -3.6744 C   0  0  0  0  0  0  0  0  0  0  0  0
   13.0275   -6.6585   -4.8520 F   0  0  0  0  0  0  0  0  0  0  0  0
   13.2309   -5.7197   -2.7079 C   0  0  0  0  0  0  0  0  0  0  0  0
   14.6616   -5.3353   -2.9415 C   0  0  0  0  0  0  0  0  0  0  0  0
   14.7607   -3.8597   -3.3361 C   0  0  0  0  0  0  0  0  0  0  0  0
   12.5785   -5.4375   -1.5131 C   0  0  0  0  0  0  0  0  0  0  0  0
   13.2785   -4.8503   -0.5173 F   0  0  0  0  0  0  0  0  0  0  0  0
   11.2514   -5.7329   -1.2866 C   0  0  0  0  0  0  0  0  0  0  0  0
    8.4337   -7.7610   -2.5367 C   0  0  0  0  0  0  0  0  0  0  0  0
    7.0691   -8.0797   -2.2616 C   0  0  0  0  0  0  0  0  0  0  0  0
    6.2450   -7.2171   -1.5099 C   0  0  0  0  0  0  0  0  0  0  0  0
    4.8224   -7.4482   -1.2624 C   0  0  0  0  0  0  0  0  0  0  0  0
    4.0036   -7.9867   -2.2528 C   0  0  0  0  0  0  0  0  0  0  0  0
    2.6536   -8.1418   -2.0121 C   0  0  0  0  0  0  0  0  0  0  0  0
    2.0445   -7.7890   -0.8127 C   0  0  0  0  0  0  0  0  0  0  0  0
    0.5673   -7.9200   -0.5919 C   0  0  0  0  0  0  0  0  0  0  0  0
   -0.1505   -6.6311   -1.0006 C   0  0  0  0  0  0  0  0  0  0  0  0
    2.8945   -7.2517    0.1483 C   0  0  0  0  0  0  0  0  0  0  0  0
    4.2486   -7.0783   -0.0475 C   0  0  0  0  0  0  0  0  0  0  0  0
    2.3696   -6.8796    1.3344 F   0  0  0  0  0  0  0  0  0  0  0  0
    1.8882   -8.6568   -2.9960 F   0  0  0  0  0  0  0  0  0  0  0  0
    6.8899   -6.0781   -1.0601 C   0  0  0  0  0  0  0  0  0  0  0  0
    6.3143   -5.0720   -0.3635 O   0  0  0  0  0  0  0  0  0  0  0  0
    6.8639   -9.3441   -2.8471 C   0  0  0  0  0  0  0  0  0  0  0  0
    8.0485   -9.6929   -3.4726 C   0  0  0  0  0  0  0  0  0  0  0  0
    8.9941   -8.7399   -3.2706 O   0  0  0  0  0  0  0  0  0  0  0  0
    8.2925  -10.8749   -4.2103 C   0  0  0  0  0  0  0  0  0  0  0  0
    9.3034  -11.1219   -5.0949 C   0  0  0  0  0  0  0  0  0  0  0  0
   10.1948  -10.0972   -5.6952 C   0  0  0  0  0  0  0  0  0  0  0  0
   10.1362   -8.8967   -5.5681 O   0  0  0  0  0  0  0  0  0  0  0  0
   11.0892  -10.8423   -6.6091 C   0  0  0  0  0  0  0  0  0  0  0  0
   10.7210  -12.2003   -6.6287 C   0  0  0  0  0  0  0  0  0  0  0  0
   11.4028  -13.0905   -7.4440 C   0  0  0  0  0  0  0  0  0  0  0  0
   12.4449  -12.6117   -8.2239 C   0  0  0  0  0  0  0  0  0  0  0  0
   12.8066  -11.2735   -8.1971 C   0  0  0  0  0  0  0  0  0  0  0  0
   14.2381  -10.6879   -9.2798 Br  0  0  0  0  0  0  0  0  0  0  0  0
   12.1287  -10.3544   -7.3865 C   0  0  0  0  0  0  0  0  0  0  0  0
   12.5761   -8.7036   -7.3467 Cl  0  0  0  0  0  0  0  0  0  0  0  0
    9.6061  -12.4013   -5.7058 C   0  0  0  0  0  0  0  0  0  0  0  0
    9.0006  -13.6044   -5.4496 C   0  0  0  0  0  0  0  0  0  0  0  0
    9.3496  -14.8200   -6.0760 C   0  0  0  0  0  0  0  0  0  0  0  0
    9.5784  -15.8419   -6.5462 N   0  0  0  0  0  0  0  0  0  0  0  0
    7.9496  -13.8180   -4.5326 C   0  0  0  0  0  0  0  0  0  0  0  0
    7.1020  -14.0813   -3.8037 N   0  0  0  0  0  0  0  0  0  0  0  0
  -13.2868    1.6828    1.1826 H   0  0  0  0  0  0  0  0  0  0  0  0
  -14.3655    7.9070    1.0376 H   0  0  0  0  0  0  0  0  0  0  0  0
  -16.7411    8.6457    1.0806 H   0  0  0  0  0  0  0  0  0  0  0  0
  -19.1769    7.6928    0.2264 H   0  0  0  0  0  0  0  0  0  0  0  0
  -19.6478    6.3000    1.2076 H   0  0  0  0  0  0  0  0  0  0  0  0
  -19.1239    7.8031    1.9803 H   0  0  0  0  0  0  0  0  0  0  0  0
  -18.0636    4.5894    1.1595 H   0  0  0  0  0  0  0  0  0  0  0  0
  -10.7238    0.9725    0.8569 H   0  0  0  0  0  0  0  0  0  0  0  0
   -8.9429    0.9291   -0.6448 H   0  0  0  0  0  0  0  0  0  0  0  0
   -7.0005   -3.3076   -1.2809 H   0  0  0  0  0  0  0  0  0  0  0  0
   -5.8132   -3.4864    0.0257 H   0  0  0  0  0  0  0  0  0  0  0  0
   -4.6931   -3.4532   -2.1894 H   0  0  0  0  0  0  0  0  0  0  0  0
   -5.3965   -1.8713   -2.5385 H   0  0  0  0  0  0  0  0  0  0  0  0
   -4.2142   -2.0452   -1.2359 H   0  0  0  0  0  0  0  0  0  0  0  0
   -6.0383    0.5149    2.4928 H   0  0  0  0  0  0  0  0  0  0  0  0
   -7.8531    6.0017    4.9521 H   0  0  0  0  0  0  0  0  0  0  0  0
   -9.5122   10.4016    5.2921 H   0  0  0  0  0  0  0  0  0  0  0  0
  -10.8125   10.5119    4.0897 H   0  0  0  0  0  0  0  0  0  0  0  0
  -11.7213   10.6961    6.3923 H   0  0  0  0  0  0  0  0  0  0  0  0
  -12.3173    9.2262    5.6144 H   0  0  0  0  0  0  0  0  0  0  0  0
  -11.0207    9.1299    6.8112 H   0  0  0  0  0  0  0  0  0  0  0  0
  -10.8273    6.3789    1.8657 H   0  0  0  0  0  0  0  0  0  0  0  0
   -6.1656    5.8767    3.5703 H   0  0  0  0  0  0  0  0  0  0  0  0
   -2.5137    5.7019    6.0747 H   0  0  0  0  0  0  0  0  0  0  0  0
   -3.3002    7.7220    7.2476 H   0  0  0  0  0  0  0  0  0  0  0  0
   -4.7289    9.3519    6.0808 H   0  0  0  0  0  0  0  0  0  0  0  0
   -6.0763    8.8392    2.6798 H   0  0  0  0  0  0  0  0  0  0  0  0
   -6.2552    9.7508    4.1852 H   0  0  0  0  0  0  0  0  0  0  0  0
   -5.2579   11.1698    2.4038 H   0  0  0  0  0  0  0  0  0  0  0  0
   -3.9244   10.0243    2.2251 H   0  0  0  0  0  0  0  0  0  0  0  0
   -4.1074   10.9344    3.7241 H   0  0  0  0  0  0  0  0  0  0  0  0
   -4.4456    7.0361    2.5094 H   0  0  0  0  0  0  0  0  0  0  0  0
    9.3534   -3.5249    1.8484 H   0  0  0  0  0  0  0  0  0  0  0  0
   11.8142   -3.3196    1.7620 H   0  0  0  0  0  0  0  0  0  0  0  0
   12.8504   -1.3659    0.6951 H   0  0  0  0  0  0  0  0  0  0  0  0
   12.5600    0.9907   -0.0032 H   0  0  0  0  0  0  0  0  0  0  0  0
   10.9580    1.5985   -0.4457 H   0  0  0  0  0  0  0  0  0  0  0  0
   12.3702    1.2512   -2.4661 H   0  0  0  0  0  0  0  0  0  0  0  0
   10.9805    0.1604   -2.4865 H   0  0  0  0  0  0  0  0  0  0  0  0
   12.5735   -0.4513   -2.0418 H   0  0  0  0  0  0  0  0  0  0  0  0
    8.9844    0.2058   -0.1944 H   0  0  0  0  0  0  0  0  0  0  0  0
   -0.8374    0.6766    1.3904 H   0  0  0  0  0  0  0  0  0  0  0  0
    0.8402    0.4628    0.8240 H   0  0  0  0  0  0  0  0  0  0  0  0
   -0.4716    1.5496   -0.9242 H   0  0  0  0  0  0  0  0  0  0  0  0
   -0.9416    2.8494    0.1704 H   0  0  0  0  0  0  0  0  0  0  0  0
    0.7497    2.6703   -0.3093 H   0  0  0  0  0  0  0  0  0  0  0  0
    1.2989   -0.6174    2.4955 H   0  0  0  0  0  0  0  0  0  0  0  0
    2.2322   -1.6718    1.3979 H   0  0  0  0  0  0  0  0  0  0  0  0
    2.8741   -1.1393    4.3443 H   0  0  0  0  0  0  0  0  0  0  0  0
    2.0682   -2.5832    3.7183 H   0  0  0  0  0  0  0  0  0  0  0  0
    3.7456   -2.2564    3.2878 H   0  0  0  0  0  0  0  0  0  0  0  0
    9.3322   -3.8708   -0.8236 H   0  0  0  0  0  0  0  0  0  0  0  0
   10.5823   -7.1548   -4.2899 H   0  0  0  0  0  0  0  0  0  0  0  0
   15.0809   -5.9546   -3.7354 H   0  0  0  0  0  0  0  0  0  0  0  0
   15.2341   -5.5021   -2.0269 H   0  0  0  0  0  0  0  0  0  0  0  0
   14.1981   -3.6718   -4.2480 H   0  0  0  0  0  0  0  0  0  0  0  0
   15.7992   -3.5881   -3.5064 H   0  0  0  0  0  0  0  0  0  0  0  0
   14.3617   -3.2287   -2.5449 H   0  0  0  0  0  0  0  0  0  0  0  0
   10.8245   -5.5145   -0.3219 H   0  0  0  0  0  0  0  0  0  0  0  0
    4.3984   -8.2488   -3.2206 H   0  0  0  0  0  0  0  0  0  0  0  0
    0.1842   -8.7521   -1.1843 H   0  0  0  0  0  0  0  0  0  0  0  0
    0.3759   -8.1212    0.4634 H   0  0  0  0  0  0  0  0  0  0  0  0
    0.0208   -6.4193   -2.0537 H   0  0  0  0  0  0  0  0  0  0  0  0
   -1.2199   -6.7326   -0.8363 H   0  0  0  0  0  0  0  0  0  0  0  0
    0.2136   -5.7916   -0.4124 H   0  0  0  0  0  0  0  0  0  0  0  0
    4.8452   -6.6610    0.7463 H   0  0  0  0  0  0  0  0  0  0  0  0
    5.9748   -9.9403   -2.8255 H   0  0  0  0  0  0  0  0  0  0  0  0
    7.5629  -11.6519   -4.0271 H   0  0  0  0  0  0  0  0  0  0  0  0
   11.1445  -14.1350   -7.4884 H   0  0  0  0  0  0  0  0  0  0  0  0
   12.9881  -13.2881   -8.8656 H   0  0  0  0  0  0  0  0  0  0  0  0
  1  2  2  0  0  0  0
  2  3  1  0  0  0  0
  3  4  2  0  0  0  0
  3  5  1  0  0  0  0
  5  6  2  0  0  0  0
  6  7  1  0  0  0  0
  7  8  2  0  0  0  0
  8  9  1  0  0  0  0
  8 10  1  0  0  0  0
 10 11  2  0  0  0  0
 11 12  1  0  0  0  0
 12 13  2  0  0  0  0
 13 14  1  0  0  0  0
 14 15  3  0  0  0  0
 13 16  1  0  0  0  0
 16 17  3  0  0  0  0
  1 18  1  0  0  0  0
 18 19  2  0  0  0  0
 19 20  1  0  0  0  0
 20 21  2  0  0  0  0
 21 22  1  0  0  0  0
 22 23  2  0  0  0  0
 23 24  1  0  0  0  0
 24 25  1  0  0  0  0
 24 26  2  0  0  0  0
 26 27  1  0  0  0  0
 27 28  1  0  0  0  0
 26 29  1  0  0  0  0
 29 30  1  0  0  0  0
 29 31  2  0  0  0  0
 21 32  1  0  0  0  0
 32 33  2  0  0  0  0
 33 34  1  0  0  0  0
 34 35  1  0  0  0  0
 35 36  2  0  0  0  0
 36 37  1  0  0  0  0
 37 38  2  0  0  0  0
 38 39  1  0  0  0  0
 39 40  1  0  0  0  0
 38 41  1  0  0  0  0
 41 42  2  0  0  0  0
 41 43  1  0  0  0  0
 37 44  1  0  0  0  0
 34 45  2  0  0  0  0
 45 46  1  0  0  0  0
 33 47  1  0  0  0  0
 47 48  2  0  0  0  0
 48 49  1  0  0  0  0
 48 50  1  0  0  0  0
 50 51  2  0  0  0  0
 51 52  1  0  0  0  0
 52 53  2  0  0  0  0
 53 54  1  0  0  0  0
 54 55  2  0  0  0  0
 55 56  1  0  0  0  0
 56 57  1  0  0  0  0
 57 58  1  0  0  0  0
 56 59  2  0  0  0  0
 51 60  1  0  0  0  0
 60 61  1  0  0  0  0
 61 62  1  0  0  0  0
 62 63  1  0  0  0  0
 63 64  1  0  0  0  0
 64 65  1  0  0  0  0
 65 66  2  0  0  0  0
 66 67  1  0  0  0  0
 67 68  1  0  0  0  0
 65 69  1  0  0  0  0
 69 70  1  0  0  0  0
 70 71  1  0  0  0  0
 71 72  1  0  0  0  0
 72 73  1  0  0  0  0
 73 74  1  0  0  0  0
 74 75  2  0  0  0  0
 75 76  1  0  0  0  0
 76 77  2  0  0  0  0
 77 78  1  0  0  0  0
 78 79  1  0  0  0  0
 79 80  1  0  0  0  0
 78 81  2  0  0  0  0
 73 82  2  0  0  0  0
 82 83  1  0  0  0  0
 83 84  1  0  0  0  0
 84 85  1  0  0  0  0
 85 86  1  0  0  0  0
 86 87  1  0  0  0  0
 87 88  1  0  0  0  0
 88 89  1  0  0  0  0
 89 90  1  0  0  0  0
 90 91  1  0  0  0  0
 91 92  1  0  0  0  0
 89 93  1  0  0  0  0
 93 94  1  0  0  0  0
 86 95  1  0  0  0  0
 95 96  1  0  0  0  0
 82 97  1  0  0  0  0
 97 98  2  0  0  0  0
 98 99  1  0  0  0  0
 99100  2  0  0  0  0
100101  1  0  0  0  0
101102  2  0  0  0  0
102103  1  0  0  0  0
103104  1  0  0  0  0
103105  2  0  0  0  0
105106  1  0  0  0  0
106107  1  0  0  0  0
105108  1  0  0  0  0
108109  1  0  0  0  0
108110  2  0  0  0  0
100111  1  0  0  0  0
111112  2  0  0  0  0
112113  1  0  0  0  0
113114  1  0  0  0  0
114115  2  0  0  0  0
115116  1  0  0  0  0
116117  2  0  0  0  0
117118  1  0  0  0  0
118119  1  0  0  0  0
117120  1  0  0  0  0
120121  2  0  0  0  0
120122  1  0  0  0  0
116123  1  0  0  0  0
113124  2  0  0  0  0
124125  1  0  0  0  0
112126  1  0  0  0  0
126127  2  0  0  0  0
127128  1  0  0  0  0
127129  1  0  0  0  0
129130  2  0  0  0  0
130131  1  0  0  0  0
131132  2  0  0  0  0
131133  1  0  0  0  0
133134  2  0  0  0  0
134135  1  0  0  0  0
135136  2  0  0  0  0
136137  1  0  0  0  0
137138  1  0  0  0  0
137139  2  0  0  0  0
139140  1  0  0  0  0
134141  1  0  0  0  0
141142  2  0  0  0  0
142143  1  0  0  0  0
143144  3  0  0  0  0
142145  1  0  0  0  0
145146  3  0  0  0  0
 12  2  1  0  0  0  0
 46 18  1  0  0  0  0
 92 50  1  0  0  0  0
125 97  1  0  0  0  0
141130  1  0  0  0  0
 11  5  1  0  0  0  0
 45 20  1  0  0  0  0
 59 52  1  0  0  0  0
 91 60  2  0  0  0  0
124 99  1  0  0  0  0
139133  1  0  0  0  0
 31 22  1  0  0  0  0
 49 32  1  0  0  0  0
 90 62  2  0  0  0  0
110101  1  0  0  0  0
128111  1  0  0  0  0
 42 35  1  0  0  0  0
 88 63  2  0  0  0  0
121114  1  0  0  0  0
 68 64  2  0  0  0  0
 87 69  2  0  0  0  0
 85 70  2  0  0  0  0
 84 72  2  0  0  0  0
 81 74  1  0  0  0  0
  1147  1  0  0  0  0
  6148  1  0  0  0  0
  7149  1  0  0  0  0
  9150  1  0  0  0  0
  9151  1  0  0  0  0
  9152  1  0  0  0  0
 10153  1  0  0  0  0
 19154  1  0  0  0  0
 23155  1  0  0  0  0
 27156  1  0  0  0  0
 27157  1  0  0  0  0
 28158  1  0  0  0  0
 28159  1  0  0  0  0
 28160  1  0  0  0  0
 31161  1  0  0  0  0
 36162  1  0  0  0  0
 39163  1  0  0  0  0
 39164  1  0  0  0  0
 40165  1  0  0  0  0
 40166  1  0  0  0  0
 40167  1  0  0  0  0
 42168  1  0  0  0  0
 47169  1  0  0  0  0
 53170  1  0  0  0  0
 54171  1  0  0  0  0
 55172  1  0  0  0  0
 57173  1  0  0  0  0
 57174  1  0  0  0  0
 58175  1  0  0  0  0
 58176  1  0  0  0  0
 58177  1  0  0  0  0
 59178  1  0  0  0  0
 75179  1  0  0  0  0
 76180  1  0  0  0  0
 77181  1  0  0  0  0
 79182  1  0  0  0  0
 79183  1  0  0  0  0
 80184  1  0  0  0  0
 80185  1  0  0  0  0
 80186  1  0  0  0  0
 81187  1  0  0  0  0
 93188  1  0  0  0  0
 93189  1  0  0  0  0
 94190  1  0  0  0  0
 94191  1  0  0  0  0
 94192  1  0  0  0  0
 95193  1  0  0  0  0
 95194  1  0  0  0  0
 96195  1  0  0  0  0
 96196  1  0  0  0  0
 96197  1  0  0  0  0
 98198  1  0  0  0  0
102199  1  0  0  0  0
106200  1  0  0  0  0
106201  1  0  0  0  0
107202  1  0  0  0  0
107203  1  0  0  0  0
107204  1  0  0  0  0
110205  1  0  0  0  0
115206  1  0  0  0  0
118207  1  0  0  0  0
118208  1  0  0  0  0
119209  1  0  0  0  0
119210  1  0  0  0  0
119211  1  0  0  0  0
121212  1  0  0  0  0
126213  1  0  0  0  0
129214  1  0  0  0  0
135215  1  0  0  0  0
136216  1  0  0  0  0
M  END
