
  xtb     02062201013D
 energy: -409.461616127865 gnorm: 0.000549090111 xtb: 6.4.1 (unknown)
255280  0     0  0            999 V2000
    6.0003    8.7542    6.2903 C   0  0  0  0  0  0  0  0  0  0  0  0
    5.8820    9.9325    5.5840 C   0  0  0  0  0  0  0  0  0  0  0  0
    4.7583   10.3260    4.7307 C   0  0  0  0  0  0  0  0  0  0  0  0
    3.7935    9.6549    4.4030 O   0  0  0  0  0  0  0  0  0  0  0  0
    5.0112   11.7268    4.3488 C   0  0  0  0  0  0  0  0  0  0  0  0
    4.2485   12.5719    3.5688 C   0  0  0  0  0  0  0  0  0  0  0  0
    4.7047   13.8648    3.3584 C   0  0  0  0  0  0  0  0  0  0  0  0
    5.9002   14.3078    3.9159 C   0  0  0  0  0  0  0  0  0  0  0  0
    6.3646   15.7136    3.6993 C   0  0  0  0  0  0  0  0  0  0  0  0
    6.6656   13.4449    4.7020 C   0  0  0  0  0  0  0  0  0  0  0  0
    6.2227   12.1535    4.9198 C   0  0  0  0  0  0  0  0  0  0  0  0
    6.8049   11.0367    5.6671 C   0  0  0  0  0  0  0  0  0  0  0  0
    8.0278   11.0585    6.2958 C   0  0  0  0  0  0  0  0  0  0  0  0
    8.6623    9.9545    6.8949 C   0  0  0  0  0  0  0  0  0  0  0  0
    9.2710    9.1019    7.3706 N   0  0  0  0  0  0  0  0  0  0  0  0
    8.8462   12.2002    6.3940 C   0  0  0  0  0  0  0  0  0  0  0  0
    9.5546   13.0946    6.5315 N   0  0  0  0  0  0  0  0  0  0  0  0
    5.1928    7.6216    6.3025 C   0  0  0  0  0  0  0  0  0  0  0  0
    5.4469    6.4938    7.1282 C   0  0  0  0  0  0  0  0  0  0  0  0
    6.3301    6.4480    8.1694 N   0  0  0  0  0  0  0  0  0  0  0  0
    6.6176    7.5591    8.9855 C   0  0  0  0  0  0  0  0  0  0  0  0
    5.6313    8.4857    9.3133 C   0  0  0  0  0  0  0  0  0  0  0  0
    5.9448    9.5778   10.0973 C   0  0  0  0  0  0  0  0  0  0  0  0
    7.2314    9.7638   10.5897 C   0  0  0  0  0  0  0  0  0  0  0  0
    7.5837   10.9658   11.4104 C   0  0  0  0  0  0  0  0  0  0  0  0
    8.1974    8.8104   10.2906 C   0  0  0  0  0  0  0  0  0  0  0  0
    7.9029    7.7210    9.4956 C   0  0  0  0  0  0  0  0  0  0  0  0
    6.8642    5.1981    8.5488 C   0  0  0  0  0  0  0  0  0  0  0  0
    6.8265    4.7912    9.8780 C   0  0  0  0  0  0  0  0  0  0  0  0
    7.3349    3.5589   10.2358 C   0  0  0  0  0  0  0  0  0  0  0  0
    7.8915    2.7086    9.2873 C   0  0  0  0  0  0  0  0  0  0  0  0
    8.4066    1.3579    9.6776 C   0  0  0  0  0  0  0  0  0  0  0  0
    7.9391    3.1326    7.9649 C   0  0  0  0  0  0  0  0  0  0  0  0
    7.4349    4.3631    7.5934 C   0  0  0  0  0  0  0  0  0  0  0  0
    4.6481    5.4050    6.7398 C   0  0  0  0  0  0  0  0  0  0  0  0
    4.4759    3.7761    7.3077 S   0  0  0  0  0  0  0  0  0  0  0  0
    3.2115    3.4794    6.1281 C   0  0  0  0  0  0  0  0  0  0  0  0
    2.8970    4.6143    5.3888 C   0  0  0  0  0  0  0  0  0  0  0  0
    1.8651    4.7249    4.4736 N   0  0  0  0  0  0  0  0  0  0  0  0
    2.0166    5.6354    3.4114 C   0  0  0  0  0  0  0  0  0  0  0  0
    0.9834    6.5031    3.0740 C   0  0  0  0  0  0  0  0  0  0  0  0
    1.1640    7.4344    2.0717 C   0  0  0  0  0  0  0  0  0  0  0  0
    2.3689    7.5273    1.3862 C   0  0  0  0  0  0  0  0  0  0  0  0
    2.5856    8.5849    0.3486 C   0  0  0  0  0  0  0  0  0  0  0  0
    3.3845    6.6366    1.7100 C   0  0  0  0  0  0  0  0  0  0  0  0
    3.2148    5.6962    2.7060 C   0  0  0  0  0  0  0  0  0  0  0  0
    0.6589    4.0306    4.6253 C   0  0  0  0  0  0  0  0  0  0  0  0
    0.1208    3.7713    5.8840 C   0  0  0  0  0  0  0  0  0  0  0  0
   -1.0189    3.0007    6.0049 C   0  0  0  0  0  0  0  0  0  0  0  0
   -1.6535    2.4669    4.8907 C   0  0  0  0  0  0  0  0  0  0  0  0
   -2.8389    1.5638    5.0402 C   0  0  0  0  0  0  0  0  0  0  0  0
   -1.1397    2.7732    3.6358 C   0  0  0  0  0  0  0  0  0  0  0  0
   -0.0059    3.5469    3.4983 C   0  0  0  0  0  0  0  0  0  0  0  0
    3.7457    5.6974    5.7259 C   0  0  0  0  0  0  0  0  0  0  0  0
    3.8515    7.3351    5.1873 S   0  0  0  0  0  0  0  0  0  0  0  0
    2.5922    2.1964    5.9781 C   0  0  0  0  0  0  0  0  0  0  0  0
    1.9676    1.4010    6.9155 C   0  0  0  0  0  0  0  0  0  0  0  0
    2.0364    1.5832    8.3676 C   0  0  0  0  0  0  0  0  0  0  0  0
    3.2637    1.6007    9.0230 C   0  0  0  0  0  0  0  0  0  0  0  0
    3.3102    1.7707   10.3940 C   0  0  0  0  0  0  0  0  0  0  0  0
    2.1402    1.9074   11.1198 C   0  0  0  0  0  0  0  0  0  0  0  0
    0.9051    1.8561   10.4853 C   0  0  0  0  0  0  0  0  0  0  0  0
   -0.3713    2.0204   11.2596 C   0  0  0  0  0  0  0  0  0  0  0  0
   -0.8370    3.4773   11.2225 C   0  0  0  0  0  0  0  0  0  0  0  0
    0.8663    1.6934    9.1091 C   0  0  0  0  0  0  0  0  0  0  0  0
    1.1939    0.3957    6.2968 C   0  0  0  0  0  0  0  0  0  0  0  0
    0.0739   -0.7876    6.9269 S   0  0  0  0  0  0  0  0  0  0  0  0
   -0.2787   -1.2845    5.3047 C   0  0  0  0  0  0  0  0  0  0  0  0
   -1.0745   -2.2204    4.6190 C   0  0  0  0  0  0  0  0  0  0  0  0
   -1.8979   -3.2639    5.0932 C   0  0  0  0  0  0  0  0  0  0  0  0
   -2.4796   -4.1747    4.1475 C   0  0  0  0  0  0  0  0  0  0  0  0
   -3.1704   -5.1401    4.7340 N   0  0  0  0  0  0  0  0  0  0  0  0
   -3.1037   -4.9169    6.3369 S   0  0  0  0  0  0  0  0  0  0  0  0
   -2.1871   -3.5818    6.3455 N   0  0  0  0  0  0  0  0  0  0  0  0
   -2.3122   -3.9249    2.7690 C   0  0  0  0  0  0  0  0  0  0  0  0
   -2.8591   -4.5553    1.6380 C   0  0  0  0  0  0  0  0  0  0  0  0
   -3.8418   -5.9212    1.2366 S   0  0  0  0  0  0  0  0  0  0  0  0
   -3.7304   -5.4932   -0.4561 C   0  0  0  0  0  0  0  0  0  0  0  0
   -4.2128   -6.1070   -1.6428 C   0  0  0  0  0  0  0  0  0  0  0  0
   -4.9779   -7.3540   -1.6327 C   0  0  0  0  0  0  0  0  0  0  0  0
   -4.7196   -8.3093   -0.6511 C   0  0  0  0  0  0  0  0  0  0  0  0
   -5.4537   -9.4780   -0.6037 C   0  0  0  0  0  0  0  0  0  0  0  0
   -6.4485   -9.7143   -1.5333 C   0  0  0  0  0  0  0  0  0  0  0  0
   -6.7172   -8.7801   -2.5269 C   0  0  0  0  0  0  0  0  0  0  0  0
   -7.7726   -9.0699   -3.5559 C   0  0  0  0  0  0  0  0  0  0  0  0
   -7.3101  -10.1834   -4.4972 C   0  0  0  0  0  0  0  0  0  0  0  0
   -5.9833   -7.6051   -2.5631 C   0  0  0  0  0  0  0  0  0  0  0  0
   -3.8045   -5.4058   -2.7557 C   0  0  0  0  0  0  0  0  0  0  0  0
   -2.8863   -3.9558   -2.3400 S   0  0  0  0  0  0  0  0  0  0  0  0
   -2.9855   -4.3366   -0.6650 C   0  0  0  0  0  0  0  0  0  0  0  0
   -2.4753   -3.8057    0.5276 C   0  0  0  0  0  0  0  0  0  0  0  0
   -1.7018   -2.7468    0.9216 N   0  0  0  0  0  0  0  0  0  0  0  0
   -1.5629   -2.8111    2.2963 C   0  0  0  0  0  0  0  0  0  0  0  0
   -0.8371   -2.0254    3.2302 C   0  0  0  0  0  0  0  0  0  0  0  0
    0.1008   -1.0119    3.0820 N   0  0  0  0  0  0  0  0  0  0  0  0
    0.4380   -0.5794    4.3387 C   0  0  0  0  0  0  0  0  0  0  0  0
    1.2810    0.3829    4.9067 C   0  0  0  0  0  0  0  0  0  0  0  0
    2.3539    1.6054    4.3346 S   0  0  0  0  0  0  0  0  0  0  0  0
    1.0593   -0.7978    2.0195 C   0  0  0  0  0  0  0  0  0  0  0  0
    2.0515   -1.9566    1.9407 C   0  0  0  0  0  0  0  0  0  0  0  0
   -1.4644   -1.6542    0.0073 C   0  0  0  0  0  0  0  0  0  0  0  0
   -0.3286   -1.9537   -0.9707 C   0  0  0  0  0  0  0  0  0  0  0  0
   -3.7840   -5.6861   -4.1714 C   0  0  0  0  0  0  0  0  0  0  0  0
   -2.5983   -5.7927   -4.8817 C   0  0  0  0  0  0  0  0  0  0  0  0
   -1.3438   -5.8771   -4.3059 N   0  0  0  0  0  0  0  0  0  0  0  0
   -0.2613   -5.2529   -4.9472 C   0  0  0  0  0  0  0  0  0  0  0  0
   -0.4202   -4.0055   -5.5447 C   0  0  0  0  0  0  0  0  0  0  0  0
    0.6336   -3.4203   -6.2165 C   0  0  0  0  0  0  0  0  0  0  0  0
    1.8687   -4.0507   -6.2989 C   0  0  0  0  0  0  0  0  0  0  0  0
    2.9888   -3.4288   -7.0744 C   0  0  0  0  0  0  0  0  0  0  0  0
    2.0270   -5.2795   -5.6705 C   0  0  0  0  0  0  0  0  0  0  0  0
    0.9788   -5.8802   -5.0027 C   0  0  0  0  0  0  0  0  0  0  0  0
   -1.1509   -6.5328   -3.0816 C   0  0  0  0  0  0  0  0  0  0  0  0
   -1.8049   -7.7280   -2.8016 C   0  0  0  0  0  0  0  0  0  0  0  0
   -1.6420   -8.3381   -1.5734 C   0  0  0  0  0  0  0  0  0  0  0  0
   -0.8480   -7.7676   -0.5874 C   0  0  0  0  0  0  0  0  0  0  0  0
   -0.7337   -8.3853    0.7723 C   0  0  0  0  0  0  0  0  0  0  0  0
   -0.1756   -6.5870   -0.8851 C   0  0  0  0  0  0  0  0  0  0  0  0
   -0.3106   -5.9805   -2.1164 C   0  0  0  0  0  0  0  0  0  0  0  0
   -2.8231   -5.8000   -6.2798 C   0  0  0  0  0  0  0  0  0  0  0  0
   -1.7677   -5.8000   -7.6447 S   0  0  0  0  0  0  0  0  0  0  0  0
   -3.1591   -5.6725   -8.7237 C   0  0  0  0  0  0  0  0  0  0  0  0
   -4.3793   -5.5474   -8.0085 C   0  0  0  0  0  0  0  0  0  0  0  0
   -5.5967   -5.2737   -8.5682 N   0  0  0  0  0  0  0  0  0  0  0  0
   -5.7455   -4.4377   -9.6912 C   0  0  0  0  0  0  0  0  0  0  0  0
   -4.9221   -3.3288   -9.8706 C   0  0  0  0  0  0  0  0  0  0  0  0
   -5.0694   -2.5336  -10.9891 C   0  0  0  0  0  0  0  0  0  0  0  0
   -6.0453   -2.8057  -11.9411 C   0  0  0  0  0  0  0  0  0  0  0  0
   -6.1871   -1.9645  -13.1718 C   0  0  0  0  0  0  0  0  0  0  0  0
   -6.8866   -3.8921  -11.7320 C   0  0  0  0  0  0  0  0  0  0  0  0
   -6.7424   -4.7053  -10.6259 C   0  0  0  0  0  0  0  0  0  0  0  0
   -6.7613   -5.7514   -7.9362 C   0  0  0  0  0  0  0  0  0  0  0  0
   -7.8501   -4.9089   -7.7305 C   0  0  0  0  0  0  0  0  0  0  0  0
   -8.9939   -5.3953   -7.1322 C   0  0  0  0  0  0  0  0  0  0  0  0
   -9.0866   -6.7258   -6.7362 C   0  0  0  0  0  0  0  0  0  0  0  0
  -10.3336   -7.2371   -6.0831 C   0  0  0  0  0  0  0  0  0  0  0  0
   -7.9963   -7.5579   -6.9532 C   0  0  0  0  0  0  0  0  0  0  0  0
   -6.8400   -7.0812   -7.5386 C   0  0  0  0  0  0  0  0  0  0  0  0
   -4.1625   -5.6725   -6.6254 C   0  0  0  0  0  0  0  0  0  0  0  0
   -5.1880   -5.6190   -5.2254 S   0  0  0  0  0  0  0  0  0  0  0  0
   -3.1009   -5.7789  -10.1108 C   0  0  0  0  0  0  0  0  0  0  0  0
   -2.0170   -5.8307  -10.9599 C   0  0  0  0  0  0  0  0  0  0  0  0
   -0.6112   -5.6549  -10.5842 C   0  0  0  0  0  0  0  0  0  0  0  0
   -0.1430   -5.5444   -9.4632 O   0  0  0  0  0  0  0  0  0  0  0  0
    0.1436   -5.6143  -11.8490 C   0  0  0  0  0  0  0  0  0  0  0  0
    1.4993   -5.4564  -12.0535 C   0  0  0  0  0  0  0  0  0  0  0  0
    1.9727   -5.4534  -13.3570 C   0  0  0  0  0  0  0  0  0  0  0  0
    1.1101   -5.6064  -14.4385 C   0  0  0  0  0  0  0  0  0  0  0  0
    1.6434   -5.6255  -15.8364 C   0  0  0  0  0  0  0  0  0  0  0  0
   -0.2590   -5.7681  -14.2215 C   0  0  0  0  0  0  0  0  0  0  0  0
   -0.7448   -5.7708  -12.9269 C   0  0  0  0  0  0  0  0  0  0  0  0
   -2.0998   -5.9326  -12.3960 C   0  0  0  0  0  0  0  0  0  0  0  0
   -3.2240   -6.1583  -13.1545 C   0  0  0  0  0  0  0  0  0  0  0  0
   -4.5086   -6.4427  -12.6552 C   0  0  0  0  0  0  0  0  0  0  0  0
   -5.5813   -6.7120  -12.3386 N   0  0  0  0  0  0  0  0  0  0  0  0
   -3.2402   -6.1607  -14.5629 C   0  0  0  0  0  0  0  0  0  0  0  0
   -3.3334   -6.1576  -15.7082 N   0  0  0  0  0  0  0  0  0  0  0  0
    6.8602    8.6882    6.9444 H   0  0  0  0  0  0  0  0  0  0  0  0
    3.3219   12.2234    3.1386 H   0  0  0  0  0  0  0  0  0  0  0  0
    4.1238   14.5434    2.7506 H   0  0  0  0  0  0  0  0  0  0  0  0
    7.4497   15.7574    3.6437 H   0  0  0  0  0  0  0  0  0  0  0  0
    6.0490   16.3382    4.5357 H   0  0  0  0  0  0  0  0  0  0  0  0
    5.9425   16.1300    2.7881 H   0  0  0  0  0  0  0  0  0  0  0  0
    7.5898   13.8016    5.1276 H   0  0  0  0  0  0  0  0  0  0  0  0
    4.6254    8.3527    8.9428 H   0  0  0  0  0  0  0  0  0  0  0  0
    5.1725   10.2952   10.3349 H   0  0  0  0  0  0  0  0  0  0  0  0
    6.6931   11.5200   11.6960 H   0  0  0  0  0  0  0  0  0  0  0  0
    8.2335   11.6285   10.8386 H   0  0  0  0  0  0  0  0  0  0  0  0
    8.1205   10.6724   12.3107 H   0  0  0  0  0  0  0  0  0  0  0  0
    9.2015    8.9338   10.6666 H   0  0  0  0  0  0  0  0  0  0  0  0
    8.6684    7.0015    9.2517 H   0  0  0  0  0  0  0  0  0  0  0  0
    6.3904    5.4417   10.6215 H   0  0  0  0  0  0  0  0  0  0  0  0
    7.2939    3.2491   11.2698 H   0  0  0  0  0  0  0  0  0  0  0  0
    9.2192    1.0483    9.0248 H   0  0  0  0  0  0  0  0  0  0  0  0
    8.7591    1.3581   10.7062 H   0  0  0  0  0  0  0  0  0  0  0  0
    7.6085    0.6192    9.5948 H   0  0  0  0  0  0  0  0  0  0  0  0
    8.3802    2.4921    7.2154 H   0  0  0  0  0  0  0  0  0  0  0  0
    7.4830    4.6873    6.5644 H   0  0  0  0  0  0  0  0  0  0  0  0
    0.0490    6.4526    3.6137 H   0  0  0  0  0  0  0  0  0  0  0  0
    0.3602    8.1151    1.8313 H   0  0  0  0  0  0  0  0  0  0  0  0
    1.6398    8.9325   -0.0601 H   0  0  0  0  0  0  0  0  0  0  0  0
    3.2087    8.2145   -0.4629 H   0  0  0  0  0  0  0  0  0  0  0  0
    3.0944    9.4364    0.8014 H   0  0  0  0  0  0  0  0  0  0  0  0
    4.3242    6.6840    1.1788 H   0  0  0  0  0  0  0  0  0  0  0  0
    4.0114    5.0083    2.9509 H   0  0  0  0  0  0  0  0  0  0  0  0
    0.6016    4.1697    6.7657 H   0  0  0  0  0  0  0  0  0  0  0  0
   -1.4239    2.8062    6.9875 H   0  0  0  0  0  0  0  0  0  0  0  0
   -3.4948    1.6339    4.1754 H   0  0  0  0  0  0  0  0  0  0  0  0
   -3.4055    1.8105    5.9350 H   0  0  0  0  0  0  0  0  0  0  0  0
   -2.5084    0.5273    5.1287 H   0  0  0  0  0  0  0  0  0  0  0  0
   -1.6267    2.3853    2.7523 H   0  0  0  0  0  0  0  0  0  0  0  0
    0.3953    3.7598    2.5184 H   0  0  0  0  0  0  0  0  0  0  0  0
    4.1747    1.4534    8.4623 H   0  0  0  0  0  0  0  0  0  0  0  0
    4.2661    1.7930   10.8963 H   0  0  0  0  0  0  0  0  0  0  0  0
    2.1836    2.0407   12.1914 H   0  0  0  0  0  0  0  0  0  0  0  0
   -1.1463    1.3832   10.8289 H   0  0  0  0  0  0  0  0  0  0  0  0
   -0.2173    1.7174   12.2969 H   0  0  0  0  0  0  0  0  0  0  0  0
   -1.0062    3.7957   10.1962 H   0  0  0  0  0  0  0  0  0  0  0  0
   -0.0826    4.1271   11.6607 H   0  0  0  0  0  0  0  0  0  0  0  0
   -1.7634    3.5955   11.7797 H   0  0  0  0  0  0  0  0  0  0  0  0
   -0.0858    1.6539    8.6011 H   0  0  0  0  0  0  0  0  0  0  0  0
   -3.9364   -8.1438    0.0699 H   0  0  0  0  0  0  0  0  0  0  0  0
   -5.2489  -10.2070    0.1668 H   0  0  0  0  0  0  0  0  0  0  0  0
   -7.0277  -10.6253   -1.4847 H   0  0  0  0  0  0  0  0  0  0  0  0
   -7.9853   -8.1683   -4.1326 H   0  0  0  0  0  0  0  0  0  0  0  0
   -8.6923   -9.3842   -3.0558 H   0  0  0  0  0  0  0  0  0  0  0  0
   -7.0525  -11.0776   -3.9345 H   0  0  0  0  0  0  0  0  0  0  0  0
   -6.4298   -9.8655   -5.0520 H   0  0  0  0  0  0  0  0  0  0  0  0
   -8.0967  -10.4427   -5.2028 H   0  0  0  0  0  0  0  0  0  0  0  0
   -6.2173   -6.8611   -3.3094 H   0  0  0  0  0  0  0  0  0  0  0  0
    1.5893    0.1271    2.2613 H   0  0  0  0  0  0  0  0  0  0  0  0
    0.5672   -0.6568    1.0625 H   0  0  0  0  0  0  0  0  0  0  0  0
    2.7743   -1.7762    1.1495 H   0  0  0  0  0  0  0  0  0  0  0  0
    2.5857   -2.0577    2.8827 H   0  0  0  0  0  0  0  0  0  0  0  0
    1.5310   -2.8912    1.7406 H   0  0  0  0  0  0  0  0  0  0  0  0
   -2.3844   -1.5013   -0.5688 H   0  0  0  0  0  0  0  0  0  0  0  0
   -1.2870   -0.7454    0.5842 H   0  0  0  0  0  0  0  0  0  0  0  0
    0.5755   -2.2581   -0.4514 H   0  0  0  0  0  0  0  0  0  0  0  0
   -0.1145   -1.0728   -1.5700 H   0  0  0  0  0  0  0  0  0  0  0  0
   -0.6220   -2.7578   -1.6399 H   0  0  0  0  0  0  0  0  0  0  0  0
   -1.3736   -3.5008   -5.4781 H   0  0  0  0  0  0  0  0  0  0  0  0
    0.4946   -2.4578   -6.6873 H   0  0  0  0  0  0  0  0  0  0  0  0
    3.0054   -2.3493   -6.9374 H   0  0  0  0  0  0  0  0  0  0  0  0
    3.9496   -3.8392   -6.7728 H   0  0  0  0  0  0  0  0  0  0  0  0
    2.8496   -3.6296   -8.1368 H   0  0  0  0  0  0  0  0  0  0  0  0
    2.9815   -5.7839   -5.7181 H   0  0  0  0  0  0  0  0  0  0  0  0
    1.1084   -6.8432   -4.5308 H   0  0  0  0  0  0  0  0  0  0  0  0
   -2.4466   -8.1736   -3.5476 H   0  0  0  0  0  0  0  0  0  0  0  0
   -2.1505   -9.2712   -1.3802 H   0  0  0  0  0  0  0  0  0  0  0  0
   -1.1104   -9.4050    0.7690 H   0  0  0  0  0  0  0  0  0  0  0  0
   -1.3141   -7.8084    1.4938 H   0  0  0  0  0  0  0  0  0  0  0  0
    0.3012   -8.3926    1.1095 H   0  0  0  0  0  0  0  0  0  0  0  0
    0.4547   -6.1314   -0.1344 H   0  0  0  0  0  0  0  0  0  0  0  0
    0.2180   -5.0645   -2.3377 H   0  0  0  0  0  0  0  0  0  0  0  0
   -4.1625   -3.0999   -9.1374 H   0  0  0  0  0  0  0  0  0  0  0  0
   -4.4173   -1.6820  -11.1203 H   0  0  0  0  0  0  0  0  0  0  0  0
   -7.2253   -1.6732  -13.3202 H   0  0  0  0  0  0  0  0  0  0  0  0
   -5.5758   -1.0680  -13.1060 H   0  0  0  0  0  0  0  0  0  0  0  0
   -5.8740   -2.5317  -14.0486 H   0  0  0  0  0  0  0  0  0  0  0  0
   -7.6532   -4.1191  -12.4573 H   0  0  0  0  0  0  0  0  0  0  0  0
   -7.3875   -5.5588  -10.4901 H   0  0  0  0  0  0  0  0  0  0  0  0
   -7.7898   -3.8763   -8.0409 H   0  0  0  0  0  0  0  0  0  0  0  0
   -9.8317   -4.7330   -6.9699 H   0  0  0  0  0  0  0  0  0  0  0  0
  -10.3269   -8.3224   -6.0252 H   0  0  0  0  0  0  0  0  0  0  0  0
  -10.4166   -6.8399   -5.0712 H   0  0  0  0  0  0  0  0  0  0  0  0
  -11.2149   -6.9196   -6.6372 H   0  0  0  0  0  0  0  0  0  0  0  0
   -8.0548   -8.5984   -6.6760 H   0  0  0  0  0  0  0  0  0  0  0  0
   -6.0011   -7.7396   -7.7108 H   0  0  0  0  0  0  0  0  0  0  0  0
   -4.0710   -5.8221  -10.5888 H   0  0  0  0  0  0  0  0  0  0  0  0
    2.1646   -5.3414  -11.2115 H   0  0  0  0  0  0  0  0  0  0  0  0
    3.0303   -5.3313  -13.5407 H   0  0  0  0  0  0  0  0  0  0  0  0
    1.8535   -6.6530  -16.1354 H   0  0  0  0  0  0  0  0  0  0  0  0
    2.5676   -5.0575  -15.9107 H   0  0  0  0  0  0  0  0  0  0  0  0
    0.9155   -5.2183  -16.5338 H   0  0  0  0  0  0  0  0  0  0  0  0
   -0.9155   -5.8871  -15.0684 H   0  0  0  0  0  0  0  0  0  0  0  0
  1  2  2  0  0  0  0
  2  3  1  0  0  0  0
  3  4  2  0  0  0  0
  3  5  1  0  0  0  0
  5  6  2  0  0  0  0
  6  7  1  0  0  0  0
  7  8  2  0  0  0  0
  8  9  1  0  0  0  0
  8 10  1  0  0  0  0
 10 11  2  0  0  0  0
 11 12  1  0  0  0  0
 12 13  2  0  0  0  0
 13 14  1  0  0  0  0
 14 15  3  0  0  0  0
 13 16  1  0  0  0  0
 16 17  3  0  0  0  0
  1 18  1  0  0  0  0
 18 19  2  0  0  0  0
 19 20  1  0  0  0  0
 20 21  1  0  0  0  0
 21 22  2  0  0  0  0
 22 23  1  0  0  0  0
 23 24  2  0  0  0  0
 24 25  1  0  0  0  0
 24 26  1  0  0  0  0
 26 27  2  0  0  0  0
 20 28  1  0  0  0  0
 28 29  2  0  0  0  0
 29 30  1  0  0  0  0
 30 31  2  0  0  0  0
 31 32  1  0  0  0  0
 31 33  1  0  0  0  0
 33 34  2  0  0  0  0
 19 35  1  0  0  0  0
 35 36  1  0  0  0  0
 36 37  1  0  0  0  0
 37 38  2  0  0  0  0
 38 39  1  0  0  0  0
 39 40  1  0  0  0  0
 40 41  2  0  0  0  0
 41 42  1  0  0  0  0
 42 43  2  0  0  0  0
 43 44  1  0  0  0  0
 43 45  1  0  0  0  0
 45 46  2  0  0  0  0
 39 47  1  0  0  0  0
 47 48  2  0  0  0  0
 48 49  1  0  0  0  0
 49 50  2  0  0  0  0
 50 51  1  0  0  0  0
 50 52  1  0  0  0  0
 52 53  2  0  0  0  0
 38 54  1  0  0  0  0
 54 55  1  0  0  0  0
 37 56  1  0  0  0  0
 56 57  2  0  0  0  0
 57 58  1  0  0  0  0
 58 59  2  0  0  0  0
 59 60  1  0  0  0  0
 60 61  2  0  0  0  0
 61 62  1  0  0  0  0
 62 63  1  0  0  0  0
 63 64  1  0  0  0  0
 62 65  2  0  0  0  0
 57 66  1  0  0  0  0
 66 67  1  0  0  0  0
 67 68  1  0  0  0  0
 68 69  1  0  0  0  0
 69 70  1  0  0  0  0
 70 71  1  0  0  0  0
 71 72  2  0  0  0  0
 72 73  1  0  0  0  0
 73 74  1  0  0  0  0
 71 75  1  0  0  0  0
 75 76  1  0  0  0  0
 76 77  1  0  0  0  0
 77 78  1  0  0  0  0
 78 79  1  0  0  0  0
 79 80  1  0  0  0  0
 80 81  2  0  0  0  0
 81 82  1  0  0  0  0
 82 83  2  0  0  0  0
 83 84  1  0  0  0  0
 84 85  1  0  0  0  0
 85 86  1  0  0  0  0
 84 87  2  0  0  0  0
 79 88  2  0  0  0  0
 88 89  1  0  0  0  0
 89 90  1  0  0  0  0
 90 91  1  0  0  0  0
 91 92  1  0  0  0  0
 92 93  1  0  0  0  0
 93 94  1  0  0  0  0
 94 95  1  0  0  0  0
 95 96  1  0  0  0  0
 96 97  1  0  0  0  0
 97 98  1  0  0  0  0
 95 99  1  0  0  0  0
 99100  1  0  0  0  0
 92101  1  0  0  0  0
101102  1  0  0  0  0
 88103  1  0  0  0  0
103104  2  0  0  0  0
104105  1  0  0  0  0
105106  1  0  0  0  0
106107  2  0  0  0  0
107108  1  0  0  0  0
108109  2  0  0  0  0
109110  1  0  0  0  0
109111  1  0  0  0  0
111112  2  0  0  0  0
105113  1  0  0  0  0
113114  2  0  0  0  0
114115  1  0  0  0  0
115116  2  0  0  0  0
116117  1  0  0  0  0
116118  1  0  0  0  0
118119  2  0  0  0  0
104120  1  0  0  0  0
120121  1  0  0  0  0
121122  1  0  0  0  0
122123  2  0  0  0  0
123124  1  0  0  0  0
124125  1  0  0  0  0
125126  2  0  0  0  0
126127  1  0  0  0  0
127128  2  0  0  0  0
128129  1  0  0  0  0
128130  1  0  0  0  0
130131  2  0  0  0  0
124132  1  0  0  0  0
132133  2  0  0  0  0
133134  1  0  0  0  0
134135  2  0  0  0  0
135136  1  0  0  0  0
135137  1  0  0  0  0
137138  2  0  0  0  0
123139  1  0  0  0  0
139140  1  0  0  0  0
122141  1  0  0  0  0
141142  2  0  0  0  0
142143  1  0  0  0  0
143144  2  0  0  0  0
143145  1  0  0  0  0
145146  2  0  0  0  0
146147  1  0  0  0  0
147148  2  0  0  0  0
148149  1  0  0  0  0
148150  1  0  0  0  0
150151  2  0  0  0  0
151152  1  0  0  0  0
152153  2  0  0  0  0
153154  1  0  0  0  0
154155  3  0  0  0  0
153156  1  0  0  0  0
156157  3  0  0  0  0
 12  2  1  0  0  0  0
 55 18  1  0  0  0  0
 98 56  1  0  0  0  0
140103  1  0  0  0  0
152142  1  0  0  0  0
 11  5  1  0  0  0  0
 27 21  1  0  0  0  0
 34 28  1  0  0  0  0
 54 35  2  0  0  0  0
 65 58  1  0  0  0  0
 97 66  2  0  0  0  0
112106  1  0  0  0  0
119113  1  0  0  0  0
139120  2  0  0  0  0
151145  1  0  0  0  0
 46 40  1  0  0  0  0
 53 47  1  0  0  0  0
 96 68  2  0  0  0  0
131125  1  0  0  0  0
138132  1  0  0  0  0
 94 69  2  0  0  0  0
 74 70  2  0  0  0  0
 93 75  2  0  0  0  0
 91 76  2  0  0  0  0
 90 78  2  0  0  0  0
 87 80  1  0  0  0  0
  1158  1  0  0  0  0
  6159  1  0  0  0  0
  7160  1  0  0  0  0
  9161  1  0  0  0  0
  9162  1  0  0  0  0
  9163  1  0  0  0  0
 10164  1  0  0  0  0
 22165  1  0  0  0  0
 23166  1  0  0  0  0
 25167  1  0  0  0  0
 25168  1  0  0  0  0
 25169  1  0  0  0  0
 26170  1  0  0  0  0
 27171  1  0  0  0  0
 29172  1  0  0  0  0
 30173  1  0  0  0  0
 32174  1  0  0  0  0
 32175  1  0  0  0  0
 32176  1  0  0  0  0
 33177  1  0  0  0  0
 34178  1  0  0  0  0
 41179  1  0  0  0  0
 42180  1  0  0  0  0
 44181  1  0  0  0  0
 44182  1  0  0  0  0
 44183  1  0  0  0  0
 45184  1  0  0  0  0
 46185  1  0  0  0  0
 48186  1  0  0  0  0
 49187  1  0  0  0  0
 51188  1  0  0  0  0
 51189  1  0  0  0  0
 51190  1  0  0  0  0
 52191  1  0  0  0  0
 53192  1  0  0  0  0
 59193  1  0  0  0  0
 60194  1  0  0  0  0
 61195  1  0  0  0  0
 63196  1  0  0  0  0
 63197  1  0  0  0  0
 64198  1  0  0  0  0
 64199  1  0  0  0  0
 64200  1  0  0  0  0
 65201  1  0  0  0  0
 81202  1  0  0  0  0
 82203  1  0  0  0  0
 83204  1  0  0  0  0
 85205  1  0  0  0  0
 85206  1  0  0  0  0
 86207  1  0  0  0  0
 86208  1  0  0  0  0
 86209  1  0  0  0  0
 87210  1  0  0  0  0
 99211  1  0  0  0  0
 99212  1  0  0  0  0
100213  1  0  0  0  0
100214  1  0  0  0  0
100215  1  0  0  0  0
101216  1  0  0  0  0
101217  1  0  0  0  0
102218  1  0  0  0  0
102219  1  0  0  0  0
102220  1  0  0  0  0
107221  1  0  0  0  0
108222  1  0  0  0  0
110223  1  0  0  0  0
110224  1  0  0  0  0
110225  1  0  0  0  0
111226  1  0  0  0  0
112227  1  0  0  0  0
114228  1  0  0  0  0
115229  1  0  0  0  0
117230  1  0  0  0  0
117231  1  0  0  0  0
117232  1  0  0  0  0
118233  1  0  0  0  0
119234  1  0  0  0  0
126235  1  0  0  0  0
127236  1  0  0  0  0
129237  1  0  0  0  0
129238  1  0  0  0  0
129239  1  0  0  0  0
130240  1  0  0  0  0
131241  1  0  0  0  0
133242  1  0  0  0  0
134243  1  0  0  0  0
136244  1  0  0  0  0
136245  1  0  0  0  0
136246  1  0  0  0  0
137247  1  0  0  0  0
138248  1  0  0  0  0
141249  1  0  0  0  0
146250  1  0  0  0  0
147251  1  0  0  0  0
149252  1  0  0  0  0
149253  1  0  0  0  0
149254  1  0  0  0  0
150255  1  0  0  0  0
M  END
