
  xtb     02062207383D
 energy: -413.937957427917 gnorm: 0.000667282705 xtb: 6.4.1 (unknown)
252277  0     0  0            999 V2000
    6.5407  -10.0794   -5.0280 C   0  0  0  0  0  0  0  0  0  0  0  0
    7.7151  -10.5950   -4.5195 C   0  0  0  0  0  0  0  0  0  0  0  0
    8.9069   -9.7815   -4.2239 C   0  0  0  0  0  0  0  0  0  0  0  0
    9.0260   -8.5754   -4.3408 O   0  0  0  0  0  0  0  0  0  0  0  0
    9.9699  -10.7491   -3.8843 C   0  0  0  0  0  0  0  0  0  0  0  0
   11.2834  -10.5179   -3.5337 C   0  0  0  0  0  0  0  0  0  0  0  0
   12.0887  -11.6085   -3.2377 C   0  0  0  0  0  0  0  0  0  0  0  0
   11.5984  -12.9086   -3.3037 C   0  0  0  0  0  0  0  0  0  0  0  0
   12.4911  -14.0732   -3.0090 C   0  0  0  0  0  0  0  0  0  0  0  0
   10.2701  -13.1333   -3.6690 C   0  0  0  0  0  0  0  0  0  0  0  0
    9.4553  -12.0545   -3.9538 C   0  0  0  0  0  0  0  0  0  0  0  0
    8.0426  -11.9776   -4.3242 C   0  0  0  0  0  0  0  0  0  0  0  0
    7.1493  -13.0219   -4.3118 C   0  0  0  0  0  0  0  0  0  0  0  0
    5.7662  -12.8772   -4.5339 C   0  0  0  0  0  0  0  0  0  0  0  0
    4.6267  -12.8271   -4.6732 N   0  0  0  0  0  0  0  0  0  0  0  0
    7.4899  -14.3474   -3.9898 C   0  0  0  0  0  0  0  0  0  0  0  0
    7.7090  -15.4421   -3.7160 N   0  0  0  0  0  0  0  0  0  0  0  0
    6.0805   -8.7719   -4.8599 C   0  0  0  0  0  0  0  0  0  0  0  0
    6.3440   -7.8148   -3.8570 C   0  0  0  0  0  0  0  0  0  0  0  0
    7.0122   -8.0197   -2.6849 N   0  0  0  0  0  0  0  0  0  0  0  0
    7.5963   -6.9181   -2.0228 C   0  0  0  0  0  0  0  0  0  0  0  0
    7.4049   -6.7505   -0.6561 C   0  0  0  0  0  0  0  0  0  0  0  0
    7.9752   -5.6717   -0.0083 C   0  0  0  0  0  0  0  0  0  0  0  0
    8.7426   -4.7441   -0.7016 C   0  0  0  0  0  0  0  0  0  0  0  0
    9.3404   -3.5603   -0.0055 C   0  0  0  0  0  0  0  0  0  0  0  0
    8.9377   -4.9310   -2.0660 C   0  0  0  0  0  0  0  0  0  0  0  0
    8.3757   -6.0047   -2.7261 C   0  0  0  0  0  0  0  0  0  0  0  0
    7.1298   -9.2807   -2.0840 C   0  0  0  0  0  0  0  0  0  0  0  0
    8.3264   -9.6461   -1.4713 C   0  0  0  0  0  0  0  0  0  0  0  0
    8.4669  -10.9023   -0.9115 C   0  0  0  0  0  0  0  0  0  0  0  0
    7.4262  -11.8206   -0.9385 C   0  0  0  0  0  0  0  0  0  0  0  0
    7.5898  -13.1997   -0.3819 C   0  0  0  0  0  0  0  0  0  0  0  0
    6.2176  -11.4295   -1.5110 C   0  0  0  0  0  0  0  0  0  0  0  0
    6.0653  -10.1814   -2.0762 C   0  0  0  0  0  0  0  0  0  0  0  0
    5.6925   -6.5959   -4.1583 C   0  0  0  0  0  0  0  0  0  0  0  0
    5.5717   -5.0744   -3.3394 S   0  0  0  0  0  0  0  0  0  0  0  0
    4.4895   -4.4721   -4.5819 C   0  0  0  0  0  0  0  0  0  0  0  0
    4.1817   -5.4274   -5.5406 C   0  0  0  0  0  0  0  0  0  0  0  0
    3.2597   -5.2732   -6.5608 N   0  0  0  0  0  0  0  0  0  0  0  0
    2.1127   -4.4909   -6.3647 C   0  0  0  0  0  0  0  0  0  0  0  0
    1.6186   -3.6864   -7.3896 C   0  0  0  0  0  0  0  0  0  0  0  0
    0.5613   -2.8322   -7.1547 C   0  0  0  0  0  0  0  0  0  0  0  0
   -0.0409   -2.7551   -5.9033 C   0  0  0  0  0  0  0  0  0  0  0  0
   -1.1344   -1.7635   -5.6484 C   0  0  0  0  0  0  0  0  0  0  0  0
    0.4079   -3.6135   -4.9095 C   0  0  0  0  0  0  0  0  0  0  0  0
    1.4625   -4.4778   -5.1333 C   0  0  0  0  0  0  0  0  0  0  0  0
    3.5030   -5.8819   -7.8016 C   0  0  0  0  0  0  0  0  0  0  0  0
    4.7975   -5.9745   -8.3039 C   0  0  0  0  0  0  0  0  0  0  0  0
    5.0290   -6.5841   -9.5209 C   0  0  0  0  0  0  0  0  0  0  0  0
    3.9855   -7.1097  -10.2709 C   0  0  0  0  0  0  0  0  0  0  0  0
    4.2426   -7.7908  -11.5802 C   0  0  0  0  0  0  0  0  0  0  0  0
    2.6950   -7.0100   -9.7633 C   0  0  0  0  0  0  0  0  0  0  0  0
    2.4506   -6.4108   -8.5448 C   0  0  0  0  0  0  0  0  0  0  0  0
    4.8980   -6.6242   -5.2960 C   0  0  0  0  0  0  0  0  0  0  0  0
    4.9231   -8.1694   -6.0595 S   0  0  0  0  0  0  0  0  0  0  0  0
    3.9563   -3.1445   -4.5038 C   0  0  0  0  0  0  0  0  0  0  0  0
    3.8407   -2.2238   -5.5260 C   0  0  0  0  0  0  0  0  0  0  0  0
    4.5524   -2.3221   -6.7981 C   0  0  0  0  0  0  0  0  0  0  0  0
    5.8233   -2.8920   -6.8585 C   0  0  0  0  0  0  0  0  0  0  0  0
    6.4904   -2.9712   -8.0651 C   0  0  0  0  0  0  0  0  0  0  0  0
    5.9044   -2.4893   -9.2230 C   0  0  0  0  0  0  0  0  0  0  0  0
    4.6494   -1.8979   -9.1794 C   0  0  0  0  0  0  0  0  0  0  0  0
    4.0216   -1.3119  -10.4110 C   0  0  0  0  0  0  0  0  0  0  0  0
    4.2518    0.1998  -10.4576 C   0  0  0  0  0  0  0  0  0  0  0  0
    3.9909   -1.8094   -7.9625 C   0  0  0  0  0  0  0  0  0  0  0  0
    3.0074   -1.1484   -5.1437 C   0  0  0  0  0  0  0  0  0  0  0  0
    2.4123    0.2569   -5.9927 S   0  0  0  0  0  0  0  0  0  0  0  0
    1.5407    0.7250   -4.5725 C   0  0  0  0  0  0  0  0  0  0  0  0
    0.6454    1.7189   -4.1478 C   0  0  0  0  0  0  0  0  0  0  0  0
    0.0611    2.7843   -4.8637 C   0  0  0  0  0  0  0  0  0  0  0  0
   -0.8827    3.6294   -4.1953 C   0  0  0  0  0  0  0  0  0  0  0  0
   -1.3804    4.5638   -4.9906 N   0  0  0  0  0  0  0  0  0  0  0  0
   -0.7133    4.3942   -6.4569 S   0  0  0  0  0  0  0  0  0  0  0  0
    0.2339    3.1207   -6.1329 N   0  0  0  0  0  0  0  0  0  0  0  0
   -1.1340    3.4138   -2.8242 C   0  0  0  0  0  0  0  0  0  0  0  0
   -1.8958    4.1646   -1.9150 C   0  0  0  0  0  0  0  0  0  0  0  0
   -2.9098    5.5677   -1.8869 S   0  0  0  0  0  0  0  0  0  0  0  0
   -3.0984    5.3753   -0.1614 C   0  0  0  0  0  0  0  0  0  0  0  0
   -3.8104    6.1034    0.8176 C   0  0  0  0  0  0  0  0  0  0  0  0
   -4.5153    7.3625    0.5882 C   0  0  0  0  0  0  0  0  0  0  0  0
   -5.1586    7.6152   -0.6205 C   0  0  0  0  0  0  0  0  0  0  0  0
   -5.8298    8.8081   -0.8107 C   0  0  0  0  0  0  0  0  0  0  0  0
   -5.8552    9.7662    0.1867 C   0  0  0  0  0  0  0  0  0  0  0  0
   -5.1878    9.5490    1.3858 C   0  0  0  0  0  0  0  0  0  0  0  0
   -5.1457   10.6123    2.4463 C   0  0  0  0  0  0  0  0  0  0  0  0
   -3.9615   11.5518    2.2117 C   0  0  0  0  0  0  0  0  0  0  0  0
   -4.5202    8.3494    1.5715 C   0  0  0  0  0  0  0  0  0  0  0  0
   -3.6837    5.5132    2.0599 C   0  0  0  0  0  0  0  0  0  0  0  0
   -2.6138    4.1220    2.0501 S   0  0  0  0  0  0  0  0  0  0  0  0
   -2.4054    4.2756    0.3438 C   0  0  0  0  0  0  0  0  0  0  0  0
   -1.7195    3.5813   -0.6622 C   0  0  0  0  0  0  0  0  0  0  0  0
   -0.8904    2.4987   -0.7634 N   0  0  0  0  0  0  0  0  0  0  0  0
   -0.5201    2.3564   -2.0898 C   0  0  0  0  0  0  0  0  0  0  0  0
    0.3247    1.4441   -2.7859 C   0  0  0  0  0  0  0  0  0  0  0  0
    0.9790    0.2763   -2.4286 N   0  0  0  0  0  0  0  0  0  0  0  0
    1.7176   -0.1456   -3.4997 C   0  0  0  0  0  0  0  0  0  0  0  0
    2.5471   -1.2265   -3.8303 C   0  0  0  0  0  0  0  0  0  0  0  0
    3.1341   -2.6423   -3.0364 S   0  0  0  0  0  0  0  0  0  0  0  0
    0.8884   -0.5868   -1.2754 C   0  0  0  0  0  0  0  0  0  0  0  0
    2.1211   -0.4705   -0.3777 C   0  0  0  0  0  0  0  0  0  0  0  0
   -0.5124    1.8076    0.4450 C   0  0  0  0  0  0  0  0  0  0  0  0
   -1.6045    0.8401    0.9025 C   0  0  0  0  0  0  0  0  0  0  0  0
   -4.4305    5.8155    3.2447 C   0  0  0  0  0  0  0  0  0  0  0  0
   -5.8119    5.9299    3.3384 C   0  0  0  0  0  0  0  0  0  0  0  0
   -6.7024    5.6997    2.3066 N   0  0  0  0  0  0  0  0  0  0  0  0
   -7.8810    6.4563    2.2269 C   0  0  0  0  0  0  0  0  0  0  0  0
   -9.0605    5.8742    1.7688 C   0  0  0  0  0  0  0  0  0  0  0  0
  -10.2187    6.6202    1.6959 C   0  0  0  0  0  0  0  0  0  0  0  0
  -10.2413    7.9557    2.0827 C   0  0  0  0  0  0  0  0  0  0  0  0
  -11.5130    8.7454    2.0279 C   0  0  0  0  0  0  0  0  0  0  0  0
   -9.0617    8.5265    2.5410 C   0  0  0  0  0  0  0  0  0  0  0  0
   -7.8935    7.7937    2.6115 C   0  0  0  0  0  0  0  0  0  0  0  0
   -6.4122    4.7275    1.3368 C   0  0  0  0  0  0  0  0  0  0  0  0
   -6.7052    4.9529   -0.0060 C   0  0  0  0  0  0  0  0  0  0  0  0
   -6.3153    4.0402   -0.9644 C   0  0  0  0  0  0  0  0  0  0  0  0
   -5.6392    2.8751   -0.6184 C   0  0  0  0  0  0  0  0  0  0  0  0
   -5.1490    1.9356   -1.6768 C   0  0  0  0  0  0  0  0  0  0  0  0
   -5.4187    2.6227    0.7285 C   0  0  0  0  0  0  0  0  0  0  0  0
   -5.8002    3.5301    1.6976 C   0  0  0  0  0  0  0  0  0  0  0  0
   -6.1943    6.2526    4.6615 C   0  0  0  0  0  0  0  0  0  0  0  0
   -7.7188    6.4577    5.4384 S   0  0  0  0  0  0  0  0  0  0  0  0
   -6.9165    6.7457    6.9942 C   0  0  0  0  0  0  0  0  0  0  0  0
   -5.5127    6.5823    6.8991 C   0  0  0  0  0  0  0  0  0  0  0  0
   -4.6185    6.5375    7.9265 N   0  0  0  0  0  0  0  0  0  0  0  0
   -4.9661    6.1602    9.2296 C   0  0  0  0  0  0  0  0  0  0  0  0
   -4.3724    6.7973   10.3178 C   0  0  0  0  0  0  0  0  0  0  0  0
   -4.7407    6.4617   11.6076 C   0  0  0  0  0  0  0  0  0  0  0  0
   -5.6998    5.4881   11.8500 C   0  0  0  0  0  0  0  0  0  0  0  0
   -6.1425    5.1564   13.2397 C   0  0  0  0  0  0  0  0  0  0  0  0
   -6.2513    4.8211   10.7575 C   0  0  0  0  0  0  0  0  0  0  0  0
   -5.8938    5.1456    9.4666 C   0  0  0  0  0  0  0  0  0  0  0  0
   -3.2662    6.8646    7.6728 C   0  0  0  0  0  0  0  0  0  0  0  0
   -2.9443    8.0245    6.9745 C   0  0  0  0  0  0  0  0  0  0  0  0
   -1.6218    8.3382    6.7390 C   0  0  0  0  0  0  0  0  0  0  0  0
   -0.5963    7.5131    7.1908 C   0  0  0  0  0  0  0  0  0  0  0  0
    0.8322    7.8647    6.9125 C   0  0  0  0  0  0  0  0  0  0  0  0
   -0.9313    6.3647    7.8965 C   0  0  0  0  0  0  0  0  0  0  0  0
   -2.2519    6.0373    8.1393 C   0  0  0  0  0  0  0  0  0  0  0  0
   -5.1374    6.3459    5.5582 C   0  0  0  0  0  0  0  0  0  0  0  0
   -3.6210    6.0149    4.7875 S   0  0  0  0  0  0  0  0  0  0  0  0
   -7.7384    7.0594    8.0718 C   0  0  0  0  0  0  0  0  0  0  0  0
   -7.3441    7.7025    9.2338 C   0  0  0  0  0  0  0  0  0  0  0  0
   -6.2197    8.6400    9.2905 C   0  0  0  0  0  0  0  0  0  0  0  0
   -5.4980    8.9857    8.3746 O   0  0  0  0  0  0  0  0  0  0  0  0
   -6.2343    9.1887   10.6696 C   0  0  0  0  0  0  0  0  0  0  0  0
   -7.3119    8.6323   11.3802 C   0  0  0  0  0  0  0  0  0  0  0  0
   -7.5389    8.9976   12.6950 C   0  0  0  0  0  0  0  0  0  0  0  0
   -6.6724    9.9037   13.2916 C   0  0  0  0  0  0  0  0  0  0  0  0
   -5.5999   10.4335   12.5934 C   0  0  0  0  0  0  0  0  0  0  0  0
   -4.4326   11.6367   13.4705 Br  0  0  0  0  0  0  0  0  0  0  0  0
   -5.3649   10.0871   11.2586 C   0  0  0  0  0  0  0  0  0  0  0  0
   -4.0278   10.7245   10.3947 Cl  0  0  0  0  0  0  0  0  0  0  0  0
   -7.9984    7.6809   10.5055 C   0  0  0  0  0  0  0  0  0  0  0  0
   -8.9739    6.7943   10.8982 C   0  0  0  0  0  0  0  0  0  0  0  0
   -9.5015    6.7267   12.1993 C   0  0  0  0  0  0  0  0  0  0  0  0
   -9.9504    6.6153   13.2514 N   0  0  0  0  0  0  0  0  0  0  0  0
   -9.4935    5.7852   10.0645 C   0  0  0  0  0  0  0  0  0  0  0  0
   -9.9321    4.9199    9.4491 N   0  0  0  0  0  0  0  0  0  0  0  0
    5.9224  -10.7175   -5.6483 H   0  0  0  0  0  0  0  0  0  0  0  0
   11.6633   -9.5087   -3.4837 H   0  0  0  0  0  0  0  0  0  0  0  0
   13.1178  -11.4485   -2.9495 H   0  0  0  0  0  0  0  0  0  0  0  0
   11.9295  -14.8849   -2.5526 H   0  0  0  0  0  0  0  0  0  0  0  0
   13.3050  -13.7853   -2.3480 H   0  0  0  0  0  0  0  0  0  0  0  0
   12.9255  -14.4485   -3.9362 H   0  0  0  0  0  0  0  0  0  0  0  0
    9.9022  -14.1454   -3.7277 H   0  0  0  0  0  0  0  0  0  0  0  0
    6.8073   -7.4652   -0.1091 H   0  0  0  0  0  0  0  0  0  0  0  0
    7.8165   -5.5477    1.0532 H   0  0  0  0  0  0  0  0  0  0  0  0
   10.3607   -3.3896   -0.3428 H   0  0  0  0  0  0  0  0  0  0  0  0
    9.3440   -3.7017    1.0723 H   0  0  0  0  0  0  0  0  0  0  0  0
    8.7607   -2.6649   -0.2311 H   0  0  0  0  0  0  0  0  0  0  0  0
    9.5458   -4.2280   -2.6165 H   0  0  0  0  0  0  0  0  0  0  0  0
    8.5554   -6.1683   -3.7771 H   0  0  0  0  0  0  0  0  0  0  0  0
    9.1473   -8.9452   -1.4505 H   0  0  0  0  0  0  0  0  0  0  0  0
    9.4100  -11.1759   -0.4610 H   0  0  0  0  0  0  0  0  0  0  0  0
    7.6289  -13.9298   -1.1911 H   0  0  0  0  0  0  0  0  0  0  0  0
    8.5076  -13.2806    0.1949 H   0  0  0  0  0  0  0  0  0  0  0  0
    6.7463  -13.4602    0.2548 H   0  0  0  0  0  0  0  0  0  0  0  0
    5.3860  -12.1190   -1.5206 H   0  0  0  0  0  0  0  0  0  0  0  0
    5.1206   -9.9027   -2.5186 H   0  0  0  0  0  0  0  0  0  0  0  0
    2.0898   -3.7197   -8.3602 H   0  0  0  0  0  0  0  0  0  0  0  0
    0.2081   -2.1924   -7.9507 H   0  0  0  0  0  0  0  0  0  0  0  0
   -1.9571   -1.9112   -6.3466 H   0  0  0  0  0  0  0  0  0  0  0  0
   -1.5172   -1.8558   -4.6347 H   0  0  0  0  0  0  0  0  0  0  0  0
   -0.7616   -0.7483   -5.7865 H   0  0  0  0  0  0  0  0  0  0  0  0
   -0.0682   -3.6045   -3.9388 H   0  0  0  0  0  0  0  0  0  0  0  0
    1.7968   -5.1367   -4.3449 H   0  0  0  0  0  0  0  0  0  0  0  0
    5.6193   -5.5558   -7.7435 H   0  0  0  0  0  0  0  0  0  0  0  0
    6.0405   -6.6460   -9.8954 H   0  0  0  0  0  0  0  0  0  0  0  0
    4.3406   -8.8660  -11.4263 H   0  0  0  0  0  0  0  0  0  0  0  0
    5.1634   -7.4297  -12.0320 H   0  0  0  0  0  0  0  0  0  0  0  0
    3.4198   -7.6254  -12.2721 H   0  0  0  0  0  0  0  0  0  0  0  0
    1.8685   -7.4170  -10.3279 H   0  0  0  0  0  0  0  0  0  0  0  0
    1.4437   -6.3514   -8.1589 H   0  0  0  0  0  0  0  0  0  0  0  0
    6.2932   -3.2543   -5.9560 H   0  0  0  0  0  0  0  0  0  0  0  0
    7.4767   -3.4108   -8.1041 H   0  0  0  0  0  0  0  0  0  0  0  0
    6.4288   -2.5654  -10.1645 H   0  0  0  0  0  0  0  0  0  0  0  0
    4.4505   -1.7735  -11.3024 H   0  0  0  0  0  0  0  0  0  0  0  0
    2.9474   -1.5097  -10.4064 H   0  0  0  0  0  0  0  0  0  0  0  0
    3.7917    0.6276  -11.3452 H   0  0  0  0  0  0  0  0  0  0  0  0
    5.3171    0.4190  -10.4782 H   0  0  0  0  0  0  0  0  0  0  0  0
    3.8213    0.6745   -9.5788 H   0  0  0  0  0  0  0  0  0  0  0  0
    3.0156   -1.3493   -7.9236 H   0  0  0  0  0  0  0  0  0  0  0  0
   -5.1438    6.8718   -1.4017 H   0  0  0  0  0  0  0  0  0  0  0  0
   -6.3380    8.9914   -1.7459 H   0  0  0  0  0  0  0  0  0  0  0  0
   -6.3879   10.6933    0.0321 H   0  0  0  0  0  0  0  0  0  0  0  0
   -6.0728   11.1890    2.4284 H   0  0  0  0  0  0  0  0  0  0  0  0
   -5.0477   10.1529    3.4327 H   0  0  0  0  0  0  0  0  0  0  0  0
   -3.0277   10.9941    2.2323 H   0  0  0  0  0  0  0  0  0  0  0  0
   -3.9261   12.3191    2.9816 H   0  0  0  0  0  0  0  0  0  0  0  0
   -4.0487   12.0356    1.2415 H   0  0  0  0  0  0  0  0  0  0  0  0
   -3.9796    8.1848    2.4928 H   0  0  0  0  0  0  0  0  0  0  0  0
   -0.0304   -0.3804   -0.7337 H   0  0  0  0  0  0  0  0  0  0  0  0
    0.8302   -1.6161   -1.6468 H   0  0  0  0  0  0  0  0  0  0  0  0
    1.9729   -1.0469    0.5312 H   0  0  0  0  0  0  0  0  0  0  0  0
    2.9938   -0.8618   -0.8936 H   0  0  0  0  0  0  0  0  0  0  0  0
    2.3261    0.5647   -0.1120 H   0  0  0  0  0  0  0  0  0  0  0  0
    0.4405    1.3079    0.3021 H   0  0  0  0  0  0  0  0  0  0  0  0
   -0.3747    2.5669    1.2224 H   0  0  0  0  0  0  0  0  0  0  0  0
   -1.2591    0.2669    1.7583 H   0  0  0  0  0  0  0  0  0  0  0  0
   -1.8866    0.1540    0.1060 H   0  0  0  0  0  0  0  0  0  0  0  0
   -2.4895    1.3988    1.1950 H   0  0  0  0  0  0  0  0  0  0  0  0
   -9.0624    4.8349    1.4749 H   0  0  0  0  0  0  0  0  0  0  0  0
  -11.1264    6.1545    1.3402 H   0  0  0  0  0  0  0  0  0  0  0  0
  -11.3071    9.8122    1.9872 H   0  0  0  0  0  0  0  0  0  0  0  0
  -12.1057    8.4659    1.1596 H   0  0  0  0  0  0  0  0  0  0  0  0
  -12.1111    8.5494    2.9185 H   0  0  0  0  0  0  0  0  0  0  0  0
   -9.0519    9.5636    2.8435 H   0  0  0  0  0  0  0  0  0  0  0  0
   -6.9828    8.2608    2.9525 H   0  0  0  0  0  0  0  0  0  0  0  0
   -7.2174    5.8597   -0.2896 H   0  0  0  0  0  0  0  0  0  0  0  0
   -6.5214    4.2433   -2.0052 H   0  0  0  0  0  0  0  0  0  0  0  0
   -5.9247    1.7480   -2.4169 H   0  0  0  0  0  0  0  0  0  0  0  0
   -4.2944    2.3726   -2.1958 H   0  0  0  0  0  0  0  0  0  0  0  0
   -4.8392    0.9872   -1.2436 H   0  0  0  0  0  0  0  0  0  0  0  0
   -4.9370    1.7027    1.0290 H   0  0  0  0  0  0  0  0  0  0  0  0
   -5.6127    3.3181    2.7405 H   0  0  0  0  0  0  0  0  0  0  0  0
   -3.6316    7.5633   10.1450 H   0  0  0  0  0  0  0  0  0  0  0  0
   -4.2829    6.9795   12.4380 H   0  0  0  0  0  0  0  0  0  0  0  0
   -5.5539    5.6970   13.9761 H   0  0  0  0  0  0  0  0  0  0  0  0
   -7.1916    5.4199   13.3756 H   0  0  0  0  0  0  0  0  0  0  0  0
   -6.0461    4.0882   13.4267 H   0  0  0  0  0  0  0  0  0  0  0  0
   -6.9788    4.0400   10.9238 H   0  0  0  0  0  0  0  0  0  0  0  0
   -6.3366    4.6158    8.6366 H   0  0  0  0  0  0  0  0  0  0  0  0
   -3.7379    8.6814    6.6546 H   0  0  0  0  0  0  0  0  0  0  0  0
   -1.3770    9.2440    6.2037 H   0  0  0  0  0  0  0  0  0  0  0  0
    1.5090    7.2192    7.4661 H   0  0  0  0  0  0  0  0  0  0  0  0
    1.0434    7.7551    5.8489 H   0  0  0  0  0  0  0  0  0  0  0  0
    1.0318    8.8995    7.1851 H   0  0  0  0  0  0  0  0  0  0  0  0
   -0.1499    5.7135    8.2604 H   0  0  0  0  0  0  0  0  0  0  0  0
   -2.5025    5.1411    8.6881 H   0  0  0  0  0  0  0  0  0  0  0  0
   -8.7846    6.8038    7.9550 H   0  0  0  0  0  0  0  0  0  0  0  0
   -8.3648    8.6000   13.2610 H   0  0  0  0  0  0  0  0  0  0  0  0
   -6.8282   10.2003   14.3174 H   0  0  0  0  0  0  0  0  0  0  0  0
  1  2  2  0  0  0  0
  2  3  1  0  0  0  0
  3  4  2  0  0  0  0
  3  5  1  0  0  0  0
  5  6  2  0  0  0  0
  6  7  1  0  0  0  0
  7  8  2  0  0  0  0
  8  9  1  0  0  0  0
  8 10  1  0  0  0  0
 10 11  2  0  0  0  0
 11 12  1  0  0  0  0
 12 13  2  0  0  0  0
 13 14  1  0  0  0  0
 14 15  3  0  0  0  0
 13 16  1  0  0  0  0
 16 17  3  0  0  0  0
  1 18  1  0  0  0  0
 18 19  2  0  0  0  0
 19 20  1  0  0  0  0
 20 21  1  0  0  0  0
 21 22  2  0  0  0  0
 22 23  1  0  0  0  0
 23 24  2  0  0  0  0
 24 25  1  0  0  0  0
 24 26  1  0  0  0  0
 26 27  2  0  0  0  0
 20 28  1  0  0  0  0
 28 29  2  0  0  0  0
 29 30  1  0  0  0  0
 30 31  2  0  0  0  0
 31 32  1  0  0  0  0
 31 33  1  0  0  0  0
 33 34  2  0  0  0  0
 19 35  1  0  0  0  0
 35 36  1  0  0  0  0
 36 37  1  0  0  0  0
 37 38  2  0  0  0  0
 38 39  1  0  0  0  0
 39 40  1  0  0  0  0
 40 41  2  0  0  0  0
 41 42  1  0  0  0  0
 42 43  2  0  0  0  0
 43 44  1  0  0  0  0
 43 45  1  0  0  0  0
 45 46  2  0  0  0  0
 39 47  1  0  0  0  0
 47 48  2  0  0  0  0
 48 49  1  0  0  0  0
 49 50  2  0  0  0  0
 50 51  1  0  0  0  0
 50 52  1  0  0  0  0
 52 53  2  0  0  0  0
 38 54  1  0  0  0  0
 54 55  1  0  0  0  0
 37 56  1  0  0  0  0
 56 57  2  0  0  0  0
 57 58  1  0  0  0  0
 58 59  2  0  0  0  0
 59 60  1  0  0  0  0
 60 61  2  0  0  0  0
 61 62  1  0  0  0  0
 62 63  1  0  0  0  0
 63 64  1  0  0  0  0
 62 65  2  0  0  0  0
 57 66  1  0  0  0  0
 66 67  1  0  0  0  0
 67 68  1  0  0  0  0
 68 69  1  0  0  0  0
 69 70  1  0  0  0  0
 70 71  1  0  0  0  0
 71 72  2  0  0  0  0
 72 73  1  0  0  0  0
 73 74  1  0  0  0  0
 71 75  1  0  0  0  0
 75 76  1  0  0  0  0
 76 77  1  0  0  0  0
 77 78  1  0  0  0  0
 78 79  1  0  0  0  0
 79 80  1  0  0  0  0
 80 81  2  0  0  0  0
 81 82  1  0  0  0  0
 82 83  2  0  0  0  0
 83 84  1  0  0  0  0
 84 85  1  0  0  0  0
 85 86  1  0  0  0  0
 84 87  2  0  0  0  0
 79 88  2  0  0  0  0
 88 89  1  0  0  0  0
 89 90  1  0  0  0  0
 90 91  1  0  0  0  0
 91 92  1  0  0  0  0
 92 93  1  0  0  0  0
 93 94  1  0  0  0  0
 94 95  1  0  0  0  0
 95 96  1  0  0  0  0
 96 97  1  0  0  0  0
 97 98  1  0  0  0  0
 95 99  1  0  0  0  0
 99100  1  0  0  0  0
 92101  1  0  0  0  0
101102  1  0  0  0  0
 88103  1  0  0  0  0
103104  2  0  0  0  0
104105  1  0  0  0  0
105106  1  0  0  0  0
106107  2  0  0  0  0
107108  1  0  0  0  0
108109  2  0  0  0  0
109110  1  0  0  0  0
109111  1  0  0  0  0
111112  2  0  0  0  0
105113  1  0  0  0  0
113114  2  0  0  0  0
114115  1  0  0  0  0
115116  2  0  0  0  0
116117  1  0  0  0  0
116118  1  0  0  0  0
118119  2  0  0  0  0
104120  1  0  0  0  0
120121  1  0  0  0  0
121122  1  0  0  0  0
122123  2  0  0  0  0
123124  1  0  0  0  0
124125  1  0  0  0  0
125126  2  0  0  0  0
126127  1  0  0  0  0
127128  2  0  0  0  0
128129  1  0  0  0  0
128130  1  0  0  0  0
130131  2  0  0  0  0
124132  1  0  0  0  0
132133  2  0  0  0  0
133134  1  0  0  0  0
134135  2  0  0  0  0
135136  1  0  0  0  0
135137  1  0  0  0  0
137138  2  0  0  0  0
123139  1  0  0  0  0
139140  1  0  0  0  0
122141  1  0  0  0  0
141142  2  0  0  0  0
142143  1  0  0  0  0
143144  2  0  0  0  0
143145  1  0  0  0  0
145146  2  0  0  0  0
146147  1  0  0  0  0
147148  2  0  0  0  0
148149  1  0  0  0  0
149150  1  0  0  0  0
149151  2  0  0  0  0
151152  1  0  0  0  0
146153  1  0  0  0  0
153154  2  0  0  0  0
154155  1  0  0  0  0
155156  3  0  0  0  0
154157  1  0  0  0  0
157158  3  0  0  0  0
 12  2  1  0  0  0  0
 55 18  1  0  0  0  0
 98 56  1  0  0  0  0
140103  1  0  0  0  0
153142  1  0  0  0  0
 11  5  1  0  0  0  0
 27 21  1  0  0  0  0
 34 28  1  0  0  0  0
 54 35  2  0  0  0  0
 65 58  1  0  0  0  0
 97 66  2  0  0  0  0
112106  1  0  0  0  0
119113  1  0  0  0  0
139120  2  0  0  0  0
151145  1  0  0  0  0
 46 40  1  0  0  0  0
 53 47  1  0  0  0  0
 96 68  2  0  0  0  0
131125  1  0  0  0  0
138132  1  0  0  0  0
 94 69  2  0  0  0  0
 74 70  2  0  0  0  0
 93 75  2  0  0  0  0
 91 76  2  0  0  0  0
 90 78  2  0  0  0  0
 87 80  1  0  0  0  0
  1159  1  0  0  0  0
  6160  1  0  0  0  0
  7161  1  0  0  0  0
  9162  1  0  0  0  0
  9163  1  0  0  0  0
  9164  1  0  0  0  0
 10165  1  0  0  0  0
 22166  1  0  0  0  0
 23167  1  0  0  0  0
 25168  1  0  0  0  0
 25169  1  0  0  0  0
 25170  1  0  0  0  0
 26171  1  0  0  0  0
 27172  1  0  0  0  0
 29173  1  0  0  0  0
 30174  1  0  0  0  0
 32175  1  0  0  0  0
 32176  1  0  0  0  0
 32177  1  0  0  0  0
 33178  1  0  0  0  0
 34179  1  0  0  0  0
 41180  1  0  0  0  0
 42181  1  0  0  0  0
 44182  1  0  0  0  0
 44183  1  0  0  0  0
 44184  1  0  0  0  0
 45185  1  0  0  0  0
 46186  1  0  0  0  0
 48187  1  0  0  0  0
 49188  1  0  0  0  0
 51189  1  0  0  0  0
 51190  1  0  0  0  0
 51191  1  0  0  0  0
 52192  1  0  0  0  0
 53193  1  0  0  0  0
 59194  1  0  0  0  0
 60195  1  0  0  0  0
 61196  1  0  0  0  0
 63197  1  0  0  0  0
 63198  1  0  0  0  0
 64199  1  0  0  0  0
 64200  1  0  0  0  0
 64201  1  0  0  0  0
 65202  1  0  0  0  0
 81203  1  0  0  0  0
 82204  1  0  0  0  0
 83205  1  0  0  0  0
 85206  1  0  0  0  0
 85207  1  0  0  0  0
 86208  1  0  0  0  0
 86209  1  0  0  0  0
 86210  1  0  0  0  0
 87211  1  0  0  0  0
 99212  1  0  0  0  0
 99213  1  0  0  0  0
100214  1  0  0  0  0
100215  1  0  0  0  0
100216  1  0  0  0  0
101217  1  0  0  0  0
101218  1  0  0  0  0
102219  1  0  0  0  0
102220  1  0  0  0  0
102221  1  0  0  0  0
107222  1  0  0  0  0
108223  1  0  0  0  0
110224  1  0  0  0  0
110225  1  0  0  0  0
110226  1  0  0  0  0
111227  1  0  0  0  0
112228  1  0  0  0  0
114229  1  0  0  0  0
115230  1  0  0  0  0
117231  1  0  0  0  0
117232  1  0  0  0  0
117233  1  0  0  0  0
118234  1  0  0  0  0
119235  1  0  0  0  0
126236  1  0  0  0  0
127237  1  0  0  0  0
129238  1  0  0  0  0
129239  1  0  0  0  0
129240  1  0  0  0  0
130241  1  0  0  0  0
131242  1  0  0  0  0
133243  1  0  0  0  0
134244  1  0  0  0  0
136245  1  0  0  0  0
136246  1  0  0  0  0
136247  1  0  0  0  0
137248  1  0  0  0  0
138249  1  0  0  0  0
141250  1  0  0  0  0
147251  1  0  0  0  0
148252  1  0  0  0  0
M  END
