252

C          6.54070      -10.07940       -5.02800
C          7.71510      -10.59500       -4.51950
C          8.90690       -9.78150       -4.22390
O          9.02600       -8.57540       -4.34080
C          9.96990      -10.74910       -3.88430
C         11.28340      -10.51790       -3.53370
C         12.08870      -11.60850       -3.23770
C         11.59840      -12.90860       -3.30370
C         12.49110      -14.07320       -3.00900
C         10.27010      -13.13330       -3.66900
C          9.45530      -12.05450       -3.95380
C          8.04260      -11.97760       -4.32420
C          7.14930      -13.02190       -4.31180
C          5.76620      -12.87720       -4.53390
N          4.62670      -12.82710       -4.67320
C          7.48990      -14.34740       -3.98980
N          7.70900      -15.44210       -3.71600
C          6.08050       -8.77190       -4.85990
C          6.34400       -7.81480       -3.85700
N          7.01220       -8.01970       -2.68490
C          7.59630       -6.91810       -2.02280
C          7.40490       -6.75050       -0.65610
C          7.97520       -5.67170       -0.00830
C          8.74260       -4.74410       -0.70160
C          9.34040       -3.56030       -0.00550
C          8.93770       -4.93100       -2.06600
C          8.37570       -6.00470       -2.72610
C          7.12980       -9.28070       -2.08400
C          8.32640       -9.64610       -1.47130
C          8.46690      -10.90230       -0.91150
C          7.42620      -11.82060       -0.93850
C          7.58980      -13.19970       -0.38190
C          6.21760      -11.42950       -1.51100
C          6.06530      -10.18140       -2.07620
C          5.69250       -6.59590       -4.15830
S          5.57170       -5.07440       -3.33940
C          4.48950       -4.47210       -4.58190
C          4.18170       -5.42740       -5.54060
N          3.25970       -5.27320       -6.56080
C          2.11270       -4.49090       -6.36470
C          1.61860       -3.68640       -7.38960
C          0.56130       -2.83220       -7.15470
C         -0.04090       -2.75510       -5.90330
C         -1.13440       -1.76350       -5.64840
C          0.40790       -3.61350       -4.90950
C          1.46250       -4.47780       -5.13330
C          3.50300       -5.88190       -7.80160
C          4.79750       -5.97450       -8.30390
C          5.02900       -6.58410       -9.52090
C          3.98550       -7.10970      -10.27090
C          4.24260       -7.79080      -11.58020
C          2.69500       -7.01000       -9.76330
C          2.45060       -6.41080       -8.54480
C          4.89800       -6.62420       -5.29600
S          4.92310       -8.16940       -6.05950
C          3.95630       -3.14450       -4.50380
C          3.84070       -2.22380       -5.52600
C          4.55240       -2.32210       -6.79810
C          5.82330       -2.89200       -6.85850
C          6.49040       -2.97120       -8.06510
C          5.90440       -2.48930       -9.22300
C          4.64940       -1.89790       -9.17940
C          4.02160       -1.31190      -10.41100
C          4.25180        0.19980      -10.45760
C          3.99090       -1.80940       -7.96250
C          3.00740       -1.14840       -5.14370
S          2.41230        0.25690       -5.99270
C          1.54070        0.72500       -4.57250
C          0.64540        1.71890       -4.14780
C          0.06110        2.78430       -4.86370
C         -0.88270        3.62940       -4.19530
N         -1.38040        4.56380       -4.99060
S         -0.71330        4.39420       -6.45690
N          0.23390        3.12070       -6.13290
C         -1.13400        3.41380       -2.82420
C         -1.89580        4.16460       -1.91500
S         -2.90980        5.56770       -1.88690
C         -3.09840        5.37530       -0.16140
C         -3.81040        6.10340        0.81760
C         -4.51530        7.36250        0.58820
C         -5.15860        7.61520       -0.62050
C         -5.82980        8.80810       -0.81070
C         -5.85520        9.76620        0.18670
C         -5.18780        9.54900        1.38580
C         -5.14570       10.61230        2.44630
C         -3.96150       11.55180        2.21170
C         -4.52020        8.34940        1.57150
C         -3.68370        5.51320        2.05990
S         -2.61380        4.12200        2.05010
C         -2.40540        4.27560        0.34380
C         -1.71950        3.58130       -0.66220
N         -0.89040        2.49870       -0.76340
C         -0.52010        2.35640       -2.08980
C          0.32470        1.44410       -2.78590
N          0.97900        0.27630       -2.42860
C          1.71760       -0.14560       -3.49970
C          2.54710       -1.22650       -3.83030
S          3.13410       -2.64230       -3.03640
C          0.88840       -0.58680       -1.27540
C          2.12110       -0.47050       -0.37770
C         -0.51240        1.80760        0.44500
C         -1.60450        0.84010        0.90250
C         -4.43050        5.81550        3.24470
C         -5.81190        5.92990        3.33840
N         -6.70240        5.69970        2.30660
C         -7.88100        6.45630        2.22690
C         -9.06050        5.87420        1.76880
C        -10.21870        6.62020        1.69590
C        -10.24130        7.95570        2.08270
C        -11.51300        8.74540        2.02790
C         -9.06170        8.52650        2.54100
C         -7.89350        7.79370        2.61150
C         -6.41220        4.72750        1.33680
C         -6.70520        4.95290       -0.00600
C         -6.31530        4.04020       -0.96440
C         -5.63920        2.87510       -0.61840
C         -5.14900        1.93560       -1.67680
C         -5.41870        2.62270        0.72850
C         -5.80020        3.53010        1.69760
C         -6.19430        6.25260        4.66150
S         -7.71880        6.45770        5.43840
C         -6.91650        6.74570        6.99420
C         -5.51270        6.58230        6.89910
N         -4.61850        6.53750        7.92650
C         -4.96610        6.16020        9.22960
C         -4.37240        6.79730       10.31780
C         -4.74070        6.46170       11.60760
C         -5.69980        5.48810       11.85000
C         -6.14250        5.15640       13.23970
C         -6.25130        4.82110       10.75750
C         -5.89380        5.14560        9.46660
C         -3.26620        6.86460        7.67280
C         -2.94430        8.02450        6.97450
C         -1.62180        8.33820        6.73900
C         -0.59630        7.51310        7.19080
C          0.83220        7.86470        6.91250
C         -0.93130        6.36470        7.89650
C         -2.25190        6.03730        8.13930
C         -5.13740        6.34590        5.55820
S         -3.62100        6.01490        4.78750
C         -7.73840        7.05940        8.07180
C         -7.34410        7.70250        9.23380
C         -6.21970        8.64000        9.29050
O         -5.49800        8.98570        8.37460
C         -6.23430        9.18870       10.66960
C         -7.31190        8.63230       11.38020
C         -7.53890        8.99760       12.69500
C         -6.67240        9.90370       13.29160
C         -5.59990       10.43350       12.59340
Br        -4.43260       11.63670       13.47050
C         -5.36490       10.08710       11.25860
Cl        -4.02780       10.72450       10.39470
C         -7.99840        7.68090       10.50550
C         -8.97390        6.79430       10.89820
C         -9.50150        6.72670       12.19930
N         -9.95040        6.61530       13.25140
C         -9.49350        5.78520       10.06450
N         -9.93210        4.91990        9.44910
H          5.92240      -10.71750       -5.64830
H         11.66330       -9.50870       -3.48370
H         13.11780      -11.44850       -2.94950
H         11.92950      -14.88490       -2.55260
H         13.30500      -13.78530       -2.34800
H         12.92550      -14.44850       -3.93620
H          9.90220      -14.14540       -3.72770
H          6.80730       -7.46520       -0.10910
H          7.81650       -5.54770        1.05320
H         10.36070       -3.38960       -0.34280
H          9.34400       -3.70170        1.07230
H          8.76070       -2.66490       -0.23110
H          9.54580       -4.22800       -2.61650
H          8.55540       -6.16830       -3.77710
H          9.14730       -8.94520       -1.45050
H          9.41000      -11.17590       -0.46100
H          7.62890      -13.92980       -1.19110
H          8.50760      -13.28060        0.19490
H          6.74630      -13.46020        0.25480
H          5.38600      -12.11900       -1.52060
H          5.12060       -9.90270       -2.51860
H          2.08980       -3.71970       -8.36020
H          0.20810       -2.19240       -7.95070
H         -1.95710       -1.91120       -6.34660
H         -1.51720       -1.85580       -4.63470
H         -0.76160       -0.74830       -5.78650
H         -0.06820       -3.60450       -3.93880
H          1.79680       -5.13670       -4.34490
H          5.61930       -5.55580       -7.74350
H          6.04050       -6.64600       -9.89540
H          4.34060       -8.86600      -11.42630
H          5.16340       -7.42970      -12.03200
H          3.41980       -7.62540      -12.27210
H          1.86850       -7.41700      -10.32790
H          1.44370       -6.35140       -8.15890
H          6.29320       -3.25430       -5.95600
H          7.47670       -3.41080       -8.10410
H          6.42880       -2.56540      -10.16450
H          4.45050       -1.77350      -11.30240
H          2.94740       -1.50970      -10.40640
H          3.79170        0.62760      -11.34520
H          5.31710        0.41900      -10.47820
H          3.82130        0.67450       -9.57880
H          3.01560       -1.34930       -7.92360
H         -5.14380        6.87180       -1.40170
H         -6.33800        8.99140       -1.74590
H         -6.38790       10.69330        0.03210
H         -6.07280       11.18900        2.42840
H         -5.04770       10.15290        3.43270
H         -3.02770       10.99410        2.23230
H         -3.92610       12.31910        2.98160
H         -4.04870       12.03560        1.24150
H         -3.97960        8.18480        2.49280
H         -0.03040       -0.38040       -0.73370
H          0.83020       -1.61610       -1.64680
H          1.97290       -1.04690        0.53120
H          2.99380       -0.86180       -0.89360
H          2.32610        0.56470       -0.11200
H          0.44050        1.30790        0.30210
H         -0.37470        2.56690        1.22240
H         -1.25910        0.26690        1.75830
H         -1.88660        0.15400        0.10600
H         -2.48950        1.39880        1.19500
H         -9.06240        4.83490        1.47490
H        -11.12640        6.15450        1.34020
H        -11.30710        9.81220        1.98720
H        -12.10570        8.46590        1.15960
H        -12.11110        8.54940        2.91850
H         -9.05190        9.56360        2.84350
H         -6.98280        8.26080        2.95250
H         -7.21740        5.85970       -0.28960
H         -6.52140        4.24330       -2.00520
H         -5.92470        1.74800       -2.41690
H         -4.29440        2.37260       -2.19580
H         -4.83920        0.98720       -1.24360
H         -4.93700        1.70270        1.02900
H         -5.61270        3.31810        2.74050
H         -3.63160        7.56330       10.14500
H         -4.28290        6.97950       12.43800
H         -5.55390        5.69700       13.97610
H         -7.19160        5.41990       13.37560
H         -6.04610        4.08820       13.42670
H         -6.97880        4.04000       10.92380
H         -6.33660        4.61580        8.63660
H         -3.73790        8.68140        6.65460
H         -1.37700        9.24400        6.20370
H          1.50900        7.21920        7.46610
H          1.04340        7.75510        5.84890
H          1.03180        8.89950        7.18510
H         -0.14990        5.71350        8.26040
H         -2.50250        5.14110        8.68810
H         -8.78460        6.80380        7.95500
H         -8.36480        8.60000       13.26100
H         -6.82820       10.20030       14.31740
