232

C          3.46720        3.31360      -11.78360
C          4.53520        2.46900      -11.91560
C          5.48230        2.62910      -13.04560
O          5.33130        3.32540      -14.02690
C          6.64900        1.79480      -12.69230
C          7.86690        1.66340      -13.32900
C          8.82040        0.82810      -12.76520
C          8.57300        0.13980      -11.58080
C          9.62790       -0.72640      -10.96750
C          7.33720        0.27080      -10.94660
C          6.37500        1.08870      -11.50650
C          5.00150        1.37960      -11.09650
C          4.23520        0.55800      -10.30490
C          2.84240        0.68920      -10.15230
N          1.69750        0.71620      -10.05190
C          4.72730       -0.59470       -9.66950
N          5.06910       -1.55350       -9.13540
C          2.73950        3.59250      -10.61620
C          1.47010        4.18440      -10.52580
N          0.67010        4.50800      -11.58560
C         -0.28060        5.53350      -11.43610
C         -1.56940        5.38290      -11.93950
C         -2.49690        6.39130      -11.77380
C         -2.17150        7.56730      -11.10610
C         -3.19910        8.63580      -10.89560
C         -0.87720        7.71640      -10.62440
C          0.06290        6.71890      -10.79050
C          0.69830        3.78470      -12.79740
C          0.64670        4.46730      -14.00770
C          0.67470        3.76480      -15.19660
C          0.75470        2.37760      -15.20690
C          0.82800        1.62560      -16.49940
C          0.78620        1.70710      -13.98910
C          0.74950        2.39440      -12.79260
C          1.09630        4.36100       -9.17550
S         -0.33470        4.92830       -8.38670
C          0.36610        4.59450       -6.81040
C          1.67300        4.12650       -6.90830
N          2.52690        3.89550       -5.83990
C          2.64190        4.82740       -4.80370
C          2.34150        6.17320       -5.00930
C          2.41440        7.07290       -3.96650
C          2.80700        6.67150       -2.69450
C          2.88360        7.66300       -1.57400
C          3.12880        5.33460       -2.50160
C          3.03770        4.41890       -3.53120
C          3.40270        2.79820       -5.92630
C          4.73900        2.91660       -5.55730
C          5.57850        1.82320       -5.63670
C          5.11940        0.59360       -6.09320
C          6.02070       -0.60040       -6.13890
C          3.78880        0.49200       -6.48490
C          2.93650        1.57490       -6.40240
C          2.05540        3.96310       -8.25710
S          3.45890        3.31990       -9.02340
C         -0.41400        4.70010       -5.62290
C         -1.52550        5.47700       -5.35610
C         -2.10090        6.53220       -6.24780
C         -1.16490        7.73270       -6.38260
C         -2.04470        5.19650       -4.08050
S         -3.40790        5.83320       -3.18410
C         -3.04330        4.74880       -1.88260
C         -3.51170        4.41270       -0.59550
C         -4.49770        4.96920        0.25740
C         -4.60470        4.48280        1.61920
N         -5.49540        5.11120        2.36070
Se        -6.27210        6.35910        1.38630
N         -5.31420        5.96070       -0.03900
C         -3.82180        3.36980        2.01500
C         -3.75640        2.59800        3.19430
S         -4.37900        2.59840        4.81190
C         -3.47390        1.14110        5.14610
C         -3.33380        0.34760        6.30070
C         -3.87170        0.75270        7.63530
C         -2.88880        1.70030        8.32710
C         -2.51830       -0.73410        6.06020
S         -1.87390       -0.75140        4.42060
C         -2.75270        0.68290        4.04500
C         -2.90410        1.52000        2.93460
N         -2.42010        1.59530        1.65240
C         -2.94390        2.74560        1.09600
C         -2.67160        3.36820       -0.13800
N         -1.68760        3.11160       -1.07270
C         -1.92380        3.94890       -2.13390
C         -1.35270        4.20650       -3.38300
S         -0.02640        3.60150       -4.29790
C         -0.33910        2.66090       -0.79420
C          0.60030        3.84570       -0.57380
C         -2.04710        0.39510        0.93060
C         -3.18950       -0.61930        0.92770
C         -2.19910       -1.83670        6.91510
C         -3.07470       -2.62930        7.64600
N         -4.45020       -2.50520        7.63360
C         -5.10430       -2.07260        6.46790
C         -4.67490       -2.49630        5.21360
C         -5.25140       -1.97950        4.07050
C         -6.26510       -1.03290        4.14230
C         -6.82440       -0.40200        2.90470
C         -6.73350       -0.66650        5.39900
C         -6.17050       -1.18110        6.54910
C         -5.19010       -2.90490        8.75870
C         -6.38890       -3.59370        8.60480
C         -7.08940       -4.01890        9.71540
C         -6.61800       -3.77650       10.99990
C         -7.35150       -4.28820       12.20060
C         -5.43160       -3.06870       11.14410
C         -4.72540       -2.62970       10.04220
C         -2.37730       -3.64250        8.34720
S         -2.88660       -4.93490        9.37200
C         -1.21570       -5.50190        9.50010
C         -0.33390       -4.73840        8.68260
N          0.99040       -5.00490        8.47740
C          1.48690       -6.31650        8.35400
C          0.71600       -7.31540        7.76420
C          1.21810       -8.59570        7.64590
C          2.49700       -8.90980        8.09140
C          3.03740      -10.30180        7.98120
C          3.26740       -7.89870        8.65360
C          2.77450       -6.61650        8.79150
C          1.85970       -3.92660        8.21550
C          2.77430       -3.98600        7.16960
C          3.61340       -2.91660        6.92610
C          3.56220       -1.77010        7.70950
C          4.45130       -0.59930        7.42640
C          2.64970       -1.72480        8.75780
C          1.80840       -2.78760        9.01490
C         -1.01080       -3.66150        8.09160
S         -0.53750       -2.40090        6.99820
C         -0.76890       -6.47290       10.38410
C         -1.46820       -7.27200       11.27120
C         -2.92000       -7.36080       11.38250
O         -3.76260       -6.72980       10.76960
C         -3.18500       -8.41320       12.39000
C         -1.96130       -8.93500       12.84640
C         -1.95260       -9.94290       13.79590
C         -3.16660      -10.41430       14.27660
C         -4.36860       -9.89230       13.82690
Br        -5.98850      -10.57110       14.52720
C         -4.39890       -8.87420       12.86770
Cl        -5.87970       -8.22000       12.30910
C         -0.87360       -8.21790       12.17720
C          0.46570       -8.41860       12.42390
C          1.51980       -7.64370       11.90600
N          2.43780       -7.04020       11.56500
C          0.97210       -9.42240       13.27200
N          1.45350      -10.22910       13.93350
H          3.22090        3.89390      -12.66650
H          8.06170        2.20060      -14.24460
H          9.77790        0.70980      -13.25130
H         10.16190       -0.16820      -10.19770
H         10.34990       -1.05150      -11.71210
H          9.18220       -1.59970      -10.49680
H          7.15380       -0.25700      -10.02370
H         -1.83730        4.47020      -12.45040
H         -3.49630        6.26010      -12.16210
H         -3.79880        8.40470      -10.01440
H         -3.87070        8.70160      -11.74850
H         -2.72870        9.60360      -10.74010
H         -0.59730        8.62810      -10.11700
H          1.07100        6.85580      -10.42670
H          0.59320        5.54630      -14.00960
H          0.64330        4.30440      -16.13170
H          0.28070        2.14420      -17.28320
H          0.42490        0.62170      -16.38890
H          1.86800        1.53920      -16.81590
H          0.83050        0.62790      -13.97460
H          0.76650        1.85900      -11.85510
H          2.05390        6.51460       -5.99250
H          2.17020        8.11030       -4.14500
H          1.94340        8.20400       -1.47780
H          3.09900        7.16750       -0.63070
H          3.66850        8.39390       -1.76740
H          3.44580        4.99950       -1.52450
H          3.26360        3.37820       -3.35440
H          5.11490        3.86790       -5.21020
H          6.61300        1.93030       -5.34270
H          5.83670       -1.18420       -7.03860
H          5.82880       -1.24400       -5.27980
H          7.06590       -0.30090       -6.11310
H          3.41450       -0.45160       -6.85380
H          1.90310        1.47700       -6.70230
H         -3.04830        6.85790       -5.81370
H         -2.30480        6.11700       -7.23730
H         -0.23100        7.43910       -6.85450
H         -1.63180        8.50160       -6.99250
H         -0.94260        8.14950       -5.40300
H         -4.03460       -0.11950        8.26610
H         -4.82430        1.26430        7.48770
H         -1.93160        1.20610        8.48100
H         -2.72700        2.58810        7.72030
H         -3.28230        2.00720        9.29280
H         -0.34060        2.05090        0.10650
H          0.00850        2.06400       -1.64310
H          0.68630        4.45050       -1.47240
H          1.58810        3.47850       -0.31060
H          0.23060        4.47060        0.23660
H         -1.16400       -0.04340        1.40690
H         -1.81720        0.65820       -0.10070
H         -3.42010       -0.94000        1.93920
H         -2.90270       -1.48860        0.34230
H         -4.08110       -0.17760        0.48740
H         -3.88050       -3.22470        5.13760
H         -4.90520       -2.32050        3.10510
H         -6.37960        0.58380        2.75910
H         -7.90080       -0.27010        2.98880
H         -6.60940       -1.00630        2.02650
H         -7.53960        0.04820        5.47700
H         -6.53910       -0.88180        7.51890
H         -6.75790       -3.80320        7.61150
H         -8.01270       -4.56370        9.58070
H         -8.40030       -4.46360       11.97370
H         -6.91180       -5.23250       12.52270
H         -7.27990       -3.58730       13.02980
H         -5.05350       -2.85810       12.13410
H         -3.80770       -2.07350       10.17220
H         -0.27510       -7.08500        7.40160
H          0.60740       -9.36130        7.18950
H          3.12020      -10.74920        8.97170
H          4.03160      -10.29300        7.53830
H          2.38740      -10.92710        7.37450
H          4.26320       -8.12150        9.00560
H          3.37800       -5.84700        9.24580
H          2.81810       -4.86810        6.54820
H          4.31590       -2.97230        6.10740
H          3.89240        0.16980        6.89250
H          5.29870       -0.89210        6.81200
H          4.81970       -0.16150        8.35170
H          2.60260       -0.84650        9.38490
H          1.11190       -2.74770        9.83960
H          0.30500       -6.60960       10.38350
H         -1.03510      -10.36680       14.16780
H         -3.18100      -11.19980       15.01630
