207

C          1.95830        8.85750       -4.44000
C          1.46370        9.83420       -3.60170
C          0.59350        9.55220       -2.44690
O          0.15090        8.47210       -2.10010
C          0.48740       10.82810       -1.71240
C         -0.19180       11.11090       -0.54590
C         -0.13380       12.40410       -0.04640
C          0.59950       13.39560       -0.69010
C          0.68100       14.77410       -0.11310
C          1.28690       13.09890       -1.86810
C          1.22680       11.81760       -2.38170
C          1.81640       11.22460       -3.58140
C          2.45080       11.90780       -4.59050
C          2.88780       11.31070       -5.78870
N          3.24240       10.89350       -6.79880
C          2.66580       13.29720       -4.58530
N          2.84910       14.43070       -4.63950
C          1.36740        7.61280       -4.67120
C          0.02370        7.19240       -4.57750
N         -1.07200        7.98810       -4.43250
C         -2.27300        7.43510       -3.93060
C         -2.27200        6.68520       -2.75920
C         -3.45410        6.15140       -2.28570
C         -4.65340        6.35220       -2.95950
C         -5.92420        5.74090       -2.45590
C         -4.64300        7.11950       -4.11860
C         -3.46820        7.66020       -4.60400
C         -1.07670        9.35510       -4.74820
C         -1.72870       10.25350       -3.90670
C         -1.70660       11.60760       -4.18370
C         -1.04930       12.10020       -5.30320
C         -0.97740       13.56950       -5.57590
C         -0.44060       11.18960       -6.16380
C         -0.44970        9.83690       -5.89590
C         -0.06300        5.79200       -4.76260
S         -1.37230        4.66020       -4.73950
C         -0.26680        3.33480       -5.04480
C          1.03990        3.76450       -5.20830
N          2.09720        2.92200       -5.49770
C          3.36300        3.17620       -4.95170
C          3.49140        3.70350       -3.66980
C          4.74360        3.96890       -3.15140
C          5.89400        3.70480       -3.88320
C          7.24950        4.01670       -3.32710
C          5.75620        3.16190       -5.15600
C          4.51100        2.90250       -5.69070
C          1.87080        1.76670       -6.26300
C          1.04500        1.81270       -7.38140
C          0.77450        0.66130       -8.09310
C          1.30420       -0.56270       -7.70750
C          0.95840       -1.82520       -8.43630
C          2.15480       -0.59440       -6.60740
C          2.44510        0.55170       -5.89610
C          1.14110        5.16780       -5.05660
S          2.44420        6.29100       -5.15430
C         -0.63720        1.95590       -4.84250
C         -1.48030        1.08550       -5.49290
C         -2.30110        1.37100       -6.67020
C         -3.02490        2.55130       -6.79860
C         -3.80410        2.76670       -7.92040
C         -3.88010        1.80930       -8.91540
C         -3.17900        0.61470       -8.79690
C         -3.25150       -0.42340       -9.88070
C         -2.32920       -0.06530      -11.04740
C         -2.39360        0.40950       -7.67470
C         -1.43990       -0.20020       -4.89470
S         -2.32120       -1.68120       -5.19360
C         -1.58930       -2.38930       -3.79010
C         -1.66030       -3.56420       -3.01420
C         -2.33210       -4.79810       -3.16670
C         -2.20590       -5.80040       -2.13860
N         -2.85330       -6.91400       -2.44070
S         -3.56290       -6.72530       -3.88270
N         -3.07430       -5.21160       -4.18150
C         -1.53160       -5.47790       -0.93780
C         -1.48710       -6.09820        0.32420
S         -2.05250       -7.53630        1.10440
C         -1.50350       -6.90140        2.63900
C         -1.57080       -7.38290        3.95850
C         -2.07830       -8.69530        4.33880
C         -3.21450       -9.21310        3.72200
C         -3.70430      -10.44570        4.10670
C         -3.07390      -11.16790        5.10340
C         -1.92590      -10.67740        5.71590
C         -1.26470      -11.43750        6.82930
C         -1.75620      -10.93000        8.18700
C         -1.43200       -9.44670        5.31810
C         -1.01120       -6.47350        4.85380
S         -0.34080       -5.06030        4.04370
C         -0.88450       -5.65210        2.51880
C         -0.87330       -5.19460        1.19990
N         -0.48620       -4.06230        0.52740
C         -0.88830       -4.22160       -0.78810
C         -0.82500       -3.34100       -1.88890
N         -0.18710       -2.12050       -2.02120
C         -0.68310       -1.53470       -3.15780
C         -0.59590       -0.29080       -3.79330
S          0.20610        1.20020       -3.48710
C          1.13900       -1.79780       -1.53740
C          2.16910       -1.83770       -2.66570
C         -0.33920       -2.81970        1.25930
C         -1.63410       -2.01150        1.24720
C         -1.08750       -6.52560        6.26760
C         -2.10940       -7.07770        7.04090
C         -1.76290       -6.91970        8.40390
C         -0.51190       -6.20170        8.47740
O          0.15220       -5.79870        9.41010
N         -0.15980       -5.98960        7.12960
C          1.08580       -5.36400        6.78120
C         -2.82620       -7.36160        9.18440
N         -3.82170       -7.76090        8.32730
C         -5.09550       -8.29910        8.71580
C         -3.45380       -7.60870        6.97670
O         -4.20080       -7.85080        6.05170
C         -2.97730       -7.26560       10.58860
C         -1.92330       -7.24680       11.45250
C         -0.55490       -7.76100       11.13020
O         -0.25110       -8.48830       10.21230
C          0.28060       -7.37100       12.27600
C          1.64470       -7.50540       12.44770
C          2.20670       -7.05550       13.63080
C          1.42390       -6.49050       14.63740
C          2.06550       -5.99590       15.89500
C          0.04720       -6.37060       14.46230
C         -0.52740       -6.80990       13.28110
C         -1.91600       -6.79580       12.82710
C         -2.99780       -6.39050       13.56830
C         -4.33190       -6.39030       13.11440
N         -5.43880       -6.36500       12.80690
C         -2.92480       -5.94390       14.90350
N         -2.94000       -5.57250       15.99010
H          2.91280        9.02430       -4.92510
H         -0.75680       10.33960       -0.04480
H         -0.66550       12.64880        0.86190
H         -0.20100       15.00320        0.48000
H          0.78670       15.51740       -0.89960
H          1.55340       14.84930        0.53700
H          1.86130       13.87170       -2.35400
H         -1.34680        6.55640       -2.22000
H         -3.44680        5.57340       -1.37310
H         -6.03720        4.73550       -2.86310
H         -5.91470        5.66360       -1.37110
H         -6.78730        6.32710       -2.76200
H         -5.56660        7.29340       -4.65120
H         -3.46880        8.25490       -5.50600
H         -2.23890        9.88440       -3.02960
H         -2.19820       12.29240       -3.50800
H         -1.08610       13.77090       -6.63940
H         -1.75060       14.10520       -5.03100
H         -0.00860       13.96170       -5.26300
H          0.05530       11.54790       -7.05400
H          0.03370        9.15030       -6.57460
H          2.60770        3.89510       -3.07850
H          4.82680        4.38260       -2.15670
H          7.23630        4.00440       -2.23970
H          7.98850        3.30110       -3.68050
H          7.56340        5.01000       -3.64950
H          6.63870        2.94850       -5.74160
H          4.41700        2.48990       -6.68440
H          0.60650        2.75170       -7.68520
H          0.13210        0.72210       -8.95880
H          0.43080       -1.60900       -9.36180
H          1.85610       -2.39520       -8.66950
H          0.31910       -2.45340       -7.81480
H          2.58770       -1.53520       -6.29770
H          3.10510        0.51560       -5.04120
H         -3.00450        3.28590       -6.00940
H         -4.36500        3.68540       -8.01090
H         -4.49890        1.98170       -9.78430
H         -2.96470       -1.39610       -9.47710
H         -4.27730       -0.49610      -10.24850
H         -1.29610       -0.00400      -10.71220
H         -2.39330       -0.82000      -11.82800
H         -2.60630        0.89710      -11.47160
H         -1.83720       -0.51060       -7.57970
H         -3.73190       -8.63320        2.97460
H         -4.59280      -10.83830        3.63540
H         -3.47270      -12.12430        5.41070
H         -0.18110      -11.31630        6.77420
H         -1.49600      -12.50070        6.73590
H         -1.43430       -9.90570        8.35570
H         -1.35500      -11.54530        8.98880
H         -2.84320      -10.96660        8.23000
H         -0.52680       -9.06940        5.77310
H          1.12520       -0.80040       -1.08510
H          1.42220       -2.54310       -0.79490
H          3.15930       -1.65100       -2.25870
H          2.16500       -2.81560       -3.14260
H          1.95570       -1.08240       -3.41610
H          0.47410       -2.21740        0.85890
H         -0.08020       -3.09140        2.28550
H         -1.89280       -1.71970        0.23220
H         -2.45110       -2.60010        1.65820
H         -1.51340       -1.11490        1.84840
H          1.63190       -5.96300        6.05100
H          1.66630       -5.28710        7.70120
H          0.92820       -4.36040        6.37920
H         -5.62150       -8.56050        7.79750
H         -5.68250       -7.56210        9.26860
H         -4.96840       -9.19090        9.33230
H         -3.98570       -7.13380       10.95740
H          2.24650       -7.94090       11.66550
H          3.27310       -7.13920       13.78320
H          2.53820       -5.03050       15.71210
H          2.83690       -6.68470       16.23280
H          1.32980       -5.86950       16.68470
H         -0.54980       -5.93460       15.24730
