261

C          1.77500        4.06670       -8.67310
C          0.84840        4.84230       -8.06260
C         -0.04340        5.74190       -8.85600
O          0.10280        6.06020      -10.01330
C         -1.13880        6.09580       -7.93710
C         -2.30580        6.79540       -8.18580
C         -3.19780        6.98140       -7.14250
C         -2.94290        6.47990       -5.86550
C         -3.92390        6.70390       -4.76050
C         -1.76130        5.78420       -5.61860
C         -0.86080        5.59380       -6.65160
C          0.44370        4.94070       -6.67110
C          1.23300        4.72910       -5.57440
C          2.58720        4.33550       -5.62350
N          3.70520        4.07630       -5.59290
C          0.84400        5.01130       -4.24820
N          0.61420        5.23660       -3.14640
C          2.41890        2.92610       -8.10350
C          3.72210        2.53990       -8.23420
C          4.07550        1.44100       -7.41320
C          5.36430        0.92360       -7.15200
C          6.51130        1.33680       -7.92140
C          6.56570        1.62590       -9.26420
C          7.85070        1.95230       -9.70830
C          8.80960        1.88980       -8.72340
C         10.18990        2.25500       -8.86960
C         11.27060        1.83750       -8.18280
C         11.42420        0.77470       -7.23230
C         12.48500        0.64060       -6.36970
C         12.46050       -0.54890       -5.62270
C         11.40450       -1.35440       -5.92850
C         11.04400       -2.67260       -5.33510
C          9.96890       -2.51570       -4.25840
S         10.39750       -0.62950       -7.13590
S          8.08830        1.46250       -7.20390
C          5.45440        0.00240       -6.10940
C          4.32410       -0.51730       -5.43880
C          3.03580       -0.05450       -5.74790
C          1.86780       -0.57970       -5.06160
C          1.62790       -0.63960       -3.71820
C          0.40320       -1.25260       -3.40480
C         -0.28030       -1.70760       -4.50190
C         -1.57460       -2.33930       -4.51030
C         -2.02940       -3.26680       -5.36880
C         -1.27120       -3.97600       -6.36420
C          0.03640       -4.38240       -6.35700
C          0.39230       -5.13480       -7.49130
C         -0.63330       -5.31890       -8.36870
C         -0.61370       -6.01250       -9.68690
C         -0.65610       -5.00920      -10.84170
S         -2.08090       -4.56300       -7.79290
S          0.57360       -1.30740       -5.96510
C          2.95650        0.94750       -6.69980
S          1.51390        1.85090       -7.05180
C          4.67470       -1.46280       -4.44380
C          6.01540       -1.63090       -4.30840
S          6.92380       -0.66850       -5.45450
C          6.62830       -2.39080       -3.24470
C          6.38920       -3.70460       -2.90460
C          5.62710       -4.59840       -3.77580
C          4.74340       -5.53120       -3.23730
C          3.93190       -6.27620       -4.07150
C          3.97350       -6.08790       -5.44200
C          4.86170       -5.17700       -5.99950
C          4.87700       -4.90520       -7.47650
C          4.13410       -3.60130       -7.78010
C          5.69730       -4.45800       -5.15940
C          6.84060       -3.97440       -1.58790
S          6.69120       -5.34800       -0.50910
C          7.16160       -4.34260        0.82640
C          7.04850       -4.33040        2.23320
C          6.73200       -5.30980        3.20220
C          6.43830       -4.89380        4.55270
N          6.17100       -5.91650        5.34570
S          6.27860       -7.28400        4.48370
N          6.66040       -6.62170        3.05510
C          6.31070       -3.51060        4.82810
C          5.54380       -2.82360        5.78890
S          4.47970       -3.18790        7.11100
C          3.77540       -1.58890        6.96330
C          2.59780       -1.01330        7.48280
C          1.77040       -1.64290        8.51400
C          1.41080       -2.98310        8.41630
C          0.61600       -3.55540        9.39240
C          0.17580       -2.80330       10.46640
C          0.53530       -1.46590       10.58750
C          0.00620       -0.62810       11.71540
C         -1.33430       -0.00280       11.32240
C          1.33830       -0.90000        9.61050
C          2.31720        0.19680        6.86010
S          3.58750        0.68570        5.74770
C          4.42040       -0.80310        6.00690
C          5.44250       -1.49950        5.35140
N          6.19730       -1.31160        4.22470
C          6.69880       -2.54740        3.85980
C          7.24110       -2.98020        2.62620
N          7.62290       -2.23250        1.52680
C          7.51350       -3.05050        0.43090
C          7.37070       -2.85580       -0.94830
S          7.44040       -1.48000       -1.98690
C          8.47450       -1.06360        1.52340
C          9.84170       -1.37890        0.91880
C          5.98520       -0.13200        3.41560
C          4.93740       -0.36910        2.33090
C          1.07560        0.88880        6.76330
C         -0.14240        0.52390        7.26670
C         -1.22830        1.25660        6.74210
C         -2.60140        1.05030        6.98510
C         -3.09740        0.01910        7.87070
C         -4.20790        0.07090        8.67280
C         -4.48690       -1.13850        9.32290
C         -3.60500       -2.14050        9.01760
C         -3.57360       -3.49640        9.51070
C         -4.62030       -4.33730        9.55180
C         -5.91940       -4.16850        8.96680
C         -7.00560       -4.97870        9.18410
C         -8.11870       -4.65490        8.38830
C         -7.88810       -3.61370        7.53980
C         -8.81800       -2.99530        6.55400
C         -9.25130       -1.59330        6.98600
S         -6.28460       -2.99030        7.73440
S         -2.37210       -1.56570        7.93840
C         -3.48590        1.85590        6.26940
C         -3.05620        2.82070        5.31890
C         -1.67440        3.04180        5.09040
C         -1.18530        4.01150        4.13510
C         -0.14600        4.88910        4.30710
C          0.06370        5.72460        3.20200
C         -0.77060        5.46410        2.14360
C         -0.86940        6.22250        0.92450
C         -1.19440        5.79650       -0.30850
C         -1.28070        4.44440       -0.77700
C         -0.62710        3.31890       -0.35100
C         -0.82680        2.20530       -1.18610
C         -1.63560        2.45830       -2.25320
C         -2.01310        1.54140       -3.36470
C         -1.22200        1.85970       -4.63540
S         -2.16840        4.10360       -2.23800
S         -1.87640        4.18110        2.54360
C         -0.80370        2.25640        5.82850
S          0.93330        2.25290        5.66370
C         -4.14560        3.44860        4.70100
C         -5.38120        2.99170        5.12510
S         -5.22060        1.75920        6.35820
C         -6.57970        3.47880        4.56800
C         -7.88230        3.17200        4.84950
C         -8.35870        2.27720        5.91810
O         -7.69230        1.61570        6.69200
C         -9.83000        2.33010        5.87270
C        -10.71550        1.66420        6.71670
C        -12.03900        1.86550        6.40880
C        -12.45160        2.67890        5.34500
C        -11.58860        3.36020        4.52030
C        -10.23520        3.16440        4.81190
C         -9.04350        3.70710        4.16230
C         -9.05050        4.55720        3.08570
C        -10.21630        5.03780        2.45340
N        -11.11370        5.47360        1.88430
C         -7.91730        5.08510        2.43180
N         -7.06320        5.56400        1.83020
C        -13.91250        2.40360        5.59660
C        -14.62410        1.39610        4.65950
C        -13.56060        0.45650        4.14790
C        -13.17560       -0.30920        5.16010
C        -13.97000        0.10090        6.37530
C        -15.29720        0.49710        5.70900
C        -13.45360        1.50230        6.78600
H          2.00760        4.30760       -9.70540
H         -2.50560        7.18230       -9.17320
H         -4.11500        7.52510       -7.31610
H         -4.94240        6.55120       -5.11090
H         -3.72880        6.03680       -3.92510
H         -3.84760        7.73090       -4.40310
H         -1.57210        5.39430       -4.63070
H          4.43180        3.10730       -8.80780
H          5.71290        1.55620       -9.91560
H          8.08280        2.19910      -10.72950
H         10.35640        2.99650       -9.64270
H         12.20540        2.34500       -8.39370
H         13.25130        1.38960       -6.27170
H         13.20740       -0.80890       -4.89310
H         10.67100       -3.33750       -6.11720
H         11.93850       -3.12240       -4.89830
H         10.32890       -1.88040       -3.45210
H          9.69720       -3.48560       -3.84760
H          9.08180       -2.05520       -4.68690
H          2.29780       -0.22610       -2.98480
H          0.04700       -1.38940       -2.39850
H         -2.24500       -1.99520       -3.73170
H         -3.07290       -3.54900       -5.30660
H          0.71390       -4.17620       -5.54730
H          1.37790       -5.53540       -7.65070
H          0.29620       -6.61290       -9.75460
H         -1.47350       -6.68260       -9.76410
H         -0.63540       -5.53030      -11.79550
H          0.19850       -4.33830      -10.79110
H         -1.56520       -4.41430      -10.78920
H          3.95650       -1.97680       -3.83160
H          4.67500       -5.65630       -2.16810
H          3.24710       -6.99580       -3.64740
H          3.31450       -6.65730       -6.08180
H          4.40190       -5.72880       -8.01310
H          5.90750       -4.81930       -7.82800
H          3.10750       -3.65190       -7.42300
H          4.11940       -3.41110       -8.85080
H          4.62060       -2.76250       -7.28740
H          6.41350       -3.77330       -5.58950
H          1.73600       -3.56710        7.56950
H          0.33510       -4.59500        9.30890
H         -0.44760       -3.25430       11.22550
H          0.71750        0.16490       11.95480
H         -0.13160       -1.24530       12.60540
H         -1.72230        0.60830       12.13390
H         -1.21820        0.62540       10.44140
H         -2.06350       -0.77730       11.09460
H          1.63310        0.13700        9.69320
H          7.99750       -0.26430        0.94480
H          8.61670       -0.74510        2.55710
H         10.30850       -2.20600        1.44930
H         10.48360       -0.50560        0.99730
H          9.74770       -1.64400       -0.13060
H          5.63440        0.65100        4.09270
H          6.91980        0.20750        2.97470
H          5.26020       -1.14480        1.64120
H          4.77250        0.54910        1.77430
H          3.99630       -0.67480        2.78180
H         -0.25940       -0.28480        7.95960
H         -4.79180        0.96140        8.81590
H         -5.30610       -1.27190       10.00640
H         -2.61120       -3.84250        9.86520
H         -4.48300       -5.29830       10.03280
H         -7.00040       -5.78050        9.90180
H         -9.05510       -5.18320        8.43310
H         -8.32530       -2.92870        5.58050
H         -9.69570       -3.63790        6.44940
H         -8.38870       -0.93540        7.06840
H         -9.93740       -1.17220        6.25410
H         -9.75200       -1.63600        7.95130
H          0.41510        4.96130        5.22170
H          0.81940        6.48950        3.16970
H         -0.67890        7.28110        1.05660
H         -1.34290        6.54450       -1.07620
H          0.01570        3.30470        0.51070
H         -0.37610        1.24400       -1.00990
H         -3.08160        1.62890       -3.57640
H         -1.80370        0.51500       -3.05760
H         -1.46150        2.85970       -4.99000
H         -0.15320        1.80740       -4.43690
H         -1.46170        1.14780       -5.42140
H         -4.05320        4.21900        3.95650
H         -6.40790        4.20750        3.78470
H        -10.35270        1.05190        7.52670
H        -11.92590        3.98980        3.71440
H        -14.53230        3.26960        5.82030
H        -15.26150        1.85300        3.90740
H        -13.16940        0.48250        3.14770
H        -12.40040       -1.05320        5.17380
H        -14.01290       -0.62070        7.18700
H        -15.81600       -0.35180        5.26600
H        -15.97250        1.03550        6.37250
H        -13.76840        1.78370        7.78910
