
  xtb     02132206073D
 energy: -339.084667105739 gnorm: 0.000476512183 xtb: 6.4.1 (unknown)
201222  0     0  0            999 V2000
    4.8870   -2.5899  -12.5838 C   0  0  0  0  0  0  0  0  0  0  0  0
    5.5929   -3.4715  -13.3353 C   0  0  0  0  0  0  0  0  0  0  0  0
    6.3202   -3.0099  -14.5533 C   0  0  0  0  0  0  0  0  0  0  0  0
    6.1515   -1.9688  -15.1458 O   0  0  0  0  0  0  0  0  0  0  0  0
    7.3153   -4.0648  -14.8194 C   0  0  0  0  0  0  0  0  0  0  0  0
    8.3388   -4.0927  -15.7475 C   0  0  0  0  0  0  0  0  0  0  0  0
    9.1670   -5.2037  -15.7830 C   0  0  0  0  0  0  0  0  0  0  0  0
    8.9895   -6.2718  -14.9059 C   0  0  0  0  0  0  0  0  0  0  0  0
    9.9165   -7.4449  -14.9379 C   0  0  0  0  0  0  0  0  0  0  0  0
    7.9507   -6.2416  -13.9758 C   0  0  0  0  0  0  0  0  0  0  0  0
    7.1122   -5.1436  -13.9368 C   0  0  0  0  0  0  0  0  0  0  0  0
    5.9341   -4.8635  -13.1217 C   0  0  0  0  0  0  0  0  0  0  0  0
    5.1408   -5.7990  -12.5148 C   0  0  0  0  0  0  0  0  0  0  0  0
    3.8489   -5.5082  -12.0252 C   0  0  0  0  0  0  0  0  0  0  0  0
    2.7692   -5.3216  -11.6832 N   0  0  0  0  0  0  0  0  0  0  0  0
    5.4755   -7.1637  -12.4130 C   0  0  0  0  0  0  0  0  0  0  0  0
    5.7139   -8.2805  -12.2952 N   0  0  0  0  0  0  0  0  0  0  0  0
    4.4863   -2.7106  -11.2263 C   0  0  0  0  0  0  0  0  0  0  0  0
    3.5228   -1.9626  -10.6021 C   0  0  0  0  0  0  0  0  0  0  0  0
    3.3578   -2.2675   -9.2328 C   0  0  0  0  0  0  0  0  0  0  0  0
    2.4180   -1.7340   -8.3313 C   0  0  0  0  0  0  0  0  0  0  0  0
    1.5082   -0.6475   -8.7160 C   0  0  0  0  0  0  0  0  0  0  0  0
    2.0062    0.5126   -9.3081 C   0  0  0  0  0  0  0  0  0  0  0  0
    1.1467    1.5448   -9.6310 C   0  0  0  0  0  0  0  0  0  0  0  0
   -0.2103    1.4445   -9.3771 C   0  0  0  0  0  0  0  0  0  0  0  0
   -0.7151    0.2869   -8.8006 C   0  0  0  0  0  0  0  0  0  0  0  0
   -2.4190    0.0454   -8.3953 S   0  0  0  0  0  0  0  0  0  0  0  0
   -3.3165    1.1890   -9.5029 C   0  0  0  0  0  0  0  0  0  0  0  0
   -3.1699    0.8054  -10.9625 C   0  0  0  0  0  0  0  0  0  0  0  0
    0.1466   -0.7522   -8.4693 C   0  0  0  0  0  0  0  0  0  0  0  0
    2.4142   -2.2668   -7.0538 C   0  0  0  0  0  0  0  0  0  0  0  0
    3.3110   -3.2813   -6.6309 C   0  0  0  0  0  0  0  0  0  0  0  0
    4.2538   -3.8107   -7.5283 C   0  0  0  0  0  0  0  0  0  0  0  0
    5.1545   -4.9043   -7.1413 C   0  0  0  0  0  0  0  0  0  0  0  0
    4.6467   -6.0520   -6.5346 C   0  0  0  0  0  0  0  0  0  0  0  0
    5.4962   -7.0881   -6.2005 C   0  0  0  0  0  0  0  0  0  0  0  0
    6.8532   -7.0059   -6.4600 C   0  0  0  0  0  0  0  0  0  0  0  0
    7.3674   -5.8615   -7.0534 C   0  0  0  0  0  0  0  0  0  0  0  0
    9.0751   -5.6421   -7.4601 S   0  0  0  0  0  0  0  0  0  0  0  0
    9.9573   -6.7716   -6.3254 C   0  0  0  0  0  0  0  0  0  0  0  0
    9.7971   -6.3657   -4.8731 C   0  0  0  0  0  0  0  0  0  0  0  0
    6.5164   -4.8171   -7.3946 C   0  0  0  0  0  0  0  0  0  0  0  0
    4.2571   -3.2788   -8.8058 C   0  0  0  0  0  0  0  0  0  0  0  0
    5.2933   -3.7970  -10.1046 S   0  0  0  0  0  0  0  0  0  0  0  0
    3.1408   -3.6064   -5.2653 C   0  0  0  0  0  0  0  0  0  0  0  0
    2.1402   -2.9035   -4.6564 C   0  0  0  0  0  0  0  0  0  0  0  0
    1.3693   -1.7687   -5.7490 S   0  0  0  0  0  0  0  0  0  0  0  0
    1.7204   -2.9854   -3.2964 C   0  0  0  0  0  0  0  0  0  0  0  0
    1.9607   -3.9980   -2.3853 C   0  0  0  0  0  0  0  0  0  0  0  0
    2.5424   -5.3109   -2.6799 C   0  0  0  0  0  0  0  0  0  0  0  0
    2.0269   -6.1010   -3.7044 C   0  0  0  0  0  0  0  0  0  0  0  0
    2.5460   -7.3613   -3.9275 C   0  0  0  0  0  0  0  0  0  0  0  0
    3.5778   -7.8417   -3.1384 C   0  0  0  0  0  0  0  0  0  0  0  0
    4.1025   -7.0672   -2.1129 C   0  0  0  0  0  0  0  0  0  0  0  0
    5.1799   -7.5996   -1.2134 C   0  0  0  0  0  0  0  0  0  0  0  0
    4.5622   -8.1960    0.0530 C   0  0  0  0  0  0  0  0  0  0  0  0
    3.5713   -5.8052   -1.8883 C   0  0  0  0  0  0  0  0  0  0  0  0
    1.4942   -3.6472   -1.1035 C   0  0  0  0  0  0  0  0  0  0  0  0
    1.5216   -4.4807    0.4317 S   0  0  0  0  0  0  0  0  0  0  0  0
    0.6966   -3.1383    1.1501 C   0  0  0  0  0  0  0  0  0  0  0  0
    0.2387   -2.7204    2.4133 C   0  0  0  0  0  0  0  0  0  0  0  0
    0.3962   -3.2381    3.7196 C   0  0  0  0  0  0  0  0  0  0  0  0
   -0.0366   -2.4490    4.8458 C   0  0  0  0  0  0  0  0  0  0  0  0
    0.2559   -3.0220    6.0019 N   0  0  0  0  0  0  0  0  0  0  0  0
    0.9973   -4.4310    5.7086 S   0  0  0  0  0  0  0  0  0  0  0  0
    0.9814   -4.3653    4.0906 N   0  0  0  0  0  0  0  0  0  0  0  0
   -0.7493   -1.2496    4.6160 C   0  0  0  0  0  0  0  0  0  0  0  0
   -1.4031   -0.3369    5.4620 C   0  0  0  0  0  0  0  0  0  0  0  0
   -1.5894   -0.0203    7.1547 S   0  0  0  0  0  0  0  0  0  0  0  0
   -2.5969    1.3542    6.7530 C   0  0  0  0  0  0  0  0  0  0  0  0
   -3.2493    2.3032    7.5386 C   0  0  0  0  0  0  0  0  0  0  0  0
   -3.2181    2.2572    9.0060 C   0  0  0  0  0  0  0  0  0  0  0  0
   -4.3844    2.0153    9.7275 C   0  0  0  0  0  0  0  0  0  0  0  0
   -4.3353    1.9539   11.1058 C   0  0  0  0  0  0  0  0  0  0  0  0
   -3.1331    2.1296   11.7694 C   0  0  0  0  0  0  0  0  0  0  0  0
   -1.9606    2.3564   11.0630 C   0  0  0  0  0  0  0  0  0  0  0  0
   -0.6443    2.4903   11.7709 C   0  0  0  0  0  0  0  0  0  0  0  0
    0.0708    1.1385   11.8192 C   0  0  0  0  0  0  0  0  0  0  0  0
   -2.0127    2.4064    9.6780 C   0  0  0  0  0  0  0  0  0  0  0  0
   -3.9401    3.2375    6.7601 C   0  0  0  0  0  0  0  0  0  0  0  0
   -3.8281    2.8677    5.0403 S   0  0  0  0  0  0  0  0  0  0  0  0
   -2.7805    1.5384    5.3769 C   0  0  0  0  0  0  0  0  0  0  0  0
   -2.0919    0.5680    4.6429 C   0  0  0  0  0  0  0  0  0  0  0  0
   -1.8710    0.2677    3.3210 N   0  0  0  0  0  0  0  0  0  0  0  0
   -1.0200   -0.8186    3.2904 C   0  0  0  0  0  0  0  0  0  0  0  0
   -0.3779   -1.4597    2.2101 C   0  0  0  0  0  0  0  0  0  0  0  0
   -0.2447   -1.0864    0.8848 N   0  0  0  0  0  0  0  0  0  0  0  0
    0.4068   -2.1116    0.2451 C   0  0  0  0  0  0  0  0  0  0  0  0
    0.8719   -2.3990   -1.0437 C   0  0  0  0  0  0  0  0  0  0  0  0
    0.8744   -1.6207   -2.5853 S   0  0  0  0  0  0  0  0  0  0  0  0
   -0.1462    0.2682    0.3797 C   0  0  0  0  0  0  0  0  0  0  0  0
    1.3115    0.7194    0.2891 C   0  0  0  0  0  0  0  0  0  0  0  0
   -2.8412    0.6292    2.3068 C   0  0  0  0  0  0  0  0  0  0  0  0
   -4.2341    0.1091    2.6605 C   0  0  0  0  0  0  0  0  0  0  0  0
   -4.5133    4.4324    7.2570 C   0  0  0  0  0  0  0  0  0  0  0  0
   -4.0835    4.9296    8.8698 S   0  0  0  0  0  0  0  0  0  0  0  0
   -5.0345    6.3820    8.7464 C   0  0  0  0  0  0  0  0  0  0  0  0
   -5.6384    6.4753    7.4887 C   0  0  0  0  0  0  0  0  0  0  0  0
   -6.4836    7.6082    7.0762 C   0  0  0  0  0  0  0  0  0  0  0  0
   -6.5229    8.6707    7.6761 O   0  0  0  0  0  0  0  0  0  0  0  0
   -7.2548    7.3454    5.8645 C   0  0  0  0  0  0  0  0  0  0  0  0
   -8.2434    8.1633    5.3770 C   0  0  0  0  0  0  0  0  0  0  0  0
   -8.8197    9.3909    5.9824 C   0  0  0  0  0  0  0  0  0  0  0  0
   -9.7521    9.0478    7.1489 C   0  0  0  0  0  0  0  0  0  0  0  0
   -8.8689    7.5442    3.8870 S   0  0  0  0  0  0  0  0  0  0  0  0
   -7.7766    6.2019    3.8951 C   0  0  0  0  0  0  0  0  0  0  0  0
   -7.8175    5.2004    2.7977 C   0  0  0  0  0  0  0  0  0  0  0  0
   -8.6176    3.9634    3.2161 C   0  0  0  0  0  0  0  0  0  0  0  0
   -6.9902    6.2195    5.0209 C   0  0  0  0  0  0  0  0  0  0  0  0
   -5.9514    5.2386    5.3257 C   0  0  0  0  0  0  0  0  0  0  0  0
   -5.6345    4.3557    4.5336 O   0  0  0  0  0  0  0  0  0  0  0  0
   -5.3536    5.3795    6.6457 C   0  0  0  0  0  0  0  0  0  0  0  0
   -5.2699    7.2792    9.8046 C   0  0  0  0  0  0  0  0  0  0  0  0
   -4.6956    7.3380   11.0427 C   0  0  0  0  0  0  0  0  0  0  0  0
   -3.5260    6.5743   11.5153 C   0  0  0  0  0  0  0  0  0  0  0  0
   -2.9956    5.6177   10.9810 O   0  0  0  0  0  0  0  0  0  0  0  0
   -3.1039    7.2274   12.7642 C   0  0  0  0  0  0  0  0  0  0  0  0
   -2.0178    6.9454   13.5707 C   0  0  0  0  0  0  0  0  0  0  0  0
   -1.8135    7.7284   14.6953 C   0  0  0  0  0  0  0  0  0  0  0  0
   -2.6729    8.7787   15.0136 C   0  0  0  0  0  0  0  0  0  0  0  0
   -2.4063    9.6318   16.2126 C   0  0  0  0  0  0  0  0  0  0  0  0
   -3.7717    9.0511   14.1992 C   0  0  0  0  0  0  0  0  0  0  0  0
   -3.9912    8.2739   13.0756 C   0  0  0  0  0  0  0  0  0  0  0  0
   -5.0456    8.3074   12.0648 C   0  0  0  0  0  0  0  0  0  0  0  0
   -6.1984    9.0433   12.1257 C   0  0  0  0  0  0  0  0  0  0  0  0
   -7.2873    8.9242   11.2330 C   0  0  0  0  0  0  0  0  0  0  0  0
   -8.2387    8.8463   10.5950 N   0  0  0  0  0  0  0  0  0  0  0  0
   -6.4822    9.9719   13.1489 C   0  0  0  0  0  0  0  0  0  0  0  0
   -6.7601   10.7445   13.9513 N   0  0  0  0  0  0  0  0  0  0  0  0
    4.6721   -1.6356  -13.0548 H   0  0  0  0  0  0  0  0  0  0  0  0
    8.4787   -3.2648  -16.4254 H   0  0  0  0  0  0  0  0  0  0  0  0
    9.9704   -5.2450  -16.5041 H   0  0  0  0  0  0  0  0  0  0  0  0
   10.4068   -7.5317  -15.9041 H   0  0  0  0  0  0  0  0  0  0  0  0
   10.6865   -7.3252  -14.1751 H   0  0  0  0  0  0  0  0  0  0  0  0
    9.3787   -8.3659  -14.7251 H   0  0  0  0  0  0  0  0  0  0  0  0
    7.8209   -7.0663  -13.2925 H   0  0  0  0  0  0  0  0  0  0  0  0
    2.9118   -1.2513  -11.1289 H   0  0  0  0  0  0  0  0  0  0  0  0
    3.0668    0.6115   -9.4849 H   0  0  0  0  0  0  0  0  0  0  0  0
    1.5356    2.4477  -10.0787 H   0  0  0  0  0  0  0  0  0  0  0  0
   -0.8553    2.2735   -9.6216 H   0  0  0  0  0  0  0  0  0  0  0  0
   -4.3531    1.0994   -9.1780 H   0  0  0  0  0  0  0  0  0  0  0  0
   -2.9786    2.2058   -9.3050 H   0  0  0  0  0  0  0  0  0  0  0  0
   -3.7503    1.4842  -11.5845 H   0  0  0  0  0  0  0  0  0  0  0  0
   -2.1283    0.8523  -11.2742 H   0  0  0  0  0  0  0  0  0  0  0  0
   -3.5297   -0.2083  -11.1219 H   0  0  0  0  0  0  0  0  0  0  0  0
   -0.2616   -1.6511   -8.0336 H   0  0  0  0  0  0  0  0  0  0  0  0
    3.5872   -6.1386   -6.3504 H   0  0  0  0  0  0  0  0  0  0  0  0
    5.0973   -7.9784   -5.7384 H   0  0  0  0  0  0  0  0  0  0  0  0
    7.4908   -7.8385   -6.2086 H   0  0  0  0  0  0  0  0  0  0  0  0
   10.9975   -6.6912   -6.6407 H   0  0  0  0  0  0  0  0  0  0  0  0
    9.6167   -7.7896   -6.5111 H   0  0  0  0  0  0  0  0  0  0  0  0
    8.7516   -6.4010   -4.5728 H   0  0  0  0  0  0  0  0  0  0  0  0
   10.3659   -7.0394   -4.2351 H   0  0  0  0  0  0  0  0  0  0  0  0
   10.1626   -5.3523   -4.7245 H   0  0  0  0  0  0  0  0  0  0  0  0
    6.9335   -3.9286   -7.8441 H   0  0  0  0  0  0  0  0  0  0  0  0
    3.7618   -4.3119   -4.7456 H   0  0  0  0  0  0  0  0  0  0  0  0
    1.2157   -5.7265   -4.3110 H   0  0  0  0  0  0  0  0  0  0  0  0
    2.1393   -7.9771   -4.7165 H   0  0  0  0  0  0  0  0  0  0  0  0
    3.9746   -8.8314   -3.3149 H   0  0  0  0  0  0  0  0  0  0  0  0
    5.8616   -6.7931   -0.9351 H   0  0  0  0  0  0  0  0  0  0  0  0
    5.7539   -8.3687   -1.7342 H   0  0  0  0  0  0  0  0  0  0  0  0
    3.9893   -7.4408    0.5862 H   0  0  0  0  0  0  0  0  0  0  0  0
    5.3387   -8.5757    0.7130 H   0  0  0  0  0  0  0  0  0  0  0  0
    3.8926   -9.0141   -0.2030 H   0  0  0  0  0  0  0  0  0  0  0  0
    3.9691   -5.1923   -1.0922 H   0  0  0  0  0  0  0  0  0  0  0  0
   -5.3201    1.8838    9.2030 H   0  0  0  0  0  0  0  0  0  0  0  0
   -5.2397    1.7691   11.6671 H   0  0  0  0  0  0  0  0  0  0  0  0
   -3.1066    2.0911   12.8492 H   0  0  0  0  0  0  0  0  0  0  0  0
   -0.8061    2.8517   12.7882 H   0  0  0  0  0  0  0  0  0  0  0  0
   -0.0175    3.2132   11.2455 H   0  0  0  0  0  0  0  0  0  0  0  0
   -0.5330    0.4113   12.3576 H   0  0  0  0  0  0  0  0  0  0  0  0
    0.2378    0.7626   10.8125 H   0  0  0  0  0  0  0  0  0  0  0  0
    1.0314    1.2319   12.3206 H   0  0  0  0  0  0  0  0  0  0  0  0
   -1.1106    2.5877    9.1118 H   0  0  0  0  0  0  0  0  0  0  0  0
   -0.6722    0.9419    1.0525 H   0  0  0  0  0  0  0  0  0  0  0  0
   -0.6088    0.3040   -0.6117 H   0  0  0  0  0  0  0  0  0  0  0  0
    1.3516    1.7516   -0.0473 H   0  0  0  0  0  0  0  0  0  0  0  0
    1.8674    0.1059   -0.4142 H   0  0  0  0  0  0  0  0  0  0  0  0
    1.7861    0.6501    1.2656 H   0  0  0  0  0  0  0  0  0  0  0  0
   -2.8693    1.7199    2.2173 H   0  0  0  0  0  0  0  0  0  0  0  0
   -2.5409    0.1874    1.3579 H   0  0  0  0  0  0  0  0  0  0  0  0
   -4.6126    0.5889    3.5580 H   0  0  0  0  0  0  0  0  0  0  0  0
   -4.2046   -0.9668    2.8197 H   0  0  0  0  0  0  0  0  0  0  0  0
   -4.9170    0.3237    1.8433 H   0  0  0  0  0  0  0  0  0  0  0  0
   -8.0050   10.0115    6.3610 H   0  0  0  0  0  0  0  0  0  0  0  0
   -9.3704    9.9456    5.2200 H   0  0  0  0  0  0  0  0  0  0  0  0
  -10.2171    9.9552    7.5235 H   0  0  0  0  0  0  0  0  0  0  0  0
  -10.5329    8.3612    6.8279 H   0  0  0  0  0  0  0  0  0  0  0  0
   -9.1905    8.5949    7.9609 H   0  0  0  0  0  0  0  0  0  0  0  0
   -8.2722    5.6500    1.9130 H   0  0  0  0  0  0  0  0  0  0  0  0
   -6.7964    4.8937    2.5631 H   0  0  0  0  0  0  0  0  0  0  0  0
   -8.1317    3.4746    4.0562 H   0  0  0  0  0  0  0  0  0  0  0  0
   -8.6696    3.2602    2.3894 H   0  0  0  0  0  0  0  0  0  0  0  0
   -9.6293    4.2406    3.5045 H   0  0  0  0  0  0  0  0  0  0  0  0
   -5.9970    8.0465    9.5631 H   0  0  0  0  0  0  0  0  0  0  0  0
   -1.3534    6.1334   13.3176 H   0  0  0  0  0  0  0  0  0  0  0  0
   -0.9705    7.5273   15.3403 H   0  0  0  0  0  0  0  0  0  0  0  0
   -1.9605    9.0485   17.0149 H   0  0  0  0  0  0  0  0  0  0  0  0
   -1.7080   10.4269   15.9486 H   0  0  0  0  0  0  0  0  0  0  0  0
   -3.3217   10.0945   16.5720 H   0  0  0  0  0  0  0  0  0  0  0  0
   -4.4295    9.8672   14.4524 H   0  0  0  0  0  0  0  0  0  0  0  0
  1  2  2  0  0  0  0
  2  3  1  0  0  0  0
  3  4  2  0  0  0  0
  3  5  1  0  0  0  0
  5  6  2  0  0  0  0
  6  7  1  0  0  0  0
  7  8  2  0  0  0  0
  8  9  1  0  0  0  0
  8 10  1  0  0  0  0
 10 11  2  0  0  0  0
 11 12  1  0  0  0  0
 12 13  2  0  0  0  0
 13 14  1  0  0  0  0
 14 15  3  0  0  0  0
 13 16  1  0  0  0  0
 16 17  3  0  0  0  0
  1 18  1  0  0  0  0
 18 19  2  0  0  0  0
 19 20  1  0  0  0  0
 20 21  2  0  0  0  0
 21 22  1  0  0  0  0
 22 23  2  0  0  0  0
 23 24  1  0  0  0  0
 24 25  2  0  0  0  0
 25 26  1  0  0  0  0
 26 27  1  0  0  0  0
 27 28  1  0  0  0  0
 28 29  1  0  0  0  0
 26 30  2  0  0  0  0
 21 31  1  0  0  0  0
 31 32  2  0  0  0  0
 32 33  1  0  0  0  0
 33 34  1  0  0  0  0
 34 35  2  0  0  0  0
 35 36  1  0  0  0  0
 36 37  2  0  0  0  0
 37 38  1  0  0  0  0
 38 39  1  0  0  0  0
 39 40  1  0  0  0  0
 40 41  1  0  0  0  0
 38 42  2  0  0  0  0
 33 43  2  0  0  0  0
 43 44  1  0  0  0  0
 32 45  1  0  0  0  0
 45 46  2  0  0  0  0
 46 47  1  0  0  0  0
 46 48  1  0  0  0  0
 48 49  2  0  0  0  0
 49 50  1  0  0  0  0
 50 51  2  0  0  0  0
 51 52  1  0  0  0  0
 52 53  2  0  0  0  0
 53 54  1  0  0  0  0
 54 55  1  0  0  0  0
 55 56  1  0  0  0  0
 54 57  2  0  0  0  0
 49 58  1  0  0  0  0
 58 59  1  0  0  0  0
 59 60  1  0  0  0  0
 60 61  1  0  0  0  0
 61 62  1  0  0  0  0
 62 63  1  0  0  0  0
 63 64  2  0  0  0  0
 64 65  1  0  0  0  0
 65 66  1  0  0  0  0
 63 67  1  0  0  0  0
 67 68  1  0  0  0  0
 68 69  1  0  0  0  0
 69 70  1  0  0  0  0
 70 71  1  0  0  0  0
 71 72  1  0  0  0  0
 72 73  2  0  0  0  0
 73 74  1  0  0  0  0
 74 75  2  0  0  0  0
 75 76  1  0  0  0  0
 76 77  1  0  0  0  0
 77 78  1  0  0  0  0
 76 79  2  0  0  0  0
 71 80  2  0  0  0  0
 80 81  1  0  0  0  0
 81 82  1  0  0  0  0
 82 83  1  0  0  0  0
 83 84  1  0  0  0  0
 84 85  1  0  0  0  0
 85 86  1  0  0  0  0
 86 87  1  0  0  0  0
 87 88  1  0  0  0  0
 88 89  1  0  0  0  0
 89 90  1  0  0  0  0
 87 91  1  0  0  0  0
 91 92  1  0  0  0  0
 84 93  1  0  0  0  0
 93 94  1  0  0  0  0
 80 95  1  0  0  0  0
 95 96  1  0  0  0  0
 96 97  1  0  0  0  0
 97 98  2  0  0  0  0
 98 99  1  0  0  0  0
 99100  2  0  0  0  0
 99101  1  0  0  0  0
101102  2  0  0  0  0
102103  1  0  0  0  0
103104  1  0  0  0  0
102105  1  0  0  0  0
105106  1  0  0  0  0
106107  1  0  0  0  0
107108  1  0  0  0  0
106109  2  0  0  0  0
109110  1  0  0  0  0
110111  2  0  0  0  0
110112  1  0  0  0  0
 97113  1  0  0  0  0
113114  2  0  0  0  0
114115  1  0  0  0  0
115116  2  0  0  0  0
115117  1  0  0  0  0
117118  2  0  0  0  0
118119  1  0  0  0  0
119120  2  0  0  0  0
120121  1  0  0  0  0
120122  1  0  0  0  0
122123  2  0  0  0  0
123124  1  0  0  0  0
124125  2  0  0  0  0
125126  1  0  0  0  0
126127  3  0  0  0  0
125128  1  0  0  0  0
128129  3  0  0  0  0
 12  2  1  0  0  0  0
 44 18  1  0  0  0  0
 90 48  1  0  0  0  0
112 95  2  0  0  0  0
124114  1  0  0  0  0
 11  5  1  0  0  0  0
 43 20  1  0  0  0  0
 57 50  1  0  0  0  0
 89 58  2  0  0  0  0
112 98  1  0  0  0  0
123117  1  0  0  0  0
 30 22  1  0  0  0  0
 47 31  1  0  0  0  0
 88 60  2  0  0  0  0
109101  1  0  0  0  0
 42 34  1  0  0  0  0
 86 61  2  0  0  0  0
 66 62  2  0  0  0  0
 85 67  2  0  0  0  0
 83 68  2  0  0  0  0
 82 70  2  0  0  0  0
 79 72  1  0  0  0  0
  1130  1  0  0  0  0
  6131  1  0  0  0  0
  7132  1  0  0  0  0
  9133  1  0  0  0  0
  9134  1  0  0  0  0
  9135  1  0  0  0  0
 10136  1  0  0  0  0
 19137  1  0  0  0  0
 23138  1  0  0  0  0
 24139  1  0  0  0  0
 25140  1  0  0  0  0
 28141  1  0  0  0  0
 28142  1  0  0  0  0
 29143  1  0  0  0  0
 29144  1  0  0  0  0
 29145  1  0  0  0  0
 30146  1  0  0  0  0
 35147  1  0  0  0  0
 36148  1  0  0  0  0
 37149  1  0  0  0  0
 40150  1  0  0  0  0
 40151  1  0  0  0  0
 41152  1  0  0  0  0
 41153  1  0  0  0  0
 41154  1  0  0  0  0
 42155  1  0  0  0  0
 45156  1  0  0  0  0
 51157  1  0  0  0  0
 52158  1  0  0  0  0
 53159  1  0  0  0  0
 55160  1  0  0  0  0
 55161  1  0  0  0  0
 56162  1  0  0  0  0
 56163  1  0  0  0  0
 56164  1  0  0  0  0
 57165  1  0  0  0  0
 73166  1  0  0  0  0
 74167  1  0  0  0  0
 75168  1  0  0  0  0
 77169  1  0  0  0  0
 77170  1  0  0  0  0
 78171  1  0  0  0  0
 78172  1  0  0  0  0
 78173  1  0  0  0  0
 79174  1  0  0  0  0
 91175  1  0  0  0  0
 91176  1  0  0  0  0
 92177  1  0  0  0  0
 92178  1  0  0  0  0
 92179  1  0  0  0  0
 93180  1  0  0  0  0
 93181  1  0  0  0  0
 94182  1  0  0  0  0
 94183  1  0  0  0  0
 94184  1  0  0  0  0
103185  1  0  0  0  0
103186  1  0  0  0  0
104187  1  0  0  0  0
104188  1  0  0  0  0
104189  1  0  0  0  0
107190  1  0  0  0  0
107191  1  0  0  0  0
108192  1  0  0  0  0
108193  1  0  0  0  0
108194  1  0  0  0  0
113195  1  0  0  0  0
118196  1  0  0  0  0
119197  1  0  0  0  0
121198  1  0  0  0  0
121199  1  0  0  0  0
121200  1  0  0  0  0
122201  1  0  0  0  0
M  END
