134

C          5.71410       -7.21330        4.91770
C          6.71160       -7.89730        4.31440
C          7.53140       -8.85580        5.12650
O          7.26990       -9.26410        6.23220
C          8.72420       -9.10430        4.30750
C          9.89690       -9.77730        4.43040
S         10.85910       -9.59410        3.01190
C          9.67130       -8.61010        2.23990
C          8.58980       -8.43170        3.04720
C          7.29290       -7.78510        2.98300
C          6.70370       -7.34740        1.83050
C          5.35360       -6.97150        1.69090
N          4.25020       -6.72690        1.49100
C          7.41980       -7.31600        0.61540
N          8.00240       -7.26680       -0.37170
C          5.00090       -6.05770        4.42080
C          3.62060       -5.99360        4.61160
F          3.01220       -6.96770        5.30690
C          2.86620       -4.99780        4.02710
F          1.53530       -5.01650        4.19990
C          3.45710       -4.00300        3.24380
C          4.87210       -3.98310        3.14340
O          5.39850       -2.98410        2.38630
C          6.52280       -2.24090        2.84050
C          6.20260       -1.44940        4.10330
C          5.63080       -4.99650        3.73730
O          7.00130       -4.98490        3.61380
C          7.74740       -4.85360        4.82400
C          9.21720       -5.05020        4.49570
C          2.65660       -3.01310        2.56580
S          1.12910       -2.47460        3.21010
C          0.91610       -1.39260        1.88360
C         -0.19760       -0.52040        1.66840
C         -0.06940        0.38390        0.59150
O          1.05270        0.47790       -0.15940
C          1.93710       -0.64680       -0.27310
C          3.31570       -0.05020       -0.59610
C          3.91350        0.69990        0.58910
C          1.42090       -1.56860       -1.40480
C          1.31410       -0.87170       -2.75540
C          1.96560       -1.45840        0.99300
C          2.94490       -2.37910        1.37770
C         -1.10640        1.25660        0.31820
C         -2.26360        1.24760        1.09250
C         -3.41020        2.05560        0.82140
C         -4.48000        2.11120        1.69220
C         -4.39700        1.39190        3.01650
O         -3.50040        0.27840        2.94210
C         -2.38300        0.36080        2.18360
C         -1.34940       -0.52040        2.45000
C         -5.78590        0.83580        3.40660
C         -5.75130       -0.47190        4.19040
C         -3.83970        2.41660        4.03640
C         -3.64830        1.86610        5.44300
C         -5.51430        2.92380        1.22420
C         -5.25050        3.47770       -0.01540
S         -3.68220        2.99240       -0.60270
C         -6.08170        4.31450       -0.80180
C         -7.32700        4.82530       -0.45750
C         -7.90450        5.59370       -1.45450
C         -9.26470        6.20070       -1.31590
C        -10.33070        5.30260       -1.95000
C         -7.10230        5.67920       -2.60980
S         -5.60970        4.79070       -2.39560
C         -7.48580        6.37370       -3.76060
C         -6.85500        6.52150       -4.97400
C         -5.54910        5.96570       -5.33880
O         -4.79660        5.31120       -4.63630
C         -5.31010        6.35880       -6.73690
C         -4.23950        6.07610       -7.53310
C         -4.22610        6.55570       -8.86260
C         -3.15070        6.29610       -9.73390
C         -3.16130        6.76820      -11.01850
C         -4.24830        7.52020      -11.48690
C         -5.30850        7.79070      -10.66480
C         -5.32980        7.32070       -9.33630
C         -6.42430        7.59930       -8.48380
C         -6.41680        7.12600       -7.19920
C         -7.38380        7.24630       -6.11030
C         -8.57190        7.93260       -6.18620
C         -9.01620        8.61680       -7.33570
N         -9.44490        9.18760       -8.23560
C         -9.51840        8.06650       -5.15150
N        -10.33920        8.22770       -4.36240
H          5.41330       -7.58260        5.89410
H         10.25380      -10.36580        5.25160
H          9.85850       -8.22820        1.25640
H          6.72920       -1.55950        2.01110
H          7.39140       -2.88700        2.98490
H          5.36380       -0.78100        3.92220
H          5.93430       -2.11870        4.91940
H          7.06620       -0.86000        4.39880
H          7.58420       -3.85250        5.24650
H          7.41580       -5.59340        5.56250
H          9.38640       -6.04750        4.09920
H          9.53550       -4.32650        3.75000
H          9.81190       -4.92040        5.39520
H          3.98400       -0.85170       -0.91130
H          3.18630        0.64410       -1.42590
H          4.83930        1.18780        0.29360
H          3.21770        1.45990        0.93670
H          4.12730        0.02050        1.41090
H          0.43060       -1.92450       -1.10620
H          2.08070       -2.43480       -1.47390
H          0.77010        0.06380       -2.65120
H          2.29710       -0.66170       -3.16750
H          0.77920       -1.50710       -3.45670
H          3.82020       -2.60800        0.80200
H         -1.02130        1.94700       -0.50640
H         -1.44090       -1.21940        3.26670
H         -6.31170        1.59990        3.98110
H         -6.35020        0.65930        2.48780
H         -5.27060       -1.24910        3.60400
H         -5.20910       -0.36700        5.12360
H         -6.76980       -0.78300        4.41220
H         -4.50970        3.27840        4.05530
H         -2.87240        2.75540        3.65320
H         -3.07500        0.94330        5.40890
H         -3.10500        2.58840        6.04830
H         -4.60420        1.67320        5.92170
H         -6.42810        3.10420        1.75940
H         -7.79490        4.64540        0.49420
H         -9.30370        7.18740       -1.77990
H         -9.48620        6.32070       -0.25380
H        -10.14090        5.17120       -3.01250
H        -11.31240        5.75260       -1.83080
H        -10.33280        4.32320       -1.47670
H         -8.44820        6.85840       -3.67010
H         -3.41340        5.49250       -7.15460
H         -2.31660        5.71570       -9.36710
H         -2.33250        6.56440      -11.68020
H         -4.24210        7.88470      -12.50340
H         -6.14800        8.36960      -11.02130
H         -7.24280        8.18160       -8.87570
