150

C         -0.81170       -7.77950      -11.55300
C         -0.36000       -7.05990      -12.62730
C          0.10280       -5.65570      -12.59460
O          0.12200       -4.90400      -11.63940
C          0.53810       -5.35890      -13.96450
C          1.06880       -4.30770      -14.63820
S          1.33310       -4.71560      -16.29330
C          0.72280       -6.31440      -16.07580
C          0.33680       -6.51460      -14.78610
C         -0.23110       -7.57760      -13.97950
C         -0.56780       -8.81580      -14.46280
C         -1.13630       -9.87300      -13.72730
N         -1.60280      -10.77570      -13.19110
C         -0.36450       -9.14790      -15.81830
N         -0.20400       -9.43450      -16.91790
C         -0.95690       -7.40490      -10.20820
C         -1.39450       -8.29540       -9.22060
N         -1.47080       -7.83130       -7.98910
C         -1.11200       -6.56310       -7.93030
S         -0.64020       -5.86270       -9.45990
C         -1.08720       -5.83630       -6.71930
C         -1.35310       -6.34030       -5.45870
C         -1.20580       -5.36780       -4.47730
S         -1.36610       -5.37650       -2.74270
C         -0.93270       -3.70190       -2.71370
C         -0.71990       -2.70550       -1.73270
C         -0.32340       -1.52860       -2.36490
C         -0.29140       -1.70230       -3.86340
C         -0.69010       -3.15370       -3.97250
C         -0.83320       -4.10370       -4.97700
S         -0.66240       -4.13500       -6.69210
C         -1.29750       -0.73700       -4.46580
C         -0.93380        0.59170       -4.64480
C         -1.84240        1.50360       -5.14520
C         -3.13480        1.11490       -5.47550
C         -4.10570        2.09620       -6.06550
C         -3.99220        2.10630       -7.59130
C         -3.49190       -0.21350       -5.29030
C         -2.58810       -1.13070       -4.78530
C          1.07980       -1.53610       -4.49020
C          2.23940       -1.53980       -3.73050
C          3.47490       -1.43560       -4.34390
C          3.58170       -1.34180       -5.72440
C          4.92100       -1.19020       -6.38550
C          5.26390        0.29030       -6.56350
C          2.41530       -1.34690       -6.47970
C          1.17880       -1.44280       -5.87290
C         -0.09140       -0.51050       -1.44700
S          0.43850        1.14070       -1.55490
C          0.38200        1.25050        0.17210
C          0.63040        2.23750        1.15450
C          0.36280        1.69950        2.41140
C         -0.06250        0.25570        2.30300
C         -1.47090       -0.01620        2.79870
C         -1.87750       -1.33080        2.98970
C         -3.16060       -1.61030        3.41710
C         -4.06910       -0.58820        3.66300
C         -5.44330       -0.89030        4.18630
C         -5.43420       -0.92000        5.71620
C         -3.65890        0.72210        3.46030
C         -2.37730        1.00820        3.02600
C          0.95080       -0.59560        3.04930
C          0.87580       -0.66800        4.43470
C          1.80090       -1.40500        5.14750
C          2.82330       -2.08610        4.49820
C          3.79450       -2.93160        5.26980
C          3.26090       -4.35860        5.41330
C          2.89560       -2.00410        3.11470
C          1.97580       -1.26230        2.39560
C         -0.02510        0.07790        0.80500
C         -0.30150       -0.92750       -0.11520
S         -0.80730       -2.58630       -0.00700
C          0.57390        2.63520        3.41850
C          0.99550        3.88130        2.92040
S          1.14830        3.88840        1.18580
C          1.17030        4.85430        3.90070
C          0.88000        4.37040        5.16170
S          0.39900        2.68080        5.13240
C          0.90250        5.09110        6.38140
C          1.25850        6.42620        6.57630
N          1.14230        6.88190        7.80890
C          0.70700        5.99560        8.65140
S          0.42470        4.40690        7.89360
C          0.46780        6.13420       10.03470
C          0.30840        7.29750       10.72780
C          0.06810        8.64810       10.13660
O          0.07160        8.97310        8.97360
C         -0.28220        9.50960       11.28330
C         -0.63170       10.84680       11.28130
C         -0.93930       11.44860       12.49000
C         -0.91050       10.73040       13.68530
C         -1.27460       11.40590       14.96920
C         -0.56040        9.38220       13.67810
C         -0.24160        8.76990       12.47670
C          0.16140        7.40080       12.16810
C          0.42340        6.42130       13.09040
C          0.89060        5.12280       12.79610
N          1.28330        4.05400       12.64540
C          0.28710        6.58930       14.48460
N          0.19240        6.65500       15.62690
H         -1.09670       -8.80910      -11.73650
H          1.32000       -3.33070      -14.27690
H          0.69550       -6.98510      -16.91090
H         -1.66110       -9.31960       -9.41740
H         -1.62740       -7.36520       -5.29540
H          0.06830        0.90980       -4.39550
H         -1.54400        2.53350       -5.27790
H         -3.89930        3.09750       -5.68250
H         -5.12480        1.82480       -5.78260
H         -4.20560        1.11830       -7.99300
H         -4.69580        2.81580       -8.02060
H         -2.98600        2.38770       -7.89360
H         -4.49260       -0.53680       -5.53910
H         -2.89410       -2.15660       -4.64190
H          2.18350       -1.62530       -2.65520
H          4.36980       -1.43470       -3.73790
H          4.90690       -1.67610       -7.36310
H          5.69150       -1.66760       -5.77680
H          6.23460        0.40120       -7.04110
H          4.51440        0.78040       -7.18080
H          5.29200        0.79070       -5.59820
H          2.47510       -1.28060       -7.55620
H          0.28130       -1.44220       -6.47410
H         -1.18120       -2.13720        2.80990
H         -3.46080       -2.63810        3.56180
H         -5.77900       -1.85830        3.80940
H         -6.14600       -0.12740        3.84540
H         -6.42930       -1.13450        6.09860
H         -5.10930        0.04000        6.11130
H         -4.75070       -1.68600        6.07550
H         -4.35060        1.53230        3.64150
H         -2.08690        2.03640        2.86740
H          0.08380       -0.14870        4.95490
H          1.72880       -1.45000        6.22450
H          3.95040       -2.50440        6.26210
H          4.75590       -2.95750        4.75290
H          3.96380       -4.97310        5.97070
H          2.30890       -4.35500        5.93920
H          3.10850       -4.80610        4.43360
H          3.68440       -2.52370        2.58970
H          2.06120       -1.20760        1.32040
H          1.48070        5.86350        3.70620
H          1.61290        7.08430        5.80470
H          0.37940        5.19580       10.56770
H         -0.65600       11.39660       10.35310
H         -1.20970       12.49430       12.51430
H         -0.80080       12.38310       15.03750
H         -0.97650       10.80580       15.82460
H         -2.35340       11.55650       15.01540
H         -0.54810        8.83430       14.60650
