
  xtb     02032217493D
 energy: -229.539713740347 gnorm: 0.000890625472 xtb: 6.4.1 (unknown)
134145  0     0  0            999 V2000
    5.7141   -7.2133    4.9177 C   0  0  0  0  0  0  0  0  0  0  0  0
    6.7116   -7.8973    4.3144 C   0  0  0  0  0  0  0  0  0  0  0  0
    7.5314   -8.8558    5.1265 C   0  0  0  0  0  0  0  0  0  0  0  0
    7.2699   -9.2641    6.2322 O   0  0  0  0  0  0  0  0  0  0  0  0
    8.7242   -9.1043    4.3075 C   0  0  0  0  0  0  0  0  0  0  0  0
    9.8969   -9.7773    4.4304 C   0  0  0  0  0  0  0  0  0  0  0  0
   10.8591   -9.5941    3.0119 S   0  0  0  0  0  0  0  0  0  0  0  0
    9.6713   -8.6101    2.2399 C   0  0  0  0  0  0  0  0  0  0  0  0
    8.5898   -8.4317    3.0472 C   0  0  0  0  0  0  0  0  0  0  0  0
    7.2929   -7.7851    2.9830 C   0  0  0  0  0  0  0  0  0  0  0  0
    6.7037   -7.3474    1.8305 C   0  0  0  0  0  0  0  0  0  0  0  0
    5.3536   -6.9715    1.6909 C   0  0  0  0  0  0  0  0  0  0  0  0
    4.2502   -6.7269    1.4910 N   0  0  0  0  0  0  0  0  0  0  0  0
    7.4198   -7.3160    0.6154 C   0  0  0  0  0  0  0  0  0  0  0  0
    8.0024   -7.2668   -0.3717 N   0  0  0  0  0  0  0  0  0  0  0  0
    5.0009   -6.0577    4.4208 C   0  0  0  0  0  0  0  0  0  0  0  0
    3.6206   -5.9936    4.6116 C   0  0  0  0  0  0  0  0  0  0  0  0
    3.0122   -6.9677    5.3069 F   0  0  0  0  0  0  0  0  0  0  0  0
    2.8662   -4.9978    4.0271 C   0  0  0  0  0  0  0  0  0  0  0  0
    1.5353   -5.0165    4.1999 F   0  0  0  0  0  0  0  0  0  0  0  0
    3.4571   -4.0030    3.2438 C   0  0  0  0  0  0  0  0  0  0  0  0
    4.8721   -3.9831    3.1434 C   0  0  0  0  0  0  0  0  0  0  0  0
    5.3985   -2.9841    2.3863 O   0  0  0  0  0  0  0  0  0  0  0  0
    6.5228   -2.2409    2.8405 C   0  0  0  0  0  0  0  0  0  0  0  0
    6.2026   -1.4494    4.1033 C   0  0  0  0  0  0  0  0  0  0  0  0
    5.6308   -4.9965    3.7373 C   0  0  0  0  0  0  0  0  0  0  0  0
    7.0013   -4.9849    3.6138 O   0  0  0  0  0  0  0  0  0  0  0  0
    7.7474   -4.8536    4.8240 C   0  0  0  0  0  0  0  0  0  0  0  0
    9.2172   -5.0502    4.4957 C   0  0  0  0  0  0  0  0  0  0  0  0
    2.6566   -3.0131    2.5658 C   0  0  0  0  0  0  0  0  0  0  0  0
    1.1291   -2.4746    3.2101 S   0  0  0  0  0  0  0  0  0  0  0  0
    0.9161   -1.3926    1.8836 C   0  0  0  0  0  0  0  0  0  0  0  0
   -0.1976   -0.5204    1.6684 C   0  0  0  0  0  0  0  0  0  0  0  0
   -0.0694    0.3839    0.5915 C   0  0  0  0  0  0  0  0  0  0  0  0
    1.0527    0.4779   -0.1594 O   0  0  0  0  0  0  0  0  0  0  0  0
    1.9371   -0.6468   -0.2731 C   0  0  0  0  0  0  0  0  0  0  0  0
    3.3157   -0.0502   -0.5961 C   0  0  0  0  0  0  0  0  0  0  0  0
    3.9135    0.6999    0.5891 C   0  0  0  0  0  0  0  0  0  0  0  0
    1.4209   -1.5686   -1.4048 C   0  0  0  0  0  0  0  0  0  0  0  0
    1.3141   -0.8717   -2.7554 C   0  0  0  0  0  0  0  0  0  0  0  0
    1.9656   -1.4584    0.9930 C   0  0  0  0  0  0  0  0  0  0  0  0
    2.9449   -2.3791    1.3777 C   0  0  0  0  0  0  0  0  0  0  0  0
   -1.1064    1.2566    0.3182 C   0  0  0  0  0  0  0  0  0  0  0  0
   -2.2636    1.2476    1.0925 C   0  0  0  0  0  0  0  0  0  0  0  0
   -3.4102    2.0556    0.8214 C   0  0  0  0  0  0  0  0  0  0  0  0
   -4.4800    2.1112    1.6922 C   0  0  0  0  0  0  0  0  0  0  0  0
   -4.3970    1.3919    3.0165 C   0  0  0  0  0  0  0  0  0  0  0  0
   -3.5004    0.2784    2.9421 O   0  0  0  0  0  0  0  0  0  0  0  0
   -2.3830    0.3608    2.1836 C   0  0  0  0  0  0  0  0  0  0  0  0
   -1.3494   -0.5204    2.4500 C   0  0  0  0  0  0  0  0  0  0  0  0
   -5.7859    0.8358    3.4066 C   0  0  0  0  0  0  0  0  0  0  0  0
   -5.7513   -0.4719    4.1904 C   0  0  0  0  0  0  0  0  0  0  0  0
   -3.8397    2.4166    4.0364 C   0  0  0  0  0  0  0  0  0  0  0  0
   -3.6483    1.8661    5.4430 C   0  0  0  0  0  0  0  0  0  0  0  0
   -5.5143    2.9238    1.2242 C   0  0  0  0  0  0  0  0  0  0  0  0
   -5.2505    3.4777   -0.0154 C   0  0  0  0  0  0  0  0  0  0  0  0
   -3.6822    2.9924   -0.6027 S   0  0  0  0  0  0  0  0  0  0  0  0
   -6.0817    4.3145   -0.8018 C   0  0  0  0  0  0  0  0  0  0  0  0
   -7.3270    4.8253   -0.4575 C   0  0  0  0  0  0  0  0  0  0  0  0
   -7.9045    5.5937   -1.4545 C   0  0  0  0  0  0  0  0  0  0  0  0
   -9.2647    6.2007   -1.3159 C   0  0  0  0  0  0  0  0  0  0  0  0
  -10.3307    5.3026   -1.9500 C   0  0  0  0  0  0  0  0  0  0  0  0
   -7.1023    5.6792   -2.6098 C   0  0  0  0  0  0  0  0  0  0  0  0
   -5.6097    4.7907   -2.3956 S   0  0  0  0  0  0  0  0  0  0  0  0
   -7.4858    6.3737   -3.7606 C   0  0  0  0  0  0  0  0  0  0  0  0
   -6.8550    6.5215   -4.9740 C   0  0  0  0  0  0  0  0  0  0  0  0
   -5.5491    5.9657   -5.3388 C   0  0  0  0  0  0  0  0  0  0  0  0
   -4.7966    5.3112   -4.6363 O   0  0  0  0  0  0  0  0  0  0  0  0
   -5.3101    6.3588   -6.7369 C   0  0  0  0  0  0  0  0  0  0  0  0
   -4.2395    6.0761   -7.5331 C   0  0  0  0  0  0  0  0  0  0  0  0
   -4.2261    6.5557   -8.8626 C   0  0  0  0  0  0  0  0  0  0  0  0
   -3.1507    6.2961   -9.7339 C   0  0  0  0  0  0  0  0  0  0  0  0
   -3.1613    6.7682  -11.0185 C   0  0  0  0  0  0  0  0  0  0  0  0
   -4.2483    7.5202  -11.4869 C   0  0  0  0  0  0  0  0  0  0  0  0
   -5.3085    7.7907  -10.6648 C   0  0  0  0  0  0  0  0  0  0  0  0
   -5.3298    7.3207   -9.3363 C   0  0  0  0  0  0  0  0  0  0  0  0
   -6.4243    7.5993   -8.4838 C   0  0  0  0  0  0  0  0  0  0  0  0
   -6.4168    7.1260   -7.1992 C   0  0  0  0  0  0  0  0  0  0  0  0
   -7.3838    7.2463   -6.1103 C   0  0  0  0  0  0  0  0  0  0  0  0
   -8.5719    7.9326   -6.1862 C   0  0  0  0  0  0  0  0  0  0  0  0
   -9.0162    8.6168   -7.3357 C   0  0  0  0  0  0  0  0  0  0  0  0
   -9.4449    9.1876   -8.2356 N   0  0  0  0  0  0  0  0  0  0  0  0
   -9.5184    8.0665   -5.1515 C   0  0  0  0  0  0  0  0  0  0  0  0
  -10.3392    8.2277   -4.3624 N   0  0  0  0  0  0  0  0  0  0  0  0
    5.4133   -7.5826    5.8941 H   0  0  0  0  0  0  0  0  0  0  0  0
   10.2538  -10.3658    5.2516 H   0  0  0  0  0  0  0  0  0  0  0  0
    9.8585   -8.2282    1.2564 H   0  0  0  0  0  0  0  0  0  0  0  0
    6.7292   -1.5595    2.0111 H   0  0  0  0  0  0  0  0  0  0  0  0
    7.3914   -2.8870    2.9849 H   0  0  0  0  0  0  0  0  0  0  0  0
    5.3638   -0.7810    3.9222 H   0  0  0  0  0  0  0  0  0  0  0  0
    5.9343   -2.1187    4.9194 H   0  0  0  0  0  0  0  0  0  0  0  0
    7.0662   -0.8600    4.3988 H   0  0  0  0  0  0  0  0  0  0  0  0
    7.5842   -3.8525    5.2465 H   0  0  0  0  0  0  0  0  0  0  0  0
    7.4158   -5.5934    5.5625 H   0  0  0  0  0  0  0  0  0  0  0  0
    9.3864   -6.0475    4.0992 H   0  0  0  0  0  0  0  0  0  0  0  0
    9.5355   -4.3265    3.7500 H   0  0  0  0  0  0  0  0  0  0  0  0
    9.8119   -4.9204    5.3952 H   0  0  0  0  0  0  0  0  0  0  0  0
    3.9840   -0.8517   -0.9113 H   0  0  0  0  0  0  0  0  0  0  0  0
    3.1863    0.6441   -1.4259 H   0  0  0  0  0  0  0  0  0  0  0  0
    4.8393    1.1878    0.2936 H   0  0  0  0  0  0  0  0  0  0  0  0
    3.2177    1.4599    0.9367 H   0  0  0  0  0  0  0  0  0  0  0  0
    4.1273    0.0205    1.4109 H   0  0  0  0  0  0  0  0  0  0  0  0
    0.4306   -1.9245   -1.1062 H   0  0  0  0  0  0  0  0  0  0  0  0
    2.0807   -2.4348   -1.4739 H   0  0  0  0  0  0  0  0  0  0  0  0
    0.7701    0.0638   -2.6512 H   0  0  0  0  0  0  0  0  0  0  0  0
    2.2971   -0.6617   -3.1675 H   0  0  0  0  0  0  0  0  0  0  0  0
    0.7792   -1.5071   -3.4567 H   0  0  0  0  0  0  0  0  0  0  0  0
    3.8202   -2.6080    0.8020 H   0  0  0  0  0  0  0  0  0  0  0  0
   -1.0213    1.9470   -0.5064 H   0  0  0  0  0  0  0  0  0  0  0  0
   -1.4409   -1.2194    3.2667 H   0  0  0  0  0  0  0  0  0  0  0  0
   -6.3117    1.5999    3.9811 H   0  0  0  0  0  0  0  0  0  0  0  0
   -6.3502    0.6593    2.4878 H   0  0  0  0  0  0  0  0  0  0  0  0
   -5.2706   -1.2491    3.6040 H   0  0  0  0  0  0  0  0  0  0  0  0
   -5.2091   -0.3670    5.1236 H   0  0  0  0  0  0  0  0  0  0  0  0
   -6.7698   -0.7830    4.4122 H   0  0  0  0  0  0  0  0  0  0  0  0
   -4.5097    3.2784    4.0553 H   0  0  0  0  0  0  0  0  0  0  0  0
   -2.8724    2.7554    3.6532 H   0  0  0  0  0  0  0  0  0  0  0  0
   -3.0750    0.9433    5.4089 H   0  0  0  0  0  0  0  0  0  0  0  0
   -3.1050    2.5884    6.0483 H   0  0  0  0  0  0  0  0  0  0  0  0
   -4.6042    1.6732    5.9217 H   0  0  0  0  0  0  0  0  0  0  0  0
   -6.4281    3.1042    1.7594 H   0  0  0  0  0  0  0  0  0  0  0  0
   -7.7949    4.6454    0.4942 H   0  0  0  0  0  0  0  0  0  0  0  0
   -9.3037    7.1874   -1.7799 H   0  0  0  0  0  0  0  0  0  0  0  0
   -9.4862    6.3207   -0.2538 H   0  0  0  0  0  0  0  0  0  0  0  0
  -10.1409    5.1712   -3.0125 H   0  0  0  0  0  0  0  0  0  0  0  0
  -11.3124    5.7526   -1.8308 H   0  0  0  0  0  0  0  0  0  0  0  0
  -10.3328    4.3232   -1.4767 H   0  0  0  0  0  0  0  0  0  0  0  0
   -8.4482    6.8584   -3.6701 H   0  0  0  0  0  0  0  0  0  0  0  0
   -3.4134    5.4925   -7.1546 H   0  0  0  0  0  0  0  0  0  0  0  0
   -2.3166    5.7157   -9.3671 H   0  0  0  0  0  0  0  0  0  0  0  0
   -2.3325    6.5644  -11.6802 H   0  0  0  0  0  0  0  0  0  0  0  0
   -4.2421    7.8847  -12.5034 H   0  0  0  0  0  0  0  0  0  0  0  0
   -6.1480    8.3696  -11.0213 H   0  0  0  0  0  0  0  0  0  0  0  0
   -7.2428    8.1816   -8.8757 H   0  0  0  0  0  0  0  0  0  0  0  0
  1  2  2  0  0  0  0
  2  3  1  0  0  0  0
  3  4  2  0  0  0  0
  3  5  1  0  0  0  0
  5  6  2  0  0  0  0
  6  7  1  0  0  0  0
  7  8  1  0  0  0  0
  8  9  2  0  0  0  0
  9 10  1  0  0  0  0
 10 11  2  0  0  0  0
 11 12  1  0  0  0  0
 12 13  3  0  0  0  0
 11 14  1  0  0  0  0
 14 15  3  0  0  0  0
  1 16  1  0  0  0  0
 16 17  2  0  0  0  0
 17 18  1  0  0  0  0
 17 19  1  0  0  0  0
 19 20  1  0  0  0  0
 19 21  2  0  0  0  0
 21 22  1  0  0  0  0
 22 23  1  0  0  0  0
 23 24  1  0  0  0  0
 24 25  1  0  0  0  0
 22 26  2  0  0  0  0
 26 27  1  0  0  0  0
 27 28  1  0  0  0  0
 28 29  1  0  0  0  0
 21 30  1  0  0  0  0
 30 31  1  0  0  0  0
 31 32  1  0  0  0  0
 32 33  1  0  0  0  0
 33 34  2  0  0  0  0
 34 35  1  0  0  0  0
 35 36  1  0  0  0  0
 36 37  1  0  0  0  0
 37 38  1  0  0  0  0
 36 39  1  0  0  0  0
 39 40  1  0  0  0  0
 36 41  1  0  0  0  0
 41 42  1  0  0  0  0
 34 43  1  0  0  0  0
 43 44  2  0  0  0  0
 44 45  1  0  0  0  0
 45 46  2  0  0  0  0
 46 47  1  0  0  0  0
 47 48  1  0  0  0  0
 48 49  1  0  0  0  0
 49 50  2  0  0  0  0
 47 51  1  0  0  0  0
 51 52  1  0  0  0  0
 47 53  1  0  0  0  0
 53 54  1  0  0  0  0
 46 55  1  0  0  0  0
 55 56  2  0  0  0  0
 56 57  1  0  0  0  0
 56 58  1  0  0  0  0
 58 59  2  0  0  0  0
 59 60  1  0  0  0  0
 60 61  1  0  0  0  0
 61 62  1  0  0  0  0
 60 63  2  0  0  0  0
 63 64  1  0  0  0  0
 63 65  1  0  0  0  0
 65 66  2  0  0  0  0
 66 67  1  0  0  0  0
 67 68  2  0  0  0  0
 67 69  1  0  0  0  0
 69 70  2  0  0  0  0
 70 71  1  0  0  0  0
 71 72  2  0  0  0  0
 72 73  1  0  0  0  0
 73 74  2  0  0  0  0
 74 75  1  0  0  0  0
 75 76  2  0  0  0  0
 76 77  1  0  0  0  0
 77 78  2  0  0  0  0
 78 79  1  0  0  0  0
 79 80  2  0  0  0  0
 80 81  1  0  0  0  0
 81 82  3  0  0  0  0
 80 83  1  0  0  0  0
 83 84  3  0  0  0  0
 10  2  1  0  0  0  0
 26 16  1  0  0  0  0
 42 30  2  0  0  0  0
 49 44  1  0  0  0  0
 64 58  1  0  0  0  0
 79 66  1  0  0  0  0
  9  5  1  0  0  0  0
 41 32  2  0  0  0  0
 57 45  1  0  0  0  0
 78 69  1  0  0  0  0
 50 33  1  0  0  0  0
 76 71  1  0  0  0  0
  1 85  1  0  0  0  0
  6 86  1  0  0  0  0
  8 87  1  0  0  0  0
 24 88  1  0  0  0  0
 24 89  1  0  0  0  0
 25 90  1  0  0  0  0
 25 91  1  0  0  0  0
 25 92  1  0  0  0  0
 28 93  1  0  0  0  0
 28 94  1  0  0  0  0
 29 95  1  0  0  0  0
 29 96  1  0  0  0  0
 29 97  1  0  0  0  0
 37 98  1  0  0  0  0
 37 99  1  0  0  0  0
 38100  1  0  0  0  0
 38101  1  0  0  0  0
 38102  1  0  0  0  0
 39103  1  0  0  0  0
 39104  1  0  0  0  0
 40105  1  0  0  0  0
 40106  1  0  0  0  0
 40107  1  0  0  0  0
 42108  1  0  0  0  0
 43109  1  0  0  0  0
 50110  1  0  0  0  0
 51111  1  0  0  0  0
 51112  1  0  0  0  0
 52113  1  0  0  0  0
 52114  1  0  0  0  0
 52115  1  0  0  0  0
 53116  1  0  0  0  0
 53117  1  0  0  0  0
 54118  1  0  0  0  0
 54119  1  0  0  0  0
 54120  1  0  0  0  0
 55121  1  0  0  0  0
 59122  1  0  0  0  0
 61123  1  0  0  0  0
 61124  1  0  0  0  0
 62125  1  0  0  0  0
 62126  1  0  0  0  0
 62127  1  0  0  0  0
 65128  1  0  0  0  0
 70129  1  0  0  0  0
 72130  1  0  0  0  0
 73131  1  0  0  0  0
 74132  1  0  0  0  0
 75133  1  0  0  0  0
 77134  1  0  0  0  0
M  END
