
  xtb     02032223323D
 energy: -257.991169545057 gnorm: 0.000310488579 xtb: 6.4.1 (unknown)
150167  0     0  0            999 V2000
   -0.8117   -7.7795  -11.5530 C   0  0  0  0  0  0  0  0  0  0  0  0
   -0.3600   -7.0599  -12.6273 C   0  0  0  0  0  0  0  0  0  0  0  0
    0.1028   -5.6557  -12.5946 C   0  0  0  0  0  0  0  0  0  0  0  0
    0.1220   -4.9040  -11.6394 O   0  0  0  0  0  0  0  0  0  0  0  0
    0.5381   -5.3589  -13.9645 C   0  0  0  0  0  0  0  0  0  0  0  0
    1.0688   -4.3077  -14.6382 C   0  0  0  0  0  0  0  0  0  0  0  0
    1.3331   -4.7156  -16.2933 S   0  0  0  0  0  0  0  0  0  0  0  0
    0.7228   -6.3144  -16.0758 C   0  0  0  0  0  0  0  0  0  0  0  0
    0.3368   -6.5146  -14.7861 C   0  0  0  0  0  0  0  0  0  0  0  0
   -0.2311   -7.5776  -13.9795 C   0  0  0  0  0  0  0  0  0  0  0  0
   -0.5678   -8.8158  -14.4628 C   0  0  0  0  0  0  0  0  0  0  0  0
   -1.1363   -9.8730  -13.7273 C   0  0  0  0  0  0  0  0  0  0  0  0
   -1.6028  -10.7757  -13.1911 N   0  0  0  0  0  0  0  0  0  0  0  0
   -0.3645   -9.1479  -15.8183 C   0  0  0  0  0  0  0  0  0  0  0  0
   -0.2040   -9.4345  -16.9179 N   0  0  0  0  0  0  0  0  0  0  0  0
   -0.9569   -7.4049  -10.2082 C   0  0  0  0  0  0  0  0  0  0  0  0
   -1.3945   -8.2954   -9.2206 C   0  0  0  0  0  0  0  0  0  0  0  0
   -1.4708   -7.8313   -7.9891 N   0  0  0  0  0  0  0  0  0  0  0  0
   -1.1120   -6.5631   -7.9303 C   0  0  0  0  0  0  0  0  0  0  0  0
   -0.6402   -5.8627   -9.4599 S   0  0  0  0  0  0  0  0  0  0  0  0
   -1.0872   -5.8363   -6.7193 C   0  0  0  0  0  0  0  0  0  0  0  0
   -1.3531   -6.3403   -5.4587 C   0  0  0  0  0  0  0  0  0  0  0  0
   -1.2058   -5.3678   -4.4773 C   0  0  0  0  0  0  0  0  0  0  0  0
   -1.3661   -5.3765   -2.7427 S   0  0  0  0  0  0  0  0  0  0  0  0
   -0.9327   -3.7019   -2.7137 C   0  0  0  0  0  0  0  0  0  0  0  0
   -0.7199   -2.7055   -1.7327 C   0  0  0  0  0  0  0  0  0  0  0  0
   -0.3234   -1.5286   -2.3649 C   0  0  0  0  0  0  0  0  0  0  0  0
   -0.2914   -1.7023   -3.8634 C   0  0  0  0  0  0  0  0  0  0  0  0
   -0.6901   -3.1537   -3.9725 C   0  0  0  0  0  0  0  0  0  0  0  0
   -0.8332   -4.1037   -4.9770 C   0  0  0  0  0  0  0  0  0  0  0  0
   -0.6624   -4.1350   -6.6921 S   0  0  0  0  0  0  0  0  0  0  0  0
   -1.2975   -0.7370   -4.4658 C   0  0  0  0  0  0  0  0  0  0  0  0
   -0.9338    0.5917   -4.6448 C   0  0  0  0  0  0  0  0  0  0  0  0
   -1.8424    1.5036   -5.1452 C   0  0  0  0  0  0  0  0  0  0  0  0
   -3.1348    1.1149   -5.4755 C   0  0  0  0  0  0  0  0  0  0  0  0
   -4.1057    2.0962   -6.0655 C   0  0  0  0  0  0  0  0  0  0  0  0
   -3.9922    2.1063   -7.5913 C   0  0  0  0  0  0  0  0  0  0  0  0
   -3.4919   -0.2135   -5.2903 C   0  0  0  0  0  0  0  0  0  0  0  0
   -2.5881   -1.1307   -4.7853 C   0  0  0  0  0  0  0  0  0  0  0  0
    1.0798   -1.5361   -4.4902 C   0  0  0  0  0  0  0  0  0  0  0  0
    2.2394   -1.5398   -3.7305 C   0  0  0  0  0  0  0  0  0  0  0  0
    3.4749   -1.4356   -4.3439 C   0  0  0  0  0  0  0  0  0  0  0  0
    3.5817   -1.3418   -5.7244 C   0  0  0  0  0  0  0  0  0  0  0  0
    4.9210   -1.1902   -6.3855 C   0  0  0  0  0  0  0  0  0  0  0  0
    5.2639    0.2903   -6.5635 C   0  0  0  0  0  0  0  0  0  0  0  0
    2.4153   -1.3469   -6.4797 C   0  0  0  0  0  0  0  0  0  0  0  0
    1.1788   -1.4428   -5.8729 C   0  0  0  0  0  0  0  0  0  0  0  0
   -0.0914   -0.5105   -1.4470 C   0  0  0  0  0  0  0  0  0  0  0  0
    0.4385    1.1407   -1.5549 S   0  0  0  0  0  0  0  0  0  0  0  0
    0.3820    1.2505    0.1721 C   0  0  0  0  0  0  0  0  0  0  0  0
    0.6304    2.2375    1.1545 C   0  0  0  0  0  0  0  0  0  0  0  0
    0.3628    1.6995    2.4114 C   0  0  0  0  0  0  0  0  0  0  0  0
   -0.0625    0.2557    2.3030 C   0  0  0  0  0  0  0  0  0  0  0  0
   -1.4709   -0.0162    2.7987 C   0  0  0  0  0  0  0  0  0  0  0  0
   -1.8775   -1.3308    2.9897 C   0  0  0  0  0  0  0  0  0  0  0  0
   -3.1606   -1.6103    3.4171 C   0  0  0  0  0  0  0  0  0  0  0  0
   -4.0691   -0.5882    3.6630 C   0  0  0  0  0  0  0  0  0  0  0  0
   -5.4433   -0.8903    4.1863 C   0  0  0  0  0  0  0  0  0  0  0  0
   -5.4342   -0.9200    5.7162 C   0  0  0  0  0  0  0  0  0  0  0  0
   -3.6589    0.7221    3.4603 C   0  0  0  0  0  0  0  0  0  0  0  0
   -2.3773    1.0082    3.0260 C   0  0  0  0  0  0  0  0  0  0  0  0
    0.9508   -0.5956    3.0493 C   0  0  0  0  0  0  0  0  0  0  0  0
    0.8758   -0.6680    4.4347 C   0  0  0  0  0  0  0  0  0  0  0  0
    1.8009   -1.4050    5.1475 C   0  0  0  0  0  0  0  0  0  0  0  0
    2.8233   -2.0861    4.4982 C   0  0  0  0  0  0  0  0  0  0  0  0
    3.7945   -2.9316    5.2698 C   0  0  0  0  0  0  0  0  0  0  0  0
    3.2609   -4.3586    5.4133 C   0  0  0  0  0  0  0  0  0  0  0  0
    2.8956   -2.0041    3.1147 C   0  0  0  0  0  0  0  0  0  0  0  0
    1.9758   -1.2623    2.3956 C   0  0  0  0  0  0  0  0  0  0  0  0
   -0.0251    0.0779    0.8050 C   0  0  0  0  0  0  0  0  0  0  0  0
   -0.3015   -0.9275   -0.1152 C   0  0  0  0  0  0  0  0  0  0  0  0
   -0.8073   -2.5863   -0.0070 S   0  0  0  0  0  0  0  0  0  0  0  0
    0.5739    2.6352    3.4185 C   0  0  0  0  0  0  0  0  0  0  0  0
    0.9955    3.8813    2.9204 C   0  0  0  0  0  0  0  0  0  0  0  0
    1.1483    3.8884    1.1858 S   0  0  0  0  0  0  0  0  0  0  0  0
    1.1703    4.8543    3.9007 C   0  0  0  0  0  0  0  0  0  0  0  0
    0.8800    4.3704    5.1617 C   0  0  0  0  0  0  0  0  0  0  0  0
    0.3990    2.6808    5.1324 S   0  0  0  0  0  0  0  0  0  0  0  0
    0.9025    5.0911    6.3814 C   0  0  0  0  0  0  0  0  0  0  0  0
    1.2585    6.4262    6.5763 C   0  0  0  0  0  0  0  0  0  0  0  0
    1.1423    6.8819    7.8089 N   0  0  0  0  0  0  0  0  0  0  0  0
    0.7070    5.9956    8.6514 C   0  0  0  0  0  0  0  0  0  0  0  0
    0.4247    4.4069    7.8936 S   0  0  0  0  0  0  0  0  0  0  0  0
    0.4678    6.1342   10.0347 C   0  0  0  0  0  0  0  0  0  0  0  0
    0.3084    7.2975   10.7278 C   0  0  0  0  0  0  0  0  0  0  0  0
    0.0681    8.6481   10.1366 C   0  0  0  0  0  0  0  0  0  0  0  0
    0.0716    8.9731    8.9736 O   0  0  0  0  0  0  0  0  0  0  0  0
   -0.2822    9.5096   11.2833 C   0  0  0  0  0  0  0  0  0  0  0  0
   -0.6317   10.8468   11.2813 C   0  0  0  0  0  0  0  0  0  0  0  0
   -0.9393   11.4486   12.4900 C   0  0  0  0  0  0  0  0  0  0  0  0
   -0.9105   10.7304   13.6853 C   0  0  0  0  0  0  0  0  0  0  0  0
   -1.2746   11.4059   14.9692 C   0  0  0  0  0  0  0  0  0  0  0  0
   -0.5604    9.3822   13.6781 C   0  0  0  0  0  0  0  0  0  0  0  0
   -0.2416    8.7699   12.4767 C   0  0  0  0  0  0  0  0  0  0  0  0
    0.1614    7.4008   12.1681 C   0  0  0  0  0  0  0  0  0  0  0  0
    0.4234    6.4213   13.0904 C   0  0  0  0  0  0  0  0  0  0  0  0
    0.8906    5.1228   12.7961 C   0  0  0  0  0  0  0  0  0  0  0  0
    1.2833    4.0540   12.6454 N   0  0  0  0  0  0  0  0  0  0  0  0
    0.2871    6.5893   14.4846 C   0  0  0  0  0  0  0  0  0  0  0  0
    0.1924    6.6550   15.6269 N   0  0  0  0  0  0  0  0  0  0  0  0
   -1.0967   -8.8091  -11.7365 H   0  0  0  0  0  0  0  0  0  0  0  0
    1.3200   -3.3307  -14.2769 H   0  0  0  0  0  0  0  0  0  0  0  0
    0.6955   -6.9851  -16.9109 H   0  0  0  0  0  0  0  0  0  0  0  0
   -1.6611   -9.3196   -9.4174 H   0  0  0  0  0  0  0  0  0  0  0  0
   -1.6274   -7.3652   -5.2954 H   0  0  0  0  0  0  0  0  0  0  0  0
    0.0683    0.9098   -4.3955 H   0  0  0  0  0  0  0  0  0  0  0  0
   -1.5440    2.5335   -5.2779 H   0  0  0  0  0  0  0  0  0  0  0  0
   -3.8993    3.0975   -5.6825 H   0  0  0  0  0  0  0  0  0  0  0  0
   -5.1248    1.8248   -5.7826 H   0  0  0  0  0  0  0  0  0  0  0  0
   -4.2056    1.1183   -7.9930 H   0  0  0  0  0  0  0  0  0  0  0  0
   -4.6958    2.8158   -8.0206 H   0  0  0  0  0  0  0  0  0  0  0  0
   -2.9860    2.3877   -7.8936 H   0  0  0  0  0  0  0  0  0  0  0  0
   -4.4926   -0.5368   -5.5391 H   0  0  0  0  0  0  0  0  0  0  0  0
   -2.8941   -2.1566   -4.6419 H   0  0  0  0  0  0  0  0  0  0  0  0
    2.1835   -1.6253   -2.6552 H   0  0  0  0  0  0  0  0  0  0  0  0
    4.3698   -1.4347   -3.7379 H   0  0  0  0  0  0  0  0  0  0  0  0
    4.9069   -1.6761   -7.3631 H   0  0  0  0  0  0  0  0  0  0  0  0
    5.6915   -1.6676   -5.7768 H   0  0  0  0  0  0  0  0  0  0  0  0
    6.2346    0.4012   -7.0411 H   0  0  0  0  0  0  0  0  0  0  0  0
    4.5144    0.7804   -7.1808 H   0  0  0  0  0  0  0  0  0  0  0  0
    5.2920    0.7907   -5.5982 H   0  0  0  0  0  0  0  0  0  0  0  0
    2.4751   -1.2806   -7.5562 H   0  0  0  0  0  0  0  0  0  0  0  0
    0.2813   -1.4422   -6.4741 H   0  0  0  0  0  0  0  0  0  0  0  0
   -1.1812   -2.1372    2.8099 H   0  0  0  0  0  0  0  0  0  0  0  0
   -3.4608   -2.6381    3.5618 H   0  0  0  0  0  0  0  0  0  0  0  0
   -5.7790   -1.8583    3.8094 H   0  0  0  0  0  0  0  0  0  0  0  0
   -6.1460   -0.1274    3.8454 H   0  0  0  0  0  0  0  0  0  0  0  0
   -6.4293   -1.1345    6.0986 H   0  0  0  0  0  0  0  0  0  0  0  0
   -5.1093    0.0400    6.1113 H   0  0  0  0  0  0  0  0  0  0  0  0
   -4.7507   -1.6860    6.0755 H   0  0  0  0  0  0  0  0  0  0  0  0
   -4.3506    1.5323    3.6415 H   0  0  0  0  0  0  0  0  0  0  0  0
   -2.0869    2.0364    2.8674 H   0  0  0  0  0  0  0  0  0  0  0  0
    0.0838   -0.1487    4.9549 H   0  0  0  0  0  0  0  0  0  0  0  0
    1.7288   -1.4500    6.2245 H   0  0  0  0  0  0  0  0  0  0  0  0
    3.9504   -2.5044    6.2621 H   0  0  0  0  0  0  0  0  0  0  0  0
    4.7559   -2.9575    4.7529 H   0  0  0  0  0  0  0  0  0  0  0  0
    3.9638   -4.9731    5.9707 H   0  0  0  0  0  0  0  0  0  0  0  0
    2.3089   -4.3550    5.9392 H   0  0  0  0  0  0  0  0  0  0  0  0
    3.1085   -4.8061    4.4336 H   0  0  0  0  0  0  0  0  0  0  0  0
    3.6844   -2.5237    2.5897 H   0  0  0  0  0  0  0  0  0  0  0  0
    2.0612   -1.2076    1.3204 H   0  0  0  0  0  0  0  0  0  0  0  0
    1.4807    5.8635    3.7062 H   0  0  0  0  0  0  0  0  0  0  0  0
    1.6129    7.0843    5.8047 H   0  0  0  0  0  0  0  0  0  0  0  0
    0.3794    5.1958   10.5677 H   0  0  0  0  0  0  0  0  0  0  0  0
   -0.6560   11.3966   10.3531 H   0  0  0  0  0  0  0  0  0  0  0  0
   -1.2097   12.4943   12.5143 H   0  0  0  0  0  0  0  0  0  0  0  0
   -0.8008   12.3831   15.0375 H   0  0  0  0  0  0  0  0  0  0  0  0
   -0.9765   10.8058   15.8246 H   0  0  0  0  0  0  0  0  0  0  0  0
   -2.3534   11.5565   15.0154 H   0  0  0  0  0  0  0  0  0  0  0  0
   -0.5481    8.8343   14.6065 H   0  0  0  0  0  0  0  0  0  0  0  0
  1  2  2  0  0  0  0
  2  3  1  0  0  0  0
  3  4  2  0  0  0  0
  3  5  1  0  0  0  0
  5  6  2  0  0  0  0
  6  7  1  0  0  0  0
  7  8  1  0  0  0  0
  8  9  2  0  0  0  0
  9 10  1  0  0  0  0
 10 11  2  0  0  0  0
 11 12  1  0  0  0  0
 12 13  3  0  0  0  0
 11 14  1  0  0  0  0
 14 15  3  0  0  0  0
  1 16  1  0  0  0  0
 16 17  2  0  0  0  0
 17 18  1  0  0  0  0
 18 19  2  0  0  0  0
 19 20  1  0  0  0  0
 19 21  1  0  0  0  0
 21 22  2  0  0  0  0
 22 23  1  0  0  0  0
 23 24  1  0  0  0  0
 24 25  1  0  0  0  0
 25 26  1  0  0  0  0
 26 27  2  0  0  0  0
 27 28  1  0  0  0  0
 28 29  1  0  0  0  0
 29 30  1  0  0  0  0
 30 31  1  0  0  0  0
 28 32  1  0  0  0  0
 32 33  2  0  0  0  0
 33 34  1  0  0  0  0
 34 35  2  0  0  0  0
 35 36  1  0  0  0  0
 36 37  1  0  0  0  0
 35 38  1  0  0  0  0
 38 39  2  0  0  0  0
 28 40  1  0  0  0  0
 40 41  2  0  0  0  0
 41 42  1  0  0  0  0
 42 43  2  0  0  0  0
 43 44  1  0  0  0  0
 44 45  1  0  0  0  0
 43 46  1  0  0  0  0
 46 47  2  0  0  0  0
 27 48  1  0  0  0  0
 48 49  1  0  0  0  0
 49 50  1  0  0  0  0
 50 51  1  0  0  0  0
 51 52  2  0  0  0  0
 52 53  1  0  0  0  0
 53 54  1  0  0  0  0
 54 55  2  0  0  0  0
 55 56  1  0  0  0  0
 56 57  2  0  0  0  0
 57 58  1  0  0  0  0
 58 59  1  0  0  0  0
 57 60  1  0  0  0  0
 60 61  2  0  0  0  0
 53 62  1  0  0  0  0
 62 63  2  0  0  0  0
 63 64  1  0  0  0  0
 64 65  2  0  0  0  0
 65 66  1  0  0  0  0
 66 67  1  0  0  0  0
 65 68  1  0  0  0  0
 68 69  2  0  0  0  0
 53 70  1  0  0  0  0
 70 71  1  0  0  0  0
 71 72  1  0  0  0  0
 52 73  1  0  0  0  0
 73 74  2  0  0  0  0
 74 75  1  0  0  0  0
 74 76  1  0  0  0  0
 76 77  2  0  0  0  0
 77 78  1  0  0  0  0
 77 79  1  0  0  0  0
 79 80  2  0  0  0  0
 80 81  1  0  0  0  0
 81 82  2  0  0  0  0
 82 83  1  0  0  0  0
 82 84  1  0  0  0  0
 84 85  2  0  0  0  0
 85 86  1  0  0  0  0
 86 87  2  0  0  0  0
 86 88  1  0  0  0  0
 88 89  2  0  0  0  0
 89 90  1  0  0  0  0
 90 91  2  0  0  0  0
 91 92  1  0  0  0  0
 91 93  1  0  0  0  0
 93 94  2  0  0  0  0
 94 95  1  0  0  0  0
 95 96  2  0  0  0  0
 96 97  1  0  0  0  0
 97 98  3  0  0  0  0
 96 99  1  0  0  0  0
 99100  3  0  0  0  0
 10  2  1  0  0  0  0
 20 16  1  0  0  0  0
 31 21  1  0  0  0  0
 39 32  1  0  0  0  0
 47 40  1  0  0  0  0
 71 48  2  0  0  0  0
 78 73  1  0  0  0  0
 83 79  1  0  0  0  0
 95 85  1  0  0  0  0
  9  5  1  0  0  0  0
 30 23  2  0  0  0  0
 70 50  2  0  0  0  0
 94 88  1  0  0  0  0
 29 25  2  0  0  0  0
 75 51  1  0  0  0  0
 72 26  1  0  0  0  0
 61 54  1  0  0  0  0
 69 62  1  0  0  0  0
  1101  1  0  0  0  0
  6102  1  0  0  0  0
  8103  1  0  0  0  0
 17104  1  0  0  0  0
 22105  1  0  0  0  0
 33106  1  0  0  0  0
 34107  1  0  0  0  0
 36108  1  0  0  0  0
 36109  1  0  0  0  0
 37110  1  0  0  0  0
 37111  1  0  0  0  0
 37112  1  0  0  0  0
 38113  1  0  0  0  0
 39114  1  0  0  0  0
 41115  1  0  0  0  0
 42116  1  0  0  0  0
 44117  1  0  0  0  0
 44118  1  0  0  0  0
 45119  1  0  0  0  0
 45120  1  0  0  0  0
 45121  1  0  0  0  0
 46122  1  0  0  0  0
 47123  1  0  0  0  0
 55124  1  0  0  0  0
 56125  1  0  0  0  0
 58126  1  0  0  0  0
 58127  1  0  0  0  0
 59128  1  0  0  0  0
 59129  1  0  0  0  0
 59130  1  0  0  0  0
 60131  1  0  0  0  0
 61132  1  0  0  0  0
 63133  1  0  0  0  0
 64134  1  0  0  0  0
 66135  1  0  0  0  0
 66136  1  0  0  0  0
 67137  1  0  0  0  0
 67138  1  0  0  0  0
 67139  1  0  0  0  0
 68140  1  0  0  0  0
 69141  1  0  0  0  0
 76142  1  0  0  0  0
 80143  1  0  0  0  0
 84144  1  0  0  0  0
 89145  1  0  0  0  0
 90146  1  0  0  0  0
 92147  1  0  0  0  0
 92148  1  0  0  0  0
 92149  1  0  0  0  0
 93150  1  0  0  0  0
M  END
