197

C          3.51750        0.24490      -16.02840
C          3.21480       -0.54540      -17.08930
C          3.14770       -2.04200      -17.08060
O          3.52280       -2.80170      -16.21750
C          2.45930       -2.39120      -18.33090
C          2.03510       -3.52500      -18.94490
S          1.28290       -3.15780      -20.45230
C          1.54060       -1.46480      -20.25650
C          2.17660       -1.20450      -19.08060
C          2.66960       -0.05570      -18.35260
C          2.66600        1.22870      -18.82420
C          3.21710        2.34830      -18.16900
N          3.66040        3.29760      -17.69930
C          2.10660        1.54110      -20.08140
N          1.65370        1.80320      -21.10230
C          4.08250       -0.14410      -14.76100
C          3.65040        0.53950      -13.60860
C          4.14800        0.16140      -12.38730
C          3.81700        0.68290      -11.03320
O          3.03500        1.55730      -10.74650
C          4.66180       -0.12540      -10.11430
C          5.43200       -1.03780      -10.86320
C          5.11300       -0.86250      -12.27200
C          5.58490       -1.49490      -13.40780
C          5.06310       -1.13530      -14.64040
C          6.28570       -1.90980      -10.21190
C          6.36430       -1.86530       -8.82920
C          5.61300       -0.95350       -8.07860
C          4.74120       -0.07570       -8.74440
C          5.67370       -0.93720       -6.63480
C          6.69350       -1.31170       -5.78330
C          8.06390       -1.64760       -6.17850
C          8.71430       -2.73170       -5.59730
C         10.01800       -3.02400       -5.95300
C         10.68150       -2.24020       -6.87960
C         10.04980       -1.14790       -7.46350
C         10.78430       -0.26410       -8.43020
C         11.51280        0.85440       -7.68280
C          8.74410       -0.85810       -7.10160
C          6.28670       -1.24500       -4.43240
S          7.11060       -1.58360       -2.92770
C          5.67710       -1.13110       -2.06840
C          5.19960       -1.06840       -0.74900
C          5.78870       -1.47440        0.46750
C          5.00710       -1.41530        1.66890
N          5.66040       -1.88230        2.72150
S          7.13570       -2.34840        2.24320
N          6.99630       -1.97670        0.67300
C          3.71430       -0.85190        1.61430
C          2.78650       -0.57440        2.63230
S          2.58610       -0.82110        4.33410
C          1.03330       -0.03070        4.24520
C          0.01660        0.20560        5.19560
C          0.09380       -0.04130        6.63480
C          0.74860       -1.15420        7.15310
C          0.77260       -1.36370        8.51940
C          0.16640       -0.46590        9.38130
C         -0.45540        0.67390        8.88590
C         -1.12330        1.66790        9.79470
C         -2.63790        1.45130        9.83310
C         -0.48210        0.87280        7.51450
C         -1.08830        0.78340        4.60560
S         -0.84380        1.15500        2.90910
C          0.71410        0.41090        2.96180
C          1.71890        0.09630        2.03650
N          1.93190        0.22080        0.69040
C          3.15410       -0.36690        0.39900
C          3.86440       -0.57930       -0.81340
N          3.53710       -0.38790       -2.14690
C          4.62960       -0.72950       -2.89780
C          4.97690       -0.80090       -4.25370
S          4.21940       -0.46580       -5.76730
C          2.24330       -0.28130       -2.78240
C          1.34210       -1.45840       -2.41810
C          1.15040        1.17260       -0.06630
C          1.97820        2.39410       -0.45780
C         -2.38630        0.86380        5.21290
C         -3.05510       -0.21460        5.77470
N         -2.64460       -1.53210        5.71190
C         -1.92540       -2.01680        4.60900
C         -2.24540       -1.62190        3.31390
C         -1.48780       -2.06160        2.24410
C         -0.40330       -2.90620        2.43080
C          0.45080       -3.34740        1.28150
C         -0.12040       -3.33670        3.72330
C         -0.86990       -2.90750        4.79800
C         -2.92910       -2.39770        6.78180
C         -2.83840       -1.95160        8.09560
C         -3.12670       -2.80720        9.14030
C         -3.50340       -4.12310        8.90710
C         -3.83840       -5.04330       10.04050
C         -3.58280       -4.56230        7.59000
C         -3.30420       -3.71590        6.53650
C         -4.25320        0.21480        6.39480
S         -5.53090       -0.60750        7.20660
C         -6.38170        0.92400        7.47130
C         -5.71730        2.00920        6.85890
N         -6.18410        3.28320        6.71440
C         -7.54810        3.60140        6.69460
C         -8.47630        2.76990        6.06860
C         -9.81890        3.08200        6.09830
C        -10.28020        4.22740        6.74360
C        -11.74570        4.51770        6.81910
C         -9.34490        5.07460        7.32270
C         -7.99600        4.77290        7.30190
C         -5.25440        4.33550        6.55560
C         -4.16350        4.44140        7.41300
C         -3.25710        5.46830        7.24660
C         -3.41620        6.41000        6.23530
C         -2.40990        7.50350        6.05130
C         -4.51950        6.30300        5.39750
C         -5.43360        5.27820        5.55000
C         -4.49840        1.57700        6.28580
S         -3.26400        2.37330        5.36580
C         -7.57890        0.86030        8.18490
C         -8.17340        1.89820        8.87460
C         -7.42350        3.03010        9.45410
O         -6.22480        3.22810        9.39160
C         -8.42220        3.78950       10.22730
C         -8.45820        4.90950       10.98720
S        -10.06270        5.21090       11.55910
C        -10.68460        3.80740       10.76780
C         -9.69850        3.15140       10.10230
C         -9.55660        1.98300        9.25540
C        -10.59870        1.21900        8.78650
C        -10.46520        0.17070        7.85960
N        -10.41860       -0.67550        7.08350
C        -11.92710        1.49530        9.15310
N        -13.01720        1.72920        9.43100
H          3.25880        1.29580      -16.09940
H          2.11610       -4.54150      -18.61580
H          1.20160       -0.78780      -21.01470
H          2.91410        1.32650      -13.67920
H          6.34330       -2.26000      -13.34380
H          5.44320       -1.61050      -15.52980
H          6.87420       -2.62800      -10.76230
H          7.00730       -2.56220       -8.31450
H          4.14180        0.63140       -8.18940
H          8.19400       -3.34980       -4.88150
H         10.51840       -3.86900       -5.50370
H         11.70000       -2.47490       -7.15340
H         11.51130       -0.85450       -8.99160
H         10.07900        0.17510       -9.13900
H         12.04680        1.49410       -8.38150
H         10.80240        1.46270       -7.12740
H         12.22770        0.43550       -6.97810
H          8.24460       -0.00470       -7.53850
H          1.22930       -1.85230        6.48590
H          1.27070       -2.23560        8.91670
H          0.18870       -0.64300       10.44690
H         -0.72010        1.57720       10.80500
H         -0.91900        2.67910        9.43480
H         -2.87550        0.47530       10.25100
H         -3.05670        1.50540        8.83000
H         -3.11940        2.21110       10.44420
H         -0.94140        1.76950        7.12390
H          2.42500       -0.28810       -3.85990
H          1.77390        0.67390       -2.54470
H          0.37370       -1.34690       -2.89870
H          1.79210       -2.38880       -2.75700
H          1.19930       -1.52410       -1.34220
H          0.70030        0.69710       -0.93820
H          0.33120        1.48630        0.58550
H          2.84650        2.10910       -1.04730
H          1.37040        3.08470       -1.03620
H          2.32900        2.90560        0.43550
H         -3.08550       -0.96310        3.14770
H         -1.74580       -1.73220        1.24740
H          0.01970       -3.03270        0.33390
H          0.55350       -4.43120        1.27440
H          1.45120       -2.92180        1.36960
H          0.71080       -4.00680        3.88820
H         -0.63940       -3.24580        5.79670
H         -2.52520       -0.93880        8.29060
H         -3.04860       -2.44620       10.15580
H         -4.91610       -5.04990       10.20720
H         -3.52830       -6.06190        9.81810
H         -3.35660       -4.71950       10.96000
H         -3.87520       -5.58230        7.38650
H         -3.37580       -4.06890        5.51830
H         -8.14350        1.87550        5.56340
H        -10.52550        2.42110        5.61780
H        -11.92500        5.54430        7.12800
H        -12.22210        3.85510        7.54310
H        -12.22240        4.34830        5.85580
H         -9.67540        5.97930        7.81250
H         -7.28180        5.43460        7.76890
H         -4.06000        3.73330        8.21970
H         -2.41490        5.54770        7.91850
H         -2.82510        8.32290        5.46990
H         -2.07480        7.88620        7.01300
H         -1.53720        7.11890        5.52270
H         -4.66460        7.02850        4.61040
H         -6.28620        5.20160        4.89090
H         -8.05680       -0.11200        8.21240
H         -7.66520        5.58220       11.24510
H        -11.72520        3.56910       10.86020
