
  xtb     02202200153D
 energy: -338.011471234867 gnorm: 0.000980712294 xtb: 6.4.1 (unknown)
203225  0     0  0            999 V2000
   -5.0786   -1.2784   -0.9754 C   0  0  0  0  0  0  0  0  0  0  0  0
   -4.1921   -2.2253   -0.4873 C   0  0  0  0  0  0  0  0  0  0  0  0
   -2.7575   -1.9359   -0.2558 C   0  0  0  0  0  0  0  0  0  0  0  0
   -2.1597   -0.9007   -0.4777 O   0  0  0  0  0  0  0  0  0  0  0  0
   -2.1615   -3.2261    0.1172 C   0  0  0  0  0  0  0  0  0  0  0  0
   -0.9425   -3.6852    0.4812 C   0  0  0  0  0  0  0  0  0  0  0  0
   -0.9852   -5.3981    0.7214 S   0  0  0  0  0  0  0  0  0  0  0  0
   -2.6649   -5.4832    0.3147 C   0  0  0  0  0  0  0  0  0  0  0  0
   -3.1551   -4.2509    0.0220 C   0  0  0  0  0  0  0  0  0  0  0  0
   -4.4179   -3.6408   -0.3641 C   0  0  0  0  0  0  0  0  0  0  0  0
   -5.5979   -4.3344   -0.5066 C   0  0  0  0  0  0  0  0  0  0  0  0
   -6.8409   -3.7648   -0.8241 C   0  0  0  0  0  0  0  0  0  0  0  0
   -7.8889   -3.3620   -1.0711 N   0  0  0  0  0  0  0  0  0  0  0  0
   -5.6371   -5.7278   -0.3166 C   0  0  0  0  0  0  0  0  0  0  0  0
   -5.6650   -6.8658   -0.1604 N   0  0  0  0  0  0  0  0  0  0  0  0
   -4.8757    0.0945   -0.7886 C   0  0  0  0  0  0  0  0  0  0  0  0
   -5.0610    1.1606   -1.7056 C   0  0  0  0  0  0  0  0  0  0  0  0
   -5.7258    1.0534   -2.8911 N   0  0  0  0  0  0  0  0  0  0  0  0
   -5.3460    1.8122   -4.0127 C   0  0  0  0  0  0  0  0  0  0  0  0
   -4.0029    1.9981   -4.3275 C   0  0  0  0  0  0  0  0  0  0  0  0
   -3.6494    2.7333   -5.4421 C   0  0  0  0  0  0  0  0  0  0  0  0
   -4.6154    3.2782   -6.2784 C   0  0  0  0  0  0  0  0  0  0  0  0
   -4.2298    4.0242   -7.5174 C   0  0  0  0  0  0  0  0  0  0  0  0
   -5.9540    3.0777   -5.9601 C   0  0  0  0  0  0  0  0  0  0  0  0
   -6.3218    2.3614   -4.8393 C   0  0  0  0  0  0  0  0  0  0  0  0
   -6.8373    0.1938   -3.0045 C   0  0  0  0  0  0  0  0  0  0  0  0
   -6.9928   -0.6046   -4.1323 C   0  0  0  0  0  0  0  0  0  0  0  0
   -8.0823   -1.4488   -4.2342 C   0  0  0  0  0  0  0  0  0  0  0  0
   -9.0342   -1.5172   -3.2250 C   0  0  0  0  0  0  0  0  0  0  0  0
  -10.1913   -2.4588   -3.3065 C   0  0  0  0  0  0  0  0  0  0  0  0
   -8.8745   -0.7036   -2.1070 C   0  0  0  0  0  0  0  0  0  0  0  0
   -7.7935    0.1445   -1.9924 C   0  0  0  0  0  0  0  0  0  0  0  0
   -4.3720    2.3087   -1.2635 C   0  0  0  0  0  0  0  0  0  0  0  0
   -3.9335    3.8459   -1.9611 S   0  0  0  0  0  0  0  0  0  0  0  0
   -2.9101    4.2234   -0.5831 C   0  0  0  0  0  0  0  0  0  0  0  0
   -3.0094    3.2493    0.4061 C   0  0  0  0  0  0  0  0  0  0  0  0
   -2.3358    3.2890    1.6449 N   0  0  0  0  0  0  0  0  0  0  0  0
   -3.1585    3.6887    2.7223 C   0  0  0  0  0  0  0  0  0  0  0  0
   -3.8105    4.9150    2.6569 C   0  0  0  0  0  0  0  0  0  0  0  0
   -4.6428    5.3173    3.6836 C   0  0  0  0  0  0  0  0  0  0  0  0
   -4.8478    4.5114    4.7956 C   0  0  0  0  0  0  0  0  0  0  0  0
   -5.7307    4.9542    5.9220 C   0  0  0  0  0  0  0  0  0  0  0  0
   -4.2035    3.2802    4.8450 C   0  0  0  0  0  0  0  0  0  0  0  0
   -3.3759    2.8638    3.8217 C   0  0  0  0  0  0  0  0  0  0  0  0
   -1.1999    2.4950    1.8407 C   0  0  0  0  0  0  0  0  0  0  0  0
   -0.7060    1.6709    0.8312 C   0  0  0  0  0  0  0  0  0  0  0  0
    0.4791    0.9861    1.0053 C   0  0  0  0  0  0  0  0  0  0  0  0
    1.2173    1.0996    2.1766 C   0  0  0  0  0  0  0  0  0  0  0  0
    2.5150    0.3646    2.3320 C   0  0  0  0  0  0  0  0  0  0  0  0
    0.7249    1.9277    3.1764 C   0  0  0  0  0  0  0  0  0  0  0  0
   -0.4561    2.6253    3.0134 C   0  0  0  0  0  0  0  0  0  0  0  0
   -3.8129    2.1752    0.0041 C   0  0  0  0  0  0  0  0  0  0  0  0
   -4.1017    0.6343    0.6990 S   0  0  0  0  0  0  0  0  0  0  0  0
   -1.8906    5.2115   -0.6218 C   0  0  0  0  0  0  0  0  0  0  0  0
   -1.4086    5.9492   -1.7031 C   0  0  0  0  0  0  0  0  0  0  0  0
   -2.1762    6.2176   -2.9162 C   0  0  0  0  0  0  0  0  0  0  0  0
   -1.5877    6.0990   -4.1725 C   0  0  0  0  0  0  0  0  0  0  0  0
   -2.3271    6.3731   -5.3061 C   0  0  0  0  0  0  0  0  0  0  0  0
   -3.6522    6.7585   -5.2030 C   0  0  0  0  0  0  0  0  0  0  0  0
   -4.2543    6.8902   -3.9586 C   0  0  0  0  0  0  0  0  0  0  0  0
   -5.7022    7.2672   -3.8398 C   0  0  0  0  0  0  0  0  0  0  0  0
   -6.5687    6.0084   -3.7701 C   0  0  0  0  0  0  0  0  0  0  0  0
   -3.5055    6.6232   -2.8232 C   0  0  0  0  0  0  0  0  0  0  0  0
   -0.0695    6.3386   -1.4958 C   0  0  0  0  0  0  0  0  0  0  0  0
    1.1873    6.9910   -2.5419 S   0  0  0  0  0  0  0  0  0  0  0  0
    2.3944    6.5224   -1.3768 C   0  0  0  0  0  0  0  0  0  0  0  0
    3.7642    6.1974   -1.3387 C   0  0  0  0  0  0  0  0  0  0  0  0
    4.7840    6.2381   -2.3184 C   0  0  0  0  0  0  0  0  0  0  0  0
    5.9374    5.3822   -2.1696 C   0  0  0  0  0  0  0  0  0  0  0  0
    6.7476    5.4476   -3.2128 N   0  0  0  0  0  0  0  0  0  0  0  0
    6.1349    6.4976   -4.2815 S   0  0  0  0  0  0  0  0  0  0  0  0
    4.7967    6.9005   -3.4628 N   0  0  0  0  0  0  0  0  0  0  0  0
    6.0574    4.5767   -1.0141 C   0  0  0  0  0  0  0  0  0  0  0  0
    6.8358    3.4378   -0.7010 C   0  0  0  0  0  0  0  0  0  0  0  0
    7.9126    2.3501   -1.5150 S   0  0  0  0  0  0  0  0  0  0  0  0
    7.6532    1.1756   -0.2452 C   0  0  0  0  0  0  0  0  0  0  0  0
    7.8647   -0.2253   -0.2094 C   0  0  0  0  0  0  0  0  0  0  0  0
    8.6265   -0.9403   -1.2357 C   0  0  0  0  0  0  0  0  0  0  0  0
    9.8473   -0.4260   -1.6633 C   0  0  0  0  0  0  0  0  0  0  0  0
   10.5773   -1.0928   -2.6288 C   0  0  0  0  0  0  0  0  0  0  0  0
   10.0993   -2.2706   -3.1755 C   0  0  0  0  0  0  0  0  0  0  0  0
    8.8758   -2.7902   -2.7708 C   0  0  0  0  0  0  0  0  0  0  0  0
    8.3252   -4.0402   -3.3957 C   0  0  0  0  0  0  0  0  0  0  0  0
    7.4716   -3.6967   -4.6178 C   0  0  0  0  0  0  0  0  0  0  0  0
    8.1441   -2.1122   -1.8088 C   0  0  0  0  0  0  0  0  0  0  0  0
    7.1832   -0.8043    0.8352 C   0  0  0  0  0  0  0  0  0  0  0  0
    6.3613    0.3766    1.8371 S   0  0  0  0  0  0  0  0  0  0  0  0
    6.8490    1.6597    0.7848 C   0  0  0  0  0  0  0  0  0  0  0  0
    6.4072    2.9690    0.5424 C   0  0  0  0  0  0  0  0  0  0  0  0
    5.4452    3.8140    1.0724 N   0  0  0  0  0  0  0  0  0  0  0  0
    5.1592    4.7405    0.0636 C   0  0  0  0  0  0  0  0  0  0  0  0
    3.9734    5.4822   -0.1241 C   0  0  0  0  0  0  0  0  0  0  0  0
    2.7880    5.4215    0.5705 N   0  0  0  0  0  0  0  0  0  0  0  0
    1.8302    6.0173   -0.2000 C   0  0  0  0  0  0  0  0  0  0  0  0
    0.4373    5.9410   -0.2577 C   0  0  0  0  0  0  0  0  0  0  0  0
   -0.7523    5.1772    0.7220 S   0  0  0  0  0  0  0  0  0  0  0  0
    2.4106    4.5663    1.6696 C   0  0  0  0  0  0  0  0  0  0  0  0
    2.1071    5.3638    2.9338 C   0  0  0  0  0  0  0  0  0  0  0  0
    5.5299    4.2318    2.4686 C   0  0  0  0  0  0  0  0  0  0  0  0
    5.1853    3.1349    3.4664 C   0  0  0  0  0  0  0  0  0  0  0  0
    6.8867   -2.2100    1.0732 C   0  0  0  0  0  0  0  0  0  0  0  0
    5.5448   -2.5498    1.2168 C   0  0  0  0  0  0  0  0  0  0  0  0
    5.2049   -3.8878    1.2944 C   0  0  0  0  0  0  0  0  0  0  0  0
    3.9606   -4.4622    1.3251 N   0  0  0  0  0  0  0  0  0  0  0  0
    2.7075   -3.7675    1.4452 C   0  0  0  0  0  0  0  0  0  0  0  0
    2.3525   -3.4991    2.9070 C   0  0  0  0  0  0  0  0  0  0  0  0
    4.1153   -5.8240    1.3744 C   0  0  0  0  0  0  0  0  0  0  0  0
    5.4990   -6.1456    1.3599 C   0  0  0  0  0  0  0  0  0  0  0  0
    6.1991   -4.8996    1.2890 C   0  0  0  0  0  0  0  0  0  0  0  0
    7.5417   -4.5384    1.1962 C   0  0  0  0  0  0  0  0  0  0  0  0
    7.8753   -3.2069    1.0777 C   0  0  0  0  0  0  0  0  0  0  0  0
    5.8874   -7.4827    1.3923 C   0  0  0  0  0  0  0  0  0  0  0  0
    4.9186   -8.4576    1.4340 C   0  0  0  0  0  0  0  0  0  0  0  0
    3.5438   -8.1407    1.4550 C   0  0  0  0  0  0  0  0  0  0  0  0
    3.1438   -6.8030    1.4037 C   0  0  0  0  0  0  0  0  0  0  0  0
    2.5812   -9.2056    1.4442 C   0  0  0  0  0  0  0  0  0  0  0  0
    1.2662   -9.2115    1.7853 C   0  0  0  0  0  0  0  0  0  0  0  0
    0.4093  -10.3253    1.2638 C   0  0  0  0  0  0  0  0  0  0  0  0
    0.7973  -11.3534    0.7606 O   0  0  0  0  0  0  0  0  0  0  0  0
   -0.9696   -9.8584    1.4589 C   0  0  0  0  0  0  0  0  0  0  0  0
   -2.2244  -10.2828    1.1603 C   0  0  0  0  0  0  0  0  0  0  0  0
   -3.4062   -9.1742    1.7493 S   0  0  0  0  0  0  0  0  0  0  0  0
   -2.2035   -8.1358    2.4182 C   0  0  0  0  0  0  0  0  0  0  0  0
   -0.9529   -8.6192    2.1784 C   0  0  0  0  0  0  0  0  0  0  0  0
    0.4177   -8.2682    2.4942 C   0  0  0  0  0  0  0  0  0  0  0  0
    0.7724   -7.3526    3.4502 C   0  0  0  0  0  0  0  0  0  0  0  0
    2.0722   -7.1836    3.9637 C   0  0  0  0  0  0  0  0  0  0  0  0
    3.0946   -7.0247    4.4611 N   0  0  0  0  0  0  0  0  0  0  0  0
   -0.1810   -6.5047    4.0478 C   0  0  0  0  0  0  0  0  0  0  0  0
   -0.9316   -5.7699    4.5119 N   0  0  0  0  0  0  0  0  0  0  0  0
   -5.9184   -1.6101   -1.5737 H   0  0  0  0  0  0  0  0  0  0  0  0
   -0.0359   -3.1368    0.6347 H   0  0  0  0  0  0  0  0  0  0  0  0
   -3.1561   -6.4350    0.3141 H   0  0  0  0  0  0  0  0  0  0  0  0
   -3.2404    1.5480   -3.7091 H   0  0  0  0  0  0  0  0  0  0  0  0
   -2.6038    2.8736   -5.6727 H   0  0  0  0  0  0  0  0  0  0  0  0
   -4.1879    3.3384   -8.3647 H   0  0  0  0  0  0  0  0  0  0  0  0
   -4.9602    4.7958   -7.7492 H   0  0  0  0  0  0  0  0  0  0  0  0
   -3.2512    4.4816   -7.4037 H   0  0  0  0  0  0  0  0  0  0  0  0
   -6.7215    3.4893   -6.6001 H   0  0  0  0  0  0  0  0  0  0  0  0
   -7.3650    2.2214   -4.5981 H   0  0  0  0  0  0  0  0  0  0  0  0
   -6.2524   -0.5658   -4.9180 H   0  0  0  0  0  0  0  0  0  0  0  0
   -8.1854   -2.0733   -5.1096 H   0  0  0  0  0  0  0  0  0  0  0  0
  -11.1219   -1.9493   -3.0637 H   0  0  0  0  0  0  0  0  0  0  0  0
  -10.0475   -3.2580   -2.5807 H   0  0  0  0  0  0  0  0  0  0  0  0
  -10.2739   -2.8976   -4.2974 H   0  0  0  0  0  0  0  0  0  0  0  0
   -9.6061   -0.7436   -1.3149 H   0  0  0  0  0  0  0  0  0  0  0  0
   -7.6781    0.7714   -1.1202 H   0  0  0  0  0  0  0  0  0  0  0  0
   -3.6605    5.5528    1.7983 H   0  0  0  0  0  0  0  0  0  0  0  0
   -5.1392    6.2749    3.6188 H   0  0  0  0  0  0  0  0  0  0  0  0
   -5.1245    5.3195    6.7516 H   0  0  0  0  0  0  0  0  0  0  0  0
   -6.3318    4.1248    6.2892 H   0  0  0  0  0  0  0  0  0  0  0  0
   -6.3924    5.7568    5.6059 H   0  0  0  0  0  0  0  0  0  0  0  0
   -4.3636    2.6306    5.6935 H   0  0  0  0  0  0  0  0  0  0  0  0
   -2.9029    1.8941    3.8636 H   0  0  0  0  0  0  0  0  0  0  0  0
   -1.2459    1.5504   -0.0936 H   0  0  0  0  0  0  0  0  0  0  0  0
    0.8321    0.3481    0.2084 H   0  0  0  0  0  0  0  0  0  0  0  0
    3.2727    0.7811    1.6667 H   0  0  0  0  0  0  0  0  0  0  0  0
    2.3868   -0.6842    2.0746 H   0  0  0  0  0  0  0  0  0  0  0  0
    2.8834    0.4260    3.3531 H   0  0  0  0  0  0  0  0  0  0  0  0
    1.2775    2.0369    4.0996 H   0  0  0  0  0  0  0  0  0  0  0  0
   -0.8015    3.2875    3.7926 H   0  0  0  0  0  0  0  0  0  0  0  0
   -0.5592    5.7841   -4.2565 H   0  0  0  0  0  0  0  0  0  0  0  0
   -1.8622    6.2912   -6.2778 H   0  0  0  0  0  0  0  0  0  0  0  0
   -4.2228    6.9709   -6.0952 H   0  0  0  0  0  0  0  0  0  0  0  0
   -5.8584    7.8634   -2.9386 H   0  0  0  0  0  0  0  0  0  0  0  0
   -6.0026    7.8656   -4.7020 H   0  0  0  0  0  0  0  0  0  0  0  0
   -6.4258    5.4014   -4.6609 H   0  0  0  0  0  0  0  0  0  0  0  0
   -6.2918    5.4059   -2.9081 H   0  0  0  0  0  0  0  0  0  0  0  0
   -7.6203    6.2733   -3.6893 H   0  0  0  0  0  0  0  0  0  0  0  0
   -3.9527    6.7521   -1.8474 H   0  0  0  0  0  0  0  0  0  0  0  0
   10.2259    0.4871   -1.2283 H   0  0  0  0  0  0  0  0  0  0  0  0
   11.5263   -0.6930   -2.9545 H   0  0  0  0  0  0  0  0  0  0  0  0
   10.6783   -2.7910   -3.9249 H   0  0  0  0  0  0  0  0  0  0  0  0
    7.7135   -4.5768   -2.6669 H   0  0  0  0  0  0  0  0  0  0  0  0
    9.1453   -4.6928   -3.7016 H   0  0  0  0  0  0  0  0  0  0  0  0
    6.6420   -3.0547   -4.3305 H   0  0  0  0  0  0  0  0  0  0  0  0
    8.0683   -3.1714   -5.3603 H   0  0  0  0  0  0  0  0  0  0  0  0
    7.0713   -4.6013   -5.0697 H   0  0  0  0  0  0  0  0  0  0  0  0
    7.1812   -2.4966   -1.5061 H   0  0  0  0  0  0  0  0  0  0  0  0
    1.5087    4.0177    1.3783 H   0  0  0  0  0  0  0  0  0  0  0  0
    3.1976    3.8359    1.8301 H   0  0  0  0  0  0  0  0  0  0  0  0
    1.8431    4.6829    3.7367 H   0  0  0  0  0  0  0  0  0  0  0  0
    1.2665    6.0306    2.7587 H   0  0  0  0  0  0  0  0  0  0  0  0
    2.9611    5.9620    3.2438 H   0  0  0  0  0  0  0  0  0  0  0  0
    6.5543    4.5775    2.6650 H   0  0  0  0  0  0  0  0  0  0  0  0
    4.8687    5.0889    2.5959 H   0  0  0  0  0  0  0  0  0  0  0  0
    5.9188    2.3354    3.4298 H   0  0  0  0  0  0  0  0  0  0  0  0
    5.1886    3.5559    4.4685 H   0  0  0  0  0  0  0  0  0  0  0  0
    4.2052    2.7084    3.2733 H   0  0  0  0  0  0  0  0  0  0  0  0
    4.7926   -1.7755    1.2191 H   0  0  0  0  0  0  0  0  0  0  0  0
    1.9351   -4.3836    0.9767 H   0  0  0  0  0  0  0  0  0  0  0  0
    2.7789   -2.8280    0.8886 H   0  0  0  0  0  0  0  0  0  0  0  0
    2.3276   -4.4327    3.4639 H   0  0  0  0  0  0  0  0  0  0  0  0
    1.3781   -3.0231    2.9841 H   0  0  0  0  0  0  0  0  0  0  0  0
    3.0982   -2.8523    3.3636 H   0  0  0  0  0  0  0  0  0  0  0  0
    8.3109   -5.2954    1.2018 H   0  0  0  0  0  0  0  0  0  0  0  0
    8.9091   -2.9130    0.9803 H   0  0  0  0  0  0  0  0  0  0  0  0
    6.9337   -7.7468    1.3796 H   0  0  0  0  0  0  0  0  0  0  0  0
    5.2054   -9.4979    1.4692 H   0  0  0  0  0  0  0  0  0  0  0  0
    2.0963   -6.5514    1.3397 H   0  0  0  0  0  0  0  0  0  0  0  0
    2.9301  -10.1450    1.0238 H   0  0  0  0  0  0  0  0  0  0  0  0
   -2.5300  -11.1683    0.6401 H   0  0  0  0  0  0  0  0  0  0  0  0
   -2.5019   -7.2435    2.9314 H   0  0  0  0  0  0  0  0  0  0  0  0
  1  2  2  0  0  0  0
  2  3  1  0  0  0  0
  3  4  2  0  0  0  0
  3  5  1  0  0  0  0
  5  6  2  0  0  0  0
  6  7  1  0  0  0  0
  7  8  1  0  0  0  0
  8  9  2  0  0  0  0
  9 10  1  0  0  0  0
 10 11  2  0  0  0  0
 11 12  1  0  0  0  0
 12 13  3  0  0  0  0
 11 14  1  0  0  0  0
 14 15  3  0  0  0  0
  1 16  1  0  0  0  0
 16 17  2  0  0  0  0
 17 18  1  0  0  0  0
 18 19  1  0  0  0  0
 19 20  2  0  0  0  0
 20 21  1  0  0  0  0
 21 22  2  0  0  0  0
 22 23  1  0  0  0  0
 22 24  1  0  0  0  0
 24 25  2  0  0  0  0
 18 26  1  0  0  0  0
 26 27  2  0  0  0  0
 27 28  1  0  0  0  0
 28 29  2  0  0  0  0
 29 30  1  0  0  0  0
 29 31  1  0  0  0  0
 31 32  2  0  0  0  0
 17 33  1  0  0  0  0
 33 34  1  0  0  0  0
 34 35  1  0  0  0  0
 35 36  2  0  0  0  0
 36 37  1  0  0  0  0
 37 38  1  0  0  0  0
 38 39  2  0  0  0  0
 39 40  1  0  0  0  0
 40 41  2  0  0  0  0
 41 42  1  0  0  0  0
 41 43  1  0  0  0  0
 43 44  2  0  0  0  0
 37 45  1  0  0  0  0
 45 46  2  0  0  0  0
 46 47  1  0  0  0  0
 47 48  2  0  0  0  0
 48 49  1  0  0  0  0
 48 50  1  0  0  0  0
 50 51  2  0  0  0  0
 36 52  1  0  0  0  0
 52 53  1  0  0  0  0
 35 54  1  0  0  0  0
 54 55  2  0  0  0  0
 55 56  1  0  0  0  0
 56 57  2  0  0  0  0
 57 58  1  0  0  0  0
 58 59  2  0  0  0  0
 59 60  1  0  0  0  0
 60 61  1  0  0  0  0
 61 62  1  0  0  0  0
 60 63  2  0  0  0  0
 55 64  1  0  0  0  0
 64 65  1  0  0  0  0
 65 66  1  0  0  0  0
 66 67  1  0  0  0  0
 67 68  1  0  0  0  0
 68 69  1  0  0  0  0
 69 70  2  0  0  0  0
 70 71  1  0  0  0  0
 71 72  1  0  0  0  0
 69 73  1  0  0  0  0
 73 74  1  0  0  0  0
 74 75  1  0  0  0  0
 75 76  1  0  0  0  0
 76 77  1  0  0  0  0
 77 78  1  0  0  0  0
 78 79  2  0  0  0  0
 79 80  1  0  0  0  0
 80 81  2  0  0  0  0
 81 82  1  0  0  0  0
 82 83  1  0  0  0  0
 83 84  1  0  0  0  0
 82 85  2  0  0  0  0
 77 86  2  0  0  0  0
 86 87  1  0  0  0  0
 87 88  1  0  0  0  0
 88 89  1  0  0  0  0
 89 90  1  0  0  0  0
 90 91  1  0  0  0  0
 91 92  1  0  0  0  0
 92 93  1  0  0  0  0
 93 94  1  0  0  0  0
 94 95  1  0  0  0  0
 95 96  1  0  0  0  0
 93 97  1  0  0  0  0
 97 98  1  0  0  0  0
 90 99  1  0  0  0  0
 99100  1  0  0  0  0
 86101  1  0  0  0  0
101102  2  0  0  0  0
102103  1  0  0  0  0
103104  1  0  0  0  0
104105  1  0  0  0  0
105106  1  0  0  0  0
104107  1  0  0  0  0
107108  2  0  0  0  0
108109  1  0  0  0  0
109110  1  0  0  0  0
110111  2  0  0  0  0
108112  1  0  0  0  0
112113  2  0  0  0  0
113114  1  0  0  0  0
114115  2  0  0  0  0
114116  1  0  0  0  0
116117  2  0  0  0  0
117118  1  0  0  0  0
118119  2  0  0  0  0
118120  1  0  0  0  0
120121  2  0  0  0  0
121122  1  0  0  0  0
122123  1  0  0  0  0
123124  2  0  0  0  0
124125  1  0  0  0  0
125126  2  0  0  0  0
126127  1  0  0  0  0
127128  3  0  0  0  0
126129  1  0  0  0  0
129130  3  0  0  0  0
 10  2  1  0  0  0  0
 53 16  1  0  0  0  0
 96 54  1  0  0  0  0
111101  1  0  0  0  0
125117  1  0  0  0  0
  9  5  1  0  0  0  0
 25 19  1  0  0  0  0
 32 26  1  0  0  0  0
 52 33  2  0  0  0  0
 63 56  1  0  0  0  0
 95 64  2  0  0  0  0
109103  2  0  0  0  0
124120  1  0  0  0  0
 44 38  1  0  0  0  0
 51 45  1  0  0  0  0
 94 66  2  0  0  0  0
115107  1  0  0  0  0
 92 67  2  0  0  0  0
 72 68  2  0  0  0  0
 91 73  2  0  0  0  0
 89 74  2  0  0  0  0
 88 76  2  0  0  0  0
 85 78  1  0  0  0  0
  1131  1  0  0  0  0
  6132  1  0  0  0  0
  8133  1  0  0  0  0
 20134  1  0  0  0  0
 21135  1  0  0  0  0
 23136  1  0  0  0  0
 23137  1  0  0  0  0
 23138  1  0  0  0  0
 24139  1  0  0  0  0
 25140  1  0  0  0  0
 27141  1  0  0  0  0
 28142  1  0  0  0  0
 30143  1  0  0  0  0
 30144  1  0  0  0  0
 30145  1  0  0  0  0
 31146  1  0  0  0  0
 32147  1  0  0  0  0
 39148  1  0  0  0  0
 40149  1  0  0  0  0
 42150  1  0  0  0  0
 42151  1  0  0  0  0
 42152  1  0  0  0  0
 43153  1  0  0  0  0
 44154  1  0  0  0  0
 46155  1  0  0  0  0
 47156  1  0  0  0  0
 49157  1  0  0  0  0
 49158  1  0  0  0  0
 49159  1  0  0  0  0
 50160  1  0  0  0  0
 51161  1  0  0  0  0
 57162  1  0  0  0  0
 58163  1  0  0  0  0
 59164  1  0  0  0  0
 61165  1  0  0  0  0
 61166  1  0  0  0  0
 62167  1  0  0  0  0
 62168  1  0  0  0  0
 62169  1  0  0  0  0
 63170  1  0  0  0  0
 79171  1  0  0  0  0
 80172  1  0  0  0  0
 81173  1  0  0  0  0
 83174  1  0  0  0  0
 83175  1  0  0  0  0
 84176  1  0  0  0  0
 84177  1  0  0  0  0
 84178  1  0  0  0  0
 85179  1  0  0  0  0
 97180  1  0  0  0  0
 97181  1  0  0  0  0
 98182  1  0  0  0  0
 98183  1  0  0  0  0
 98184  1  0  0  0  0
 99185  1  0  0  0  0
 99186  1  0  0  0  0
100187  1  0  0  0  0
100188  1  0  0  0  0
100189  1  0  0  0  0
102190  1  0  0  0  0
105191  1  0  0  0  0
105192  1  0  0  0  0
106193  1  0  0  0  0
106194  1  0  0  0  0
106195  1  0  0  0  0
110196  1  0  0  0  0
111197  1  0  0  0  0
112198  1  0  0  0  0
113199  1  0  0  0  0
115200  1  0  0  0  0
116201  1  0  0  0  0
121202  1  0  0  0  0
123203  1  0  0  0  0
M  END
