
  xtb     02202207023D
 energy: -390.222439933245 gnorm: 0.000226052070 xtb: 6.4.1 (unknown)
239265  0     0  0            999 V2000
   -8.8043    4.1222   14.0932 C   0  0  0  0  0  0  0  0  0  0  0  0
   -9.7527    4.2190   12.9052 C   0  0  0  0  0  0  0  0  0  0  0  0
   -9.4217    3.2276   11.8870 N   0  0  0  0  0  0  0  0  0  0  0  0
   -8.5019    3.6013   10.9205 C   0  0  0  0  0  0  0  0  0  0  0  0
   -8.0160    4.7155   10.9247 O   0  0  0  0  0  0  0  0  0  0  0  0
   -8.1785    2.5957    9.9012 C   0  0  0  0  0  0  0  0  0  0  0  0
   -7.2958    2.9138    8.8892 C   0  0  0  0  0  0  0  0  0  0  0  0
   -7.0547    2.0113    7.8613 C   0  0  0  0  0  0  0  0  0  0  0  0
   -7.6621    0.7675    7.8327 C   0  0  0  0  0  0  0  0  0  0  0  0
   -8.5074    0.3761    8.9092 C   0  0  0  0  0  0  0  0  0  0  0  0
   -9.1498   -0.8755    8.9696 C   0  0  0  0  0  0  0  0  0  0  0  0
  -10.0183   -1.1779    9.9876 C   0  0  0  0  0  0  0  0  0  0  0  0
  -10.2985   -0.2400   10.9814 C   0  0  0  0  0  0  0  0  0  0  0  0
   -9.6938    0.9998   10.9540 C   0  0  0  0  0  0  0  0  0  0  0  0
   -8.7827    1.3234    9.9288 C   0  0  0  0  0  0  0  0  0  0  0  0
  -10.0320    1.9899   11.9900 C   0  0  0  0  0  0  0  0  0  0  0  0
  -10.8212    1.7583   12.8847 O   0  0  0  0  0  0  0  0  0  0  0  0
   -7.4976   -0.0341    6.6298 C   0  0  0  0  0  0  0  0  0  0  0  0
   -7.7621    0.4229    5.3526 C   0  0  0  0  0  0  0  0  0  0  0  0
   -8.3531    1.6373    5.0451 N   0  0  0  0  0  0  0  0  0  0  0  0
   -7.9535    2.3233    3.8895 C   0  0  0  0  0  0  0  0  0  0  0  0
   -6.6282    2.2905    3.4624 C   0  0  0  0  0  0  0  0  0  0  0  0
   -6.2522    2.9523    2.3103 C   0  0  0  0  0  0  0  0  0  0  0  0
   -7.1749    3.6733    1.5635 C   0  0  0  0  0  0  0  0  0  0  0  0
   -6.7648    4.3693    0.3020 C   0  0  0  0  0  0  0  0  0  0  0  0
   -8.4922    3.7154    2.0062 C   0  0  0  0  0  0  0  0  0  0  0  0
   -8.8836    3.0492    3.1495 C   0  0  0  0  0  0  0  0  0  0  0  0
   -9.2664    2.2255    5.9346 C   0  0  0  0  0  0  0  0  0  0  0  0
  -10.2245    1.4491    6.5802 C   0  0  0  0  0  0  0  0  0  0  0  0
  -11.0383    2.0084    7.5449 C   0  0  0  0  0  0  0  0  0  0  0  0
  -10.9308    3.3515    7.8832 C   0  0  0  0  0  0  0  0  0  0  0  0
  -11.7751    3.9447    8.9688 C   0  0  0  0  0  0  0  0  0  0  0  0
  -10.0202    4.1350    7.1841 C   0  0  0  0  0  0  0  0  0  0  0  0
   -9.1960    3.5862    6.2229 C   0  0  0  0  0  0  0  0  0  0  0  0
   -7.3922   -0.5434    4.3818 C   0  0  0  0  0  0  0  0  0  0  0  0
   -7.4441   -0.5898    2.6577 S   0  0  0  0  0  0  0  0  0  0  0  0
   -6.6985   -2.1802    2.6580 C   0  0  0  0  0  0  0  0  0  0  0  0
   -6.4643   -2.6520    3.9361 C   0  0  0  0  0  0  0  0  0  0  0  0
   -5.9291   -3.8998    4.2071 N   0  0  0  0  0  0  0  0  0  0  0  0
   -6.2000   -4.9663    3.3338 C   0  0  0  0  0  0  0  0  0  0  0  0
   -5.1822   -5.8295    2.9349 C   0  0  0  0  0  0  0  0  0  0  0  0
   -5.4432   -6.8335    2.0249 C   0  0  0  0  0  0  0  0  0  0  0  0
   -6.7184   -7.0158    1.5006 C   0  0  0  0  0  0  0  0  0  0  0  0
   -6.9749   -8.0811    0.4788 C   0  0  0  0  0  0  0  0  0  0  0  0
   -7.7349   -6.1741    1.9327 C   0  0  0  0  0  0  0  0  0  0  0  0
   -7.4837   -5.1578    2.8328 C   0  0  0  0  0  0  0  0  0  0  0  0
   -5.0575   -4.0688    5.2886 C   0  0  0  0  0  0  0  0  0  0  0  0
   -5.0603   -5.2599    6.0108 C   0  0  0  0  0  0  0  0  0  0  0  0
   -4.2085   -5.4219    7.0842 C   0  0  0  0  0  0  0  0  0  0  0  0
   -3.3411   -4.4081    7.4743 C   0  0  0  0  0  0  0  0  0  0  0  0
   -2.4433   -4.5775    8.6617 C   0  0  0  0  0  0  0  0  0  0  0  0
   -3.3412   -3.2253    6.7458 C   0  0  0  0  0  0  0  0  0  0  0  0
   -4.1796   -3.0541    5.6623 C   0  0  0  0  0  0  0  0  0  0  0  0
   -6.8703   -1.7097    4.9143 C   0  0  0  0  0  0  0  0  0  0  0  0
   -6.8563   -1.6690    6.6437 S   0  0  0  0  0  0  0  0  0  0  0  0
   -6.1471   -2.7606    1.4596 C   0  0  0  0  0  0  0  0  0  0  0  0
   -6.7007   -3.2162    0.2874 C   0  0  0  0  0  0  0  0  0  0  0  0
   -8.1248   -3.3196   -0.0350 C   0  0  0  0  0  0  0  0  0  0  0  0
   -9.0325   -2.2970    0.2163 C   0  0  0  0  0  0  0  0  0  0  0  0
  -10.3654   -2.4604   -0.1125 C   0  0  0  0  0  0  0  0  0  0  0  0
  -10.8056   -3.6335   -0.6997 C   0  0  0  0  0  0  0  0  0  0  0  0
   -9.9105   -4.6599   -0.9728 C   0  0  0  0  0  0  0  0  0  0  0  0
  -10.3537   -5.9157   -1.6669 C   0  0  0  0  0  0  0  0  0  0  0  0
  -10.0874   -5.8106   -3.1697 C   0  0  0  0  0  0  0  0  0  0  0  0
   -8.5766   -4.4897   -0.6394 C   0  0  0  0  0  0  0  0  0  0  0  0
   -5.6985   -3.6835   -0.6006 C   0  0  0  0  0  0  0  0  0  0  0  0
   -5.7485   -4.2447   -2.2569 S   0  0  0  0  0  0  0  0  0  0  0  0
   -4.0153   -4.2876   -2.2824 C   0  0  0  0  0  0  0  0  0  0  0  0
   -2.9546   -4.5060   -3.1855 C   0  0  0  0  0  0  0  0  0  0  0  0
   -2.9124   -4.8928   -4.5430 C   0  0  0  0  0  0  0  0  0  0  0  0
   -1.6428   -4.9395   -5.2207 C   0  0  0  0  0  0  0  0  0  0  0  0
   -1.7577   -5.3342   -6.4786 N   0  0  0  0  0  0  0  0  0  0  0  0
   -3.3209   -5.6222   -6.7881 S   0  0  0  0  0  0  0  0  0  0  0  0
   -3.9158   -5.2499   -5.3289 N   0  0  0  0  0  0  0  0  0  0  0  0
   -0.4838   -4.4978   -4.5435 C   0  0  0  0  0  0  0  0  0  0  0  0
    0.8050   -4.1679   -5.0008 C   0  0  0  0  0  0  0  0  0  0  0  0
    1.7056   -4.1264   -6.4821 S   0  0  0  0  0  0  0  0  0  0  0  0
    2.9843   -3.2637   -5.6588 C   0  0  0  0  0  0  0  0  0  0  0  0
    4.2020   -2.7052   -6.0960 C   0  0  0  0  0  0  0  0  0  0  0  0
    4.7086   -2.7598   -7.4706 C   0  0  0  0  0  0  0  0  0  0  0  0
    6.0006   -3.2100   -7.7310 C   0  0  0  0  0  0  0  0  0  0  0  0
    6.4911   -3.1834   -9.0223 C   0  0  0  0  0  0  0  0  0  0  0  0
    5.6990   -2.7195  -10.0590 C   0  0  0  0  0  0  0  0  0  0  0  0
    4.3974   -2.2983   -9.8201 C   0  0  0  0  0  0  0  0  0  0  0  0
    3.5123   -1.8577  -10.9498 C   0  0  0  0  0  0  0  0  0  0  0  0
    2.7041   -3.0433  -11.4809 C   0  0  0  0  0  0  0  0  0  0  0  0
    3.9096   -2.3288   -8.5218 C   0  0  0  0  0  0  0  0  0  0  0  0
    4.8632   -2.0721   -5.0617 C   0  0  0  0  0  0  0  0  0  0  0  0
    4.0050   -2.1962   -3.5337 S   0  0  0  0  0  0  0  0  0  0  0  0
    2.7248   -3.0652   -4.3019 C   0  0  0  0  0  0  0  0  0  0  0  0
    1.4789   -3.5806   -3.9267 C   0  0  0  0  0  0  0  0  0  0  0  0
    0.6730   -3.5575   -2.8207 N   0  0  0  0  0  0  0  0  0  0  0  0
   -0.5389   -4.1157   -3.1754 C   0  0  0  0  0  0  0  0  0  0  0  0
   -1.7587   -4.2389   -2.4689 C   0  0  0  0  0  0  0  0  0  0  0  0
   -2.0740   -3.9465   -1.1508 N   0  0  0  0  0  0  0  0  0  0  0  0
   -3.4433   -3.9371   -1.0601 C   0  0  0  0  0  0  0  0  0  0  0  0
   -4.4040   -3.5852   -0.1044 C   0  0  0  0  0  0  0  0  0  0  0  0
   -4.3873   -2.9270    1.4863 S   0  0  0  0  0  0  0  0  0  0  0  0
   -1.2873   -4.2526    0.0262 C   0  0  0  0  0  0  0  0  0  0  0  0
   -1.7746   -5.5342    0.7025 C   0  0  0  0  0  0  0  0  0  0  0  0
    1.0246   -2.7317   -1.6879 C   0  0  0  0  0  0  0  0  0  0  0  0
    2.0843   -3.3898   -0.8049 C   0  0  0  0  0  0  0  0  0  0  0  0
    6.0270   -1.2500   -5.1049 C   0  0  0  0  0  0  0  0  0  0  0  0
    6.8113   -0.8734   -4.0542 C   0  0  0  0  0  0  0  0  0  0  0  0
    7.8466    0.0267   -4.4081 C   0  0  0  0  0  0  0  0  0  0  0  0
    8.8253    0.6104   -3.5772 C   0  0  0  0  0  0  0  0  0  0  0  0
    8.8145    0.4193   -2.1454 C   0  0  0  0  0  0  0  0  0  0  0  0
    7.7224    0.3444   -1.3243 C   0  0  0  0  0  0  0  0  0  0  0  0
    7.9854    0.1176    0.0397 C   0  0  0  0  0  0  0  0  0  0  0  0
    9.3070   -0.0120    0.3609 C   0  0  0  0  0  0  0  0  0  0  0  0
    9.8719   -0.3972    1.9704 S   0  0  0  0  0  0  0  0  0  0  0  0
   11.6592   -0.0472    1.8351 C   0  0  0  0  0  0  0  0  0  0  0  0
   11.9547    1.4386    1.8136 C   0  0  0  0  0  0  0  0  0  0  0  0
   10.4052    0.1778   -1.1601 Se  0  0  0  0  0  2  0  0  0  0  0  0
    9.7912    1.3776   -4.2236 C   0  0  0  0  0  0  0  0  0  0  0  0
    9.8073    1.6282   -5.6152 C   0  0  0  0  0  0  0  0  0  0  0  0
    8.7850    1.1055   -6.4354 C   0  0  0  0  0  0  0  0  0  0  0  0
    8.7121    1.3701   -7.8561 C   0  0  0  0  0  0  0  0  0  0  0  0
    9.0121    2.5374   -8.5020 C   0  0  0  0  0  0  0  0  0  0  0  0
    8.8843    2.5292   -9.9066 C   0  0  0  0  0  0  0  0  0  0  0  0
    8.4794    1.3365  -10.4307 C   0  0  0  0  0  0  0  0  0  0  0  0
    8.1950    0.8954  -12.0964 S   0  0  0  0  0  0  0  0  0  0  0  0
    8.3113    2.5169  -12.9463 C   0  0  0  0  0  0  0  0  0  0  0  0
    7.9094    2.3496  -14.3985 C   0  0  0  0  0  0  0  0  0  0  0  0
    8.1756    0.0440   -9.1047 Se  0  0  0  0  0  2  0  0  0  0  0  0
    7.8439    0.3051   -5.7947 C   0  0  0  0  0  0  0  0  0  0  0  0
    6.5174   -0.4799   -6.6011 S   0  0  0  0  0  0  0  0  0  0  0  0
   10.9388    2.3969   -5.9940 C   0  0  0  0  0  0  0  0  0  0  0  0
   11.7259    2.7846   -4.9539 C   0  0  0  0  0  0  0  0  0  0  0  0
   11.1204    2.1693   -3.4264 S   0  0  0  0  0  0  0  0  0  0  0  0
   12.9714    3.5246   -5.0439 C   0  0  0  0  0  0  0  0  0  0  0  0
   13.8339    3.2151   -6.0837 C   0  0  0  0  0  0  0  0  0  0  0  0
   15.0679    3.8400   -6.2174 C   0  0  0  0  0  0  0  0  0  0  0  0
   15.4759    4.7854   -5.2976 C   0  0  0  0  0  0  0  0  0  0  0  0
   16.7986    5.4117   -5.4410 C   0  0  0  0  0  0  0  0  0  0  0  0
   17.5582    5.1402   -6.3494 O   0  0  0  0  0  0  0  0  0  0  0  0
   17.1510    6.3379   -4.4732 N   0  0  0  0  0  0  0  0  0  0  0  0
   18.4626    6.9657   -4.5977 C   0  0  0  0  0  0  0  0  0  0  0  0
   18.3806    8.2502   -5.4122 C   0  0  0  0  0  0  0  0  0  0  0  0
   16.3528    6.7559   -3.4227 C   0  0  0  0  0  0  0  0  0  0  0  0
   16.7473    7.5946   -2.6374 O   0  0  0  0  0  0  0  0  0  0  0  0
   15.0241    6.1294   -3.3131 C   0  0  0  0  0  0  0  0  0  0  0  0
   14.1778    6.5207   -2.2971 C   0  0  0  0  0  0  0  0  0  0  0  0
   12.9044    5.9607   -2.1962 C   0  0  0  0  0  0  0  0  0  0  0  0
   12.4937    4.9966   -3.0814 C   0  0  0  0  0  0  0  0  0  0  0  0
   13.3421    4.5360   -4.1084 C   0  0  0  0  0  0  0  0  0  0  0  0
   14.6182    5.1463   -4.2393 C   0  0  0  0  0  0  0  0  0  0  0  0
   -9.0701    4.8683   14.8367 H   0  0  0  0  0  0  0  0  0  0  0  0
   -7.7809    4.2982   13.7699 H   0  0  0  0  0  0  0  0  0  0  0  0
   -8.8714    3.1359   14.5464 H   0  0  0  0  0  0  0  0  0  0  0  0
   -9.6756    5.2029   12.4389 H   0  0  0  0  0  0  0  0  0  0  0  0
  -10.7798    4.0304   13.2224 H   0  0  0  0  0  0  0  0  0  0  0  0
   -6.8241    3.8846    8.8954 H   0  0  0  0  0  0  0  0  0  0  0  0
   -6.3948    2.2929    7.0540 H   0  0  0  0  0  0  0  0  0  0  0  0
   -8.9541   -1.6060    8.2001 H   0  0  0  0  0  0  0  0  0  0  0  0
  -10.4995   -2.1439   10.0171 H   0  0  0  0  0  0  0  0  0  0  0  0
  -10.9929   -0.4616   11.7779 H   0  0  0  0  0  0  0  0  0  0  0  0
   -5.8919    1.7504    4.0402 H   0  0  0  0  0  0  0  0  0  0  0  0
   -5.2207    2.9140    1.9908 H   0  0  0  0  0  0  0  0  0  0  0  0
   -5.7283    4.6946    0.3573 H   0  0  0  0  0  0  0  0  0  0  0  0
   -6.8589    3.6889   -0.5453 H   0  0  0  0  0  0  0  0  0  0  0  0
   -7.3970    5.2332    0.1114 H   0  0  0  0  0  0  0  0  0  0  0  0
   -9.2258    4.2723    1.4414 H   0  0  0  0  0  0  0  0  0  0  0  0
   -9.9116    3.0834    3.4787 H   0  0  0  0  0  0  0  0  0  0  0  0
  -10.3113    0.3995    6.3397 H   0  0  0  0  0  0  0  0  0  0  0  0
  -11.7591    1.3854    8.0550 H   0  0  0  0  0  0  0  0  0  0  0  0
  -12.6785    4.3880    8.5486 H   0  0  0  0  0  0  0  0  0  0  0  0
  -11.2295    4.7279    9.4912 H   0  0  0  0  0  0  0  0  0  0  0  0
  -12.0743    3.1836    9.6865 H   0  0  0  0  0  0  0  0  0  0  0  0
   -9.9333    5.1857    7.4186 H   0  0  0  0  0  0  0  0  0  0  0  0
   -8.4725    4.2023    5.7097 H   0  0  0  0  0  0  0  0  0  0  0  0
   -4.1866   -5.6931    3.3323 H   0  0  0  0  0  0  0  0  0  0  0  0
   -4.6403   -7.4837    1.7068 H   0  0  0  0  0  0  0  0  0  0  0  0
   -8.0419   -8.2430    0.3469 H   0  0  0  0  0  0  0  0  0  0  0  0
   -6.5110   -9.0205    0.7738 H   0  0  0  0  0  0  0  0  0  0  0  0
   -6.5499   -7.7889   -0.4825 H   0  0  0  0  0  0  0  0  0  0  0  0
   -8.7394   -6.3074    1.5588 H   0  0  0  0  0  0  0  0  0  0  0  0
   -8.2828   -4.5009    3.1430 H   0  0  0  0  0  0  0  0  0  0  0  0
   -5.7355   -6.0527    5.7240 H   0  0  0  0  0  0  0  0  0  0  0  0
   -4.2238   -6.3511    7.6356 H   0  0  0  0  0  0  0  0  0  0  0  0
   -2.2178   -5.6276    8.8321 H   0  0  0  0  0  0  0  0  0  0  0  0
   -2.9309   -4.1875    9.5559 H   0  0  0  0  0  0  0  0  0  0  0  0
   -1.5113   -4.0334    8.5245 H   0  0  0  0  0  0  0  0  0  0  0  0
   -2.6674   -2.4279    7.0250 H   0  0  0  0  0  0  0  0  0  0  0  0
   -4.1479   -2.1378    5.0909 H   0  0  0  0  0  0  0  0  0  0  0  0
   -8.6937   -1.3662    0.6422 H   0  0  0  0  0  0  0  0  0  0  0  0
  -11.0648   -1.6614    0.0856 H   0  0  0  0  0  0  0  0  0  0  0  0
  -11.8493   -3.7512   -0.9540 H   0  0  0  0  0  0  0  0  0  0  0  0
   -9.8060   -6.7720   -1.2672 H   0  0  0  0  0  0  0  0  0  0  0  0
  -11.4196   -6.0804   -1.4971 H   0  0  0  0  0  0  0  0  0  0  0  0
   -9.0278   -5.6492   -3.3548 H   0  0  0  0  0  0  0  0  0  0  0  0
  -10.6391   -4.9743   -3.5930 H   0  0  0  0  0  0  0  0  0  0  0  0
  -10.3957   -6.7224   -3.6761 H   0  0  0  0  0  0  0  0  0  0  0  0
   -7.8765   -5.2869   -0.8388 H   0  0  0  0  0  0  0  0  0  0  0  0
    6.6151   -3.5705   -6.9185 H   0  0  0  0  0  0  0  0  0  0  0  0
    7.4976   -3.5220   -9.2220 H   0  0  0  0  0  0  0  0  0  0  0  0
    6.0958   -2.6846  -11.0635 H   0  0  0  0  0  0  0  0  0  0  0  0
    2.8268   -1.0821  -10.6024 H   0  0  0  0  0  0  0  0  0  0  0  0
    4.1208   -1.4425  -11.7555 H   0  0  0  0  0  0  0  0  0  0  0  0
    2.0530   -2.7276  -12.2928 H   0  0  0  0  0  0  0  0  0  0  0  0
    3.3706   -3.8190  -11.8511 H   0  0  0  0  0  0  0  0  0  0  0  0
    2.0920   -3.4682  -10.6885 H   0  0  0  0  0  0  0  0  0  0  0  0
    2.9043   -1.9884   -8.3181 H   0  0  0  0  0  0  0  0  0  0  0  0
   -1.3594   -3.4161    0.7296 H   0  0  0  0  0  0  0  0  0  0  0  0
   -0.2532   -4.3953   -0.2715 H   0  0  0  0  0  0  0  0  0  0  0  0
   -1.7435   -6.3645   -0.0003 H   0  0  0  0  0  0  0  0  0  0  0  0
   -1.1308   -5.7657    1.5470 H   0  0  0  0  0  0  0  0  0  0  0  0
   -2.7928   -5.4222    1.0645 H   0  0  0  0  0  0  0  0  0  0  0  0
    0.1222   -2.4910   -1.1273 H   0  0  0  0  0  0  0  0  0  0  0  0
    1.4354   -1.7931   -2.0775 H   0  0  0  0  0  0  0  0  0  0  0  0
    2.2595   -2.7785    0.0757 H   0  0  0  0  0  0  0  0  0  0  0  0
    3.0189   -3.4827   -1.3511 H   0  0  0  0  0  0  0  0  0  0  0  0
    1.7820   -4.3850   -0.4864 H   0  0  0  0  0  0  0  0  0  0  0  0
    6.6740   -1.2687   -3.0638 H   0  0  0  0  0  0  0  0  0  0  0  0
    6.7221    0.5096   -1.6877 H   0  0  0  0  0  0  0  0  0  0  0  0
    7.2078    0.0551    0.7812 H   0  0  0  0  0  0  0  0  0  0  0  0
   12.1017   -0.5278    2.7071 H   0  0  0  0  0  0  0  0  0  0  0  0
   12.0177   -0.5459    0.9290 H   0  0  0  0  0  0  0  0  0  0  0  0
   11.4928    1.9097    0.9456 H   0  0  0  0  0  0  0  0  0  0  0  0
   13.0291    1.5999    1.7601 H   0  0  0  0  0  0  0  0  0  0  0  0
   11.5714    1.9145    2.7131 H   0  0  0  0  0  0  0  0  0  0  0  0
    9.2800    3.4359   -7.9712 H   0  0  0  0  0  0  0  0  0  0  0  0
    9.0923    3.4035  -10.4983 H   0  0  0  0  0  0  0  0  0  0  0  0
    9.3414    2.8630  -12.8604 H   0  0  0  0  0  0  0  0  0  0  0  0
    7.6412    3.2021  -12.4273 H   0  0  0  0  0  0  0  0  0  0  0  0
    7.9755    3.3065  -14.9117 H   0  0  0  0  0  0  0  0  0  0  0  0
    6.8879    1.9836  -14.4703 H   0  0  0  0  0  0  0  0  0  0  0  0
    8.5659    1.6398  -14.8961 H   0  0  0  0  0  0  0  0  0  0  0  0
   11.1548    2.6580   -7.0136 H   0  0  0  0  0  0  0  0  0  0  0  0
   13.5517    2.4480   -6.7889 H   0  0  0  0  0  0  0  0  0  0  0  0
   15.7332    3.5821   -7.0274 H   0  0  0  0  0  0  0  0  0  0  0  0
   19.1216    6.2464   -5.0868 H   0  0  0  0  0  0  0  0  0  0  0  0
   18.8190    7.1794   -3.5883 H   0  0  0  0  0  0  0  0  0  0  0  0
   18.0100    8.0370   -6.4123 H   0  0  0  0  0  0  0  0  0  0  0  0
   19.3677    8.6966   -5.4923 H   0  0  0  0  0  0  0  0  0  0  0  0
   17.7138    8.9591   -4.9269 H   0  0  0  0  0  0  0  0  0  0  0  0
   14.5145    7.2740   -1.6010 H   0  0  0  0  0  0  0  0  0  0  0  0
   12.2358    6.2953   -1.4175 H   0  0  0  0  0  0  0  0  0  0  0  0
   11.4965    4.5959   -2.9964 H   0  0  0  0  0  0  0  0  0  0  0  0
  1  2  1  0  0  0  0
  2  3  1  0  0  0  0
  3  4  1  0  0  0  0
  4  5  2  0  0  0  0
  4  6  1  0  0  0  0
  6  7  1  0  0  0  0
  7  8  2  0  0  0  0
  8  9  1  0  0  0  0
  9 10  2  0  0  0  0
 10 11  1  0  0  0  0
 11 12  2  0  0  0  0
 12 13  1  0  0  0  0
 13 14  2  0  0  0  0
 14 15  1  0  0  0  0
 14 16  1  0  0  0  0
 16 17  2  0  0  0  0
  9 18  1  0  0  0  0
 18 19  2  0  0  0  0
 19 20  1  0  0  0  0
 20 21  1  0  0  0  0
 21 22  2  0  0  0  0
 22 23  1  0  0  0  0
 23 24  2  0  0  0  0
 24 25  1  0  0  0  0
 24 26  1  0  0  0  0
 26 27  2  0  0  0  0
 20 28  1  0  0  0  0
 28 29  2  0  0  0  0
 29 30  1  0  0  0  0
 30 31  2  0  0  0  0
 31 32  1  0  0  0  0
 31 33  1  0  0  0  0
 33 34  2  0  0  0  0
 19 35  1  0  0  0  0
 35 36  1  0  0  0  0
 36 37  1  0  0  0  0
 37 38  2  0  0  0  0
 38 39  1  0  0  0  0
 39 40  1  0  0  0  0
 40 41  2  0  0  0  0
 41 42  1  0  0  0  0
 42 43  2  0  0  0  0
 43 44  1  0  0  0  0
 43 45  1  0  0  0  0
 45 46  2  0  0  0  0
 39 47  1  0  0  0  0
 47 48  2  0  0  0  0
 48 49  1  0  0  0  0
 49 50  2  0  0  0  0
 50 51  1  0  0  0  0
 50 52  1  0  0  0  0
 52 53  2  0  0  0  0
 38 54  1  0  0  0  0
 54 55  1  0  0  0  0
 37 56  1  0  0  0  0
 56 57  2  0  0  0  0
 57 58  1  0  0  0  0
 58 59  2  0  0  0  0
 59 60  1  0  0  0  0
 60 61  2  0  0  0  0
 61 62  1  0  0  0  0
 62 63  1  0  0  0  0
 63 64  1  0  0  0  0
 62 65  2  0  0  0  0
 57 66  1  0  0  0  0
 66 67  1  0  0  0  0
 67 68  1  0  0  0  0
 68 69  1  0  0  0  0
 69 70  1  0  0  0  0
 70 71  1  0  0  0  0
 71 72  2  0  0  0  0
 72 73  1  0  0  0  0
 73 74  1  0  0  0  0
 71 75  1  0  0  0  0
 75 76  1  0  0  0  0
 76 77  1  0  0  0  0
 77 78  1  0  0  0  0
 78 79  1  0  0  0  0
 79 80  1  0  0  0  0
 80 81  2  0  0  0  0
 81 82  1  0  0  0  0
 82 83  2  0  0  0  0
 83 84  1  0  0  0  0
 84 85  1  0  0  0  0
 85 86  1  0  0  0  0
 84 87  2  0  0  0  0
 79 88  2  0  0  0  0
 88 89  1  0  0  0  0
 89 90  1  0  0  0  0
 90 91  1  0  0  0  0
 91 92  1  0  0  0  0
 92 93  1  0  0  0  0
 93 94  1  0  0  0  0
 94 95  1  0  0  0  0
 95 96  1  0  0  0  0
 96 97  1  0  0  0  0
 97 98  1  0  0  0  0
 95 99  1  0  0  0  0
 99100  1  0  0  0  0
 92101  1  0  0  0  0
101102  1  0  0  0  0
 88103  1  0  0  0  0
103104  2  0  0  0  0
104105  1  0  0  0  0
105106  2  0  0  0  0
106107  1  0  0  0  0
107108  2  0  0  0  0
108109  1  0  0  0  0
109110  2  0  0  0  0
110111  1  0  0  0  0
111112  1  0  0  0  0
112113  1  0  0  0  0
110114  1  0  0  0  0
106115  1  0  0  0  0
115116  2  0  0  0  0
116117  1  0  0  0  0
117118  1  0  0  0  0
118119  2  0  0  0  0
119120  1  0  0  0  0
120121  2  0  0  0  0
121122  1  0  0  0  0
122123  1  0  0  0  0
123124  1  0  0  0  0
121125  1  0  0  0  0
117126  2  0  0  0  0
126127  1  0  0  0  0
116128  1  0  0  0  0
128129  2  0  0  0  0
129130  1  0  0  0  0
129131  1  0  0  0  0
131132  2  0  0  0  0
132133  1  0  0  0  0
133134  2  0  0  0  0
134135  1  0  0  0  0
135136  2  0  0  0  0
135137  1  0  0  0  0
137138  1  0  0  0  0
138139  1  0  0  0  0
137140  1  0  0  0  0
140141  2  0  0  0  0
140142  1  0  0  0  0
142143  1  0  0  0  0
143144  2  0  0  0  0
144145  1  0  0  0  0
145146  2  0  0  0  0
146147  1  0  0  0  0
 16  3  1  0  0  0  0
 55 18  1  0  0  0  0
 98 56  1  0  0  0  0
127103  1  0  0  0  0
146131  1  0  0  0  0
 15  6  2  0  0  0  0
 27 21  1  0  0  0  0
 34 28  1  0  0  0  0
 54 35  2  0  0  0  0
 65 58  1  0  0  0  0
 97 66  2  0  0  0  0
126105  1  0  0  0  0
147134  1  0  0  0  0
 15 10  1  0  0  0  0
 46 40  1  0  0  0  0
 53 47  1  0  0  0  0
 96 68  2  0  0  0  0
114107  1  0  0  0  0
130115  1  0  0  0  0
147142  2  0  0  0  0
 94 69  2  0  0  0  0
125118  1  0  0  0  0
 74 70  2  0  0  0  0
 93 75  2  0  0  0  0
 91 76  2  0  0  0  0
 90 78  2  0  0  0  0
 87 80  1  0  0  0  0
  1148  1  0  0  0  0
  1149  1  0  0  0  0
  1150  1  0  0  0  0
  2151  1  0  0  0  0
  2152  1  0  0  0  0
  7153  1  0  0  0  0
  8154  1  0  0  0  0
 11155  1  0  0  0  0
 12156  1  0  0  0  0
 13157  1  0  0  0  0
 22158  1  0  0  0  0
 23159  1  0  0  0  0
 25160  1  0  0  0  0
 25161  1  0  0  0  0
 25162  1  0  0  0  0
 26163  1  0  0  0  0
 27164  1  0  0  0  0
 29165  1  0  0  0  0
 30166  1  0  0  0  0
 32167  1  0  0  0  0
 32168  1  0  0  0  0
 32169  1  0  0  0  0
 33170  1  0  0  0  0
 34171  1  0  0  0  0
 41172  1  0  0  0  0
 42173  1  0  0  0  0
 44174  1  0  0  0  0
 44175  1  0  0  0  0
 44176  1  0  0  0  0
 45177  1  0  0  0  0
 46178  1  0  0  0  0
 48179  1  0  0  0  0
 49180  1  0  0  0  0
 51181  1  0  0  0  0
 51182  1  0  0  0  0
 51183  1  0  0  0  0
 52184  1  0  0  0  0
 53185  1  0  0  0  0
 59186  1  0  0  0  0
 60187  1  0  0  0  0
 61188  1  0  0  0  0
 63189  1  0  0  0  0
 63190  1  0  0  0  0
 64191  1  0  0  0  0
 64192  1  0  0  0  0
 64193  1  0  0  0  0
 65194  1  0  0  0  0
 81195  1  0  0  0  0
 82196  1  0  0  0  0
 83197  1  0  0  0  0
 85198  1  0  0  0  0
 85199  1  0  0  0  0
 86200  1  0  0  0  0
 86201  1  0  0  0  0
 86202  1  0  0  0  0
 87203  1  0  0  0  0
 99204  1  0  0  0  0
 99205  1  0  0  0  0
100206  1  0  0  0  0
100207  1  0  0  0  0
100208  1  0  0  0  0
101209  1  0  0  0  0
101210  1  0  0  0  0
102211  1  0  0  0  0
102212  1  0  0  0  0
102213  1  0  0  0  0
104214  1  0  0  0  0
108215  1  0  0  0  0
109216  1  0  0  0  0
112217  1  0  0  0  0
112218  1  0  0  0  0
113219  1  0  0  0  0
113220  1  0  0  0  0
113221  1  0  0  0  0
119222  1  0  0  0  0
120223  1  0  0  0  0
123224  1  0  0  0  0
123225  1  0  0  0  0
124226  1  0  0  0  0
124227  1  0  0  0  0
124228  1  0  0  0  0
128229  1  0  0  0  0
132230  1  0  0  0  0
133231  1  0  0  0  0
138232  1  0  0  0  0
138233  1  0  0  0  0
139234  1  0  0  0  0
139235  1  0  0  0  0
139236  1  0  0  0  0
143237  1  0  0  0  0
144238  1  0  0  0  0
145239  1  0  0  0  0
M  END
