
  xtb     02052216233D
 energy: -243.870209899520 gnorm: 0.000278969694 xtb: 6.4.1 (unknown)
130143  0     0  0            999 V2000
   -1.4476    3.8905   10.0075 C   0  0  0  0  0  0  0  0  0  0  0  0
   -0.2335    4.3125   10.4527 C   0  0  0  0  0  0  0  0  0  0  0  0
    0.9898    4.3661    9.6040 C   0  0  0  0  0  0  0  0  0  0  0  0
    1.0909    4.1113    8.4248 O   0  0  0  0  0  0  0  0  0  0  0  0
    2.0971    4.6615   10.5343 C   0  0  0  0  0  0  0  0  0  0  0  0
    3.4418    4.8064   10.2491 C   0  0  0  0  0  0  0  0  0  0  0  0
    4.3138    5.0770   11.2910 C   0  0  0  0  0  0  0  0  0  0  0  0
    3.8214    5.1847   12.5855 C   0  0  0  0  0  0  0  0  0  0  0  0
    5.0389    5.5441   13.9989 Br  0  0  0  0  0  0  0  0  0  0  0  0
    2.4738    5.0363   12.8901 C   0  0  0  0  0  0  0  0  0  0  0  0
    1.6026    4.7734   11.8452 C   0  0  0  0  0  0  0  0  0  0  0  0
    0.1544    4.5722   11.8255 C   0  0  0  0  0  0  0  0  0  0  0  0
   -0.6854    4.6846   12.9001 C   0  0  0  0  0  0  0  0  0  0  0  0
   -0.2565    4.9715   14.2136 C   0  0  0  0  0  0  0  0  0  0  0  0
    0.0350    5.1962   15.3007 N   0  0  0  0  0  0  0  0  0  0  0  0
   -2.0893    4.5466   12.8439 C   0  0  0  0  0  0  0  0  0  0  0  0
   -3.2334    4.4610   12.8808 N   0  0  0  0  0  0  0  0  0  0  0  0
   -1.8033    3.7802    8.6244 C   0  0  0  0  0  0  0  0  0  0  0  0
   -1.4329    4.7116    7.6593 C   0  0  0  0  0  0  0  0  0  0  0  0
   -0.8536    5.8604    8.0311 F   0  0  0  0  0  0  0  0  0  0  0  0
   -1.7072    4.5424    6.3054 C   0  0  0  0  0  0  0  0  0  0  0  0
   -1.3070    5.5263    5.4781 F   0  0  0  0  0  0  0  0  0  0  0  0
   -2.3514    3.4095    5.8074 C   0  0  0  0  0  0  0  0  0  0  0  0
   -2.8377    2.4976    6.7952 C   0  0  0  0  0  0  0  0  0  0  0  0
   -3.5366    1.4355    6.3851 N   0  0  0  0  0  0  0  0  0  0  0  0
   -3.9958    0.5663    7.2527 C   0  0  0  0  0  0  0  0  0  0  0  0
   -4.8150   -0.5540    6.6925 C   0  0  0  0  0  0  0  0  0  0  0  0
   -6.2846   -0.1319    6.6088 C   0  0  0  0  0  0  0  0  0  0  0  0
   -3.7459    0.7561    8.6403 C   0  0  0  0  0  0  0  0  0  0  0  0
   -3.0510    1.7857    9.0624 N   0  0  0  0  0  0  0  0  0  0  0  0
   -2.5885    2.6810    8.1753 C   0  0  0  0  0  0  0  0  0  0  0  0
   -4.1969   -0.2094    9.6927 C   0  0  0  0  0  0  0  0  0  0  0  0
   -3.1550   -1.3176    9.8702 C   0  0  0  0  0  0  0  0  0  0  0  0
   -2.4953    3.0941    4.4272 C   0  0  0  0  0  0  0  0  0  0  0  0
   -3.2818    1.5889    3.9586 S   0  0  0  0  0  0  0  0  0  0  0  0
   -2.8626    1.8832    2.3058 C   0  0  0  0  0  0  0  0  0  0  0  0
   -2.8825    1.2884    1.0472 C   0  0  0  0  0  0  0  0  0  0  0  0
   -3.3837   -0.1861    0.2718 S   0  0  0  0  0  0  0  0  0  0  0  0
   -2.6027    0.3382   -1.2004 C   0  0  0  0  0  0  0  0  0  0  0  0
   -2.0237    1.6112   -1.1008 C   0  0  0  0  0  0  0  0  0  0  0  0
   -2.1898    2.1594    0.1727 C   0  0  0  0  0  0  0  0  0  0  0  0
   -1.7645    3.2627    0.8510 N   0  0  0  0  0  0  0  0  0  0  0  0
   -2.1680    3.1087    2.1526 C   0  0  0  0  0  0  0  0  0  0  0  0
   -1.9761    3.7911    3.3463 C   0  0  0  0  0  0  0  0  0  0  0  0
   -1.1012    4.4079    0.2824 C   0  0  0  0  0  0  0  0  0  0  0  0
   -2.1064    5.4518   -0.1984 C   0  0  0  0  0  0  0  0  0  0  0  0
   -1.1408    2.0953   -2.5262 S   0  0  0  0  0  0  0  0  0  0  0  0
   -1.4987    0.5554   -3.2440 C   0  0  0  0  0  0  0  0  0  0  0  0
   -1.1607   -0.1989   -4.3626 C   0  0  0  0  0  0  0  0  0  0  0  0
   -1.8014   -1.4519   -4.2076 C   0  0  0  0  0  0  0  0  0  0  0  0
   -2.5268   -1.4653   -3.0418 N   0  0  0  0  0  0  0  0  0  0  0  0
   -3.2263   -2.5908   -2.4759 C   0  0  0  0  0  0  0  0  0  0  0  0
   -2.3043   -3.4483   -1.6123 C   0  0  0  0  0  0  0  0  0  0  0  0
   -2.3155   -0.2635   -2.4293 C   0  0  0  0  0  0  0  0  0  0  0  0
   -1.4828   -2.3587   -5.2123 C   0  0  0  0  0  0  0  0  0  0  0  0
   -0.5829   -1.8220   -6.1228 C   0  0  0  0  0  0  0  0  0  0  0  0
   -0.1522   -0.1593   -5.7605 S   0  0  0  0  0  0  0  0  0  0  0  0
    0.0815   -2.4820   -7.1974 C   0  0  0  0  0  0  0  0  0  0  0  0
   -0.1837   -3.7950   -7.5874 C   0  0  0  0  0  0  0  0  0  0  0  0
   -1.2175   -4.4750   -7.0538 F   0  0  0  0  0  0  0  0  0  0  0  0
    0.6122   -4.4820   -8.5002 C   0  0  0  0  0  0  0  0  0  0  0  0
    0.3124   -5.7638   -8.7632 F   0  0  0  0  0  0  0  0  0  0  0  0
    1.7519   -3.9235   -9.0588 C   0  0  0  0  0  0  0  0  0  0  0  0
    1.9805   -2.5425   -8.7897 C   0  0  0  0  0  0  0  0  0  0  0  0
    2.9706   -1.9079   -9.4332 N   0  0  0  0  0  0  0  0  0  0  0  0
    3.1974   -0.6446   -9.1872 C   0  0  0  0  0  0  0  0  0  0  0  0
    4.3705   -0.0433   -9.8994 C   0  0  0  0  0  0  0  0  0  0  0  0
    5.6256   -0.1574   -9.0294 C   0  0  0  0  0  0  0  0  0  0  0  0
    2.3723    0.0798   -8.2767 C   0  0  0  0  0  0  0  0  0  0  0  0
    1.3772   -0.5258   -7.6757 N   0  0  0  0  0  0  0  0  0  0  0  0
    1.1517   -1.8303   -7.8928 C   0  0  0  0  0  0  0  0  0  0  0  0
    2.5940    1.5458   -8.0588 C   0  0  0  0  0  0  0  0  0  0  0  0
    1.6451    2.1927   -7.0624 C   0  0  0  0  0  0  0  0  0  0  0  0
    2.6451   -4.6653   -9.8986 C   0  0  0  0  0  0  0  0  0  0  0  0
    3.9953   -4.5159   -9.8410 C   0  0  0  0  0  0  0  0  0  0  0  0
    4.7140   -3.9467   -8.6667 C   0  0  0  0  0  0  0  0  0  0  0  0
    4.2453   -3.5189   -7.6342 O   0  0  0  0  0  0  0  0  0  0  0  0
    6.1476   -4.1491   -8.9527 C   0  0  0  0  0  0  0  0  0  0  0  0
    7.2381   -3.8121   -8.1719 C   0  0  0  0  0  0  0  0  0  0  0  0
    8.5064   -4.1273   -8.6305 C   0  0  0  0  0  0  0  0  0  0  0  0
    8.6578   -4.7817   -9.8486 C   0  0  0  0  0  0  0  0  0  0  0  0
   10.2424   -5.1774  -10.3948 Cl  0  0  0  0  0  0  0  0  0  0  0  0
    7.5691   -5.1329  -10.6408 C   0  0  0  0  0  0  0  0  0  0  0  0
    6.3023   -4.8078  -10.1847 C   0  0  0  0  0  0  0  0  0  0  0  0
    4.9817   -5.0269  -10.7722 C   0  0  0  0  0  0  0  0  0  0  0  0
    4.7328   -5.5275  -12.0211 C   0  0  0  0  0  0  0  0  0  0  0  0
    5.7331   -5.9713  -12.9121 C   0  0  0  0  0  0  0  0  0  0  0  0
    6.5002   -6.3486  -13.6778 N   0  0  0  0  0  0  0  0  0  0  0  0
    3.4497   -5.6350  -12.6007 C   0  0  0  0  0  0  0  0  0  0  0  0
    2.4452   -5.7317  -13.1472 N   0  0  0  0  0  0  0  0  0  0  0  0
   -2.1961    3.5379   10.7044 H   0  0  0  0  0  0  0  0  0  0  0  0
    3.7934    4.7141    9.2334 H   0  0  0  0  0  0  0  0  0  0  0  0
    5.3695    5.2035   11.1070 H   0  0  0  0  0  0  0  0  0  0  0  0
    2.1385    5.1225   13.9108 H   0  0  0  0  0  0  0  0  0  0  0  0
   -4.4515   -0.7657    5.6865 H   0  0  0  0  0  0  0  0  0  0  0  0
   -4.7188   -1.4502    7.3042 H   0  0  0  0  0  0  0  0  0  0  0  0
   -6.3819    0.7385    5.9651 H   0  0  0  0  0  0  0  0  0  0  0  0
   -6.8811   -0.9403    6.1944 H   0  0  0  0  0  0  0  0  0  0  0  0
   -6.6751    0.1200    7.5925 H   0  0  0  0  0  0  0  0  0  0  0  0
   -5.1614   -0.6430    9.4301 H   0  0  0  0  0  0  0  0  0  0  0  0
   -4.2967    0.3367   10.6311 H   0  0  0  0  0  0  0  0  0  0  0  0
   -3.4777   -2.0122   10.6414 H   0  0  0  0  0  0  0  0  0  0  0  0
   -3.0085   -1.8697    8.9442 H   0  0  0  0  0  0  0  0  0  0  0  0
   -2.2019   -0.8867   10.1664 H   0  0  0  0  0  0  0  0  0  0  0  0
   -1.4630    4.7293    3.4321 H   0  0  0  0  0  0  0  0  0  0  0  0
   -0.4472    4.8364    1.0459 H   0  0  0  0  0  0  0  0  0  0  0  0
   -0.4888    4.0648   -0.5559 H   0  0  0  0  0  0  0  0  0  0  0  0
   -1.5821    6.3072   -0.6143 H   0  0  0  0  0  0  0  0  0  0  0  0
   -2.7264    5.7889    0.6291 H   0  0  0  0  0  0  0  0  0  0  0  0
   -2.7491    5.0294   -0.9671 H   0  0  0  0  0  0  0  0  0  0  0  0
   -3.6349   -3.1837   -3.2979 H   0  0  0  0  0  0  0  0  0  0  0  0
   -4.0529   -2.2079   -1.8711 H   0  0  0  0  0  0  0  0  0  0  0  0
   -1.9151   -2.8636   -0.7823 H   0  0  0  0  0  0  0  0  0  0  0  0
   -2.8540   -4.2955   -1.2129 H   0  0  0  0  0  0  0  0  0  0  0  0
   -1.4690   -3.8181   -2.2022 H   0  0  0  0  0  0  0  0  0  0  0  0
   -1.8566   -3.3630   -5.2608 H   0  0  0  0  0  0  0  0  0  0  0  0
    4.5277   -0.6065  -10.8203 H   0  0  0  0  0  0  0  0  0  0  0  0
    4.1838    1.0011  -10.1495 H   0  0  0  0  0  0  0  0  0  0  0  0
    5.5117    0.3986   -8.1018 H   0  0  0  0  0  0  0  0  0  0  0  0
    5.8109   -1.1994   -8.7815 H   0  0  0  0  0  0  0  0  0  0  0  0
    6.4875    0.2330   -9.5643 H   0  0  0  0  0  0  0  0  0  0  0  0
    3.6258    1.6935   -7.7300 H   0  0  0  0  0  0  0  0  0  0  0  0
    2.4928    2.0431   -9.0291 H   0  0  0  0  0  0  0  0  0  0  0  0
    0.6139    2.0421   -7.3660 H   0  0  0  0  0  0  0  0  0  0  0  0
    1.7755    1.7611   -6.0752 H   0  0  0  0  0  0  0  0  0  0  0  0
    1.8433    3.2604   -7.0067 H   0  0  0  0  0  0  0  0  0  0  0  0
    2.1971   -5.3723  -10.5850 H   0  0  0  0  0  0  0  0  0  0  0  0
    7.0930   -3.3131   -7.2260 H   0  0  0  0  0  0  0  0  0  0  0  0
    9.3796   -3.8749   -8.0500 H   0  0  0  0  0  0  0  0  0  0  0  0
    7.7292   -5.6482  -11.5735 H   0  0  0  0  0  0  0  0  0  0  0  0
  1  2  2  0  0  0  0
  2  3  1  0  0  0  0
  3  4  2  0  0  0  0
  3  5  1  0  0  0  0
  5  6  2  0  0  0  0
  6  7  1  0  0  0  0
  7  8  2  0  0  0  0
  8  9  1  0  0  0  0
  8 10  1  0  0  0  0
 10 11  2  0  0  0  0
 11 12  1  0  0  0  0
 12 13  2  0  0  0  0
 13 14  1  0  0  0  0
 14 15  3  0  0  0  0
 13 16  1  0  0  0  0
 16 17  3  0  0  0  0
  1 18  1  0  0  0  0
 18 19  2  0  0  0  0
 19 20  1  0  0  0  0
 19 21  1  0  0  0  0
 21 22  1  0  0  0  0
 21 23  2  0  0  0  0
 23 24  1  0  0  0  0
 24 25  2  0  0  0  0
 25 26  1  0  0  0  0
 26 27  1  0  0  0  0
 27 28  1  0  0  0  0
 26 29  2  0  0  0  0
 29 30  1  0  0  0  0
 30 31  2  0  0  0  0
 29 32  1  0  0  0  0
 32 33  1  0  0  0  0
 23 34  1  0  0  0  0
 34 35  1  0  0  0  0
 35 36  1  0  0  0  0
 36 37  1  0  0  0  0
 37 38  1  0  0  0  0
 38 39  1  0  0  0  0
 39 40  2  0  0  0  0
 40 41  1  0  0  0  0
 41 42  1  0  0  0  0
 42 43  1  0  0  0  0
 43 44  1  0  0  0  0
 42 45  1  0  0  0  0
 45 46  1  0  0  0  0
 40 47  1  0  0  0  0
 47 48  1  0  0  0  0
 48 49  1  0  0  0  0
 49 50  2  0  0  0  0
 50 51  1  0  0  0  0
 51 52  1  0  0  0  0
 52 53  1  0  0  0  0
 51 54  1  0  0  0  0
 50 55  1  0  0  0  0
 55 56  2  0  0  0  0
 56 57  1  0  0  0  0
 56 58  1  0  0  0  0
 58 59  2  0  0  0  0
 59 60  1  0  0  0  0
 59 61  1  0  0  0  0
 61 62  1  0  0  0  0
 61 63  2  0  0  0  0
 63 64  1  0  0  0  0
 64 65  2  0  0  0  0
 65 66  1  0  0  0  0
 66 67  1  0  0  0  0
 67 68  1  0  0  0  0
 66 69  2  0  0  0  0
 69 70  1  0  0  0  0
 70 71  2  0  0  0  0
 69 72  1  0  0  0  0
 72 73  1  0  0  0  0
 63 74  1  0  0  0  0
 74 75  2  0  0  0  0
 75 76  1  0  0  0  0
 76 77  2  0  0  0  0
 76 78  1  0  0  0  0
 78 79  2  0  0  0  0
 79 80  1  0  0  0  0
 80 81  2  0  0  0  0
 81 82  1  0  0  0  0
 81 83  1  0  0  0  0
 83 84  2  0  0  0  0
 84 85  1  0  0  0  0
 85 86  2  0  0  0  0
 86 87  1  0  0  0  0
 87 88  3  0  0  0  0
 86 89  1  0  0  0  0
 89 90  3  0  0  0  0
 12  2  1  0  0  0  0
 31 18  1  0  0  0  0
 44 34  2  0  0  0  0
 54 48  2  0  0  0  0
 71 58  1  0  0  0  0
 85 75  1  0  0  0  0
 11  5  1  0  0  0  0
 31 24  1  0  0  0  0
 43 36  2  0  0  0  0
 57 49  1  0  0  0  0
 71 64  1  0  0  0  0
 84 78  1  0  0  0  0
 41 37  2  0  0  0  0
 54 39  1  0  0  0  0
  1 91  1  0  0  0  0
  6 92  1  0  0  0  0
  7 93  1  0  0  0  0
 10 94  1  0  0  0  0
 27 95  1  0  0  0  0
 27 96  1  0  0  0  0
 28 97  1  0  0  0  0
 28 98  1  0  0  0  0
 28 99  1  0  0  0  0
 32100  1  0  0  0  0
 32101  1  0  0  0  0
 33102  1  0  0  0  0
 33103  1  0  0  0  0
 33104  1  0  0  0  0
 44105  1  0  0  0  0
 45106  1  0  0  0  0
 45107  1  0  0  0  0
 46108  1  0  0  0  0
 46109  1  0  0  0  0
 46110  1  0  0  0  0
 52111  1  0  0  0  0
 52112  1  0  0  0  0
 53113  1  0  0  0  0
 53114  1  0  0  0  0
 53115  1  0  0  0  0
 55116  1  0  0  0  0
 67117  1  0  0  0  0
 67118  1  0  0  0  0
 68119  1  0  0  0  0
 68120  1  0  0  0  0
 68121  1  0  0  0  0
 72122  1  0  0  0  0
 72123  1  0  0  0  0
 73124  1  0  0  0  0
 73125  1  0  0  0  0
 73126  1  0  0  0  0
 74127  1  0  0  0  0
 79128  1  0  0  0  0
 80129  1  0  0  0  0
 83130  1  0  0  0  0
M  END
