173

C         -7.47170        6.94770        0.82890
C         -8.05010        6.51420       -0.33330
C         -7.89650        5.18860       -0.94730
O         -7.08330        4.32690       -0.66780
C         -8.95190        5.09870       -1.97430
C         -9.28260        4.03060       -2.78670
C        -10.33650        4.17660       -3.67450
C        -11.02920        5.37940       -3.72540
Br       -12.47940        5.54870       -4.94070
C        -10.70570        6.46560       -2.92030
C         -9.65040        6.31840       -2.03650
C         -9.05510        7.24930       -1.07750
C         -9.33120        8.58550       -0.97790
C        -10.32050        9.24040       -1.74230
N        -11.11550        9.81860       -2.33430
C         -8.62750        9.50550       -0.16720
N         -8.07920       10.33080        0.41210
C         -6.48600        6.34530        1.62660
S         -5.57690        4.91450        1.20820
C         -4.59080        5.06820        2.62530
C         -4.92930        6.19470        3.38010
C         -4.11130        6.73780        4.47500
O         -2.99010        6.33090        4.72840
C         -4.74100        7.85680        5.17240
C         -4.27080        8.40440        6.33800
C         -3.04440        8.06130        7.10070
C         -1.83690        8.82790        6.55310
S         -5.31120        9.67810        6.88300
C         -6.38550        9.47960        5.54330
C         -7.56530       10.36790        5.39210
C         -7.30970       11.45080        4.33870
C         -5.95340        8.46900        4.71750
C         -6.67470        8.01790        3.53270
O         -7.74430        8.49260        3.18320
C         -6.03230        6.88320        2.84110
C         -3.63140        4.05860        2.90570
C         -3.25250        3.51200        4.12280
C         -3.83040        3.86910        5.41610
C         -2.99940        4.06070        6.51600
C         -3.54250        4.43990        7.72900
C         -4.90870        4.61460        7.85980
C         -5.75650        4.39130        6.78110
C         -7.24040        4.57960        6.92100
C         -7.64900        5.99600        6.51410
C         -5.20570        4.02220        5.56400
C         -2.27820        2.51380        3.94860
S         -1.44850        1.46610        5.07450
C         -0.63330        0.72240        3.74260
C          0.33310       -0.26750        3.50540
C          1.10790       -1.03920        4.39880
C          2.11860       -1.90780        3.86850
N          2.80350       -2.52550        4.81790
S          2.22320       -2.05860        6.25530
N          1.07600       -1.04880        5.72220
C          2.22770       -2.05080        2.46780
C          3.00650       -2.91590        1.68730
S          4.21820       -4.13510        1.89490
C          4.16950       -4.42500        0.16840
C          4.87600       -5.29970       -0.65610
C          5.91780       -6.18900       -0.12930
C          5.60850       -7.10910        0.86540
C          6.60070       -7.92620        1.37590
C          7.89730       -7.82560        0.90660
C          8.22830       -6.89550       -0.07300
C          9.64720       -6.75280       -0.54110
C         10.43020       -5.83400        0.39860
C          7.23200       -6.07520       -0.57660
C          4.51000       -5.15750       -2.00020
S          3.32230       -3.87590       -2.22270
C          3.26340       -3.60640       -0.51940
C          2.60590       -2.73830        0.35770
N          1.62270       -1.78770        0.29000
C          1.38530       -1.32910        1.57050
C          0.51300       -0.34050        2.09500
N         -0.30230        0.61110        1.49640
C         -0.98690        1.25130        2.49830
C         -1.93100        2.27740        2.61400
S         -2.81720        3.30070        1.54430
C         -0.10970        1.32190        0.24940
C          1.14200        2.19510        0.30900
C          0.82580       -1.67230       -0.91030
C          1.51720       -0.83840       -1.98830
C          4.93290       -5.99920       -3.05650
S          5.65710       -7.53280       -2.65260
C          5.87030       -7.95890       -4.33080
C          5.45810       -6.92610       -5.15450
C          5.80380       -6.85420       -6.59170
O          6.67870       -7.53800       -7.08930
C          5.06660       -5.81360       -7.30280
C          5.02120       -5.67180       -8.66550
C          5.61100       -6.54830       -9.70910
C          4.62450       -7.66050      -10.07620
S          4.02740       -4.32610       -9.11090
C          3.69690       -3.92620       -7.46140
C          2.86920       -2.73540       -7.13800
C          3.75490       -1.52710       -6.81920
C          4.31980       -4.80680       -6.60980
C          4.23650       -4.74040       -5.15480
O          3.63470       -3.83830       -4.57830
C          4.87040       -5.84770       -4.45230
C          6.41740       -9.22570       -4.63640
C          6.12260       -9.99430       -5.72570
C          4.95840       -9.79480       -6.61910
O          4.18760       -8.86030       -6.65860
C          4.88210      -11.02680       -7.43640
C          5.96900      -11.86750       -7.13200
C          6.12290      -13.07230       -7.79910
C          5.18920      -13.42230       -8.76310
C          4.11390      -12.59670       -9.05330
Br         2.87270      -13.13160      -10.37330
C          3.93550      -11.38040       -8.38500
Cl         2.58830      -10.37970       -8.72310
C          6.76720      -11.23840       -6.08330
C          7.95200      -11.71500       -5.58640
C          8.74220      -11.06450       -4.61420
N          9.44440      -10.60010       -3.83350
C          8.55460      -12.92220       -5.99760
N          9.08730      -13.89820       -6.28370
H         -7.83650        7.88330        1.23830
H         -8.72820        3.10730       -2.72340
H        -10.62530        3.36480       -4.32380
H        -11.27290        7.37940       -2.99090
H         -2.85680        6.99070        6.99790
H         -3.18830        8.30490        8.15520
H         -2.01180        9.90090        6.59480
H         -1.65590        8.53690        5.52210
H         -0.95350        8.59370        7.14040
H         -7.79400       10.83310        6.35290
H         -8.41840        9.76700        5.06960
H         -8.16150       12.12330        4.29250
H         -7.17830       10.99790        3.36020
H         -6.42130       12.02690        4.58830
H         -1.93270        3.94620        6.40650
H         -2.89530        4.60050        8.57870
H         -5.32540        4.91470        8.81050
H         -7.76570        3.86010        6.28970
H         -7.53630        4.40490        7.95710
H         -8.71690        6.14120        6.65830
H         -7.41690        6.17300        5.46630
H         -7.11520        6.73170        7.11230
H         -5.85680        3.83130        4.72200
H          4.59290       -7.19000        1.22240
H          6.35840       -8.64630        2.14320
H          8.66520       -8.47370        1.30290
H          9.66510       -6.33790       -1.55060
H         10.12500       -7.73380       -0.56820
H         11.45870       -5.73300        0.06050
H          9.97520       -4.84630        0.42880
H         10.43420       -6.23840        1.40820
H          7.47180       -5.33910       -1.33190
H         -0.99250        1.95060        0.10830
H         -0.04950        0.63840       -0.59110
H          1.26160        2.73660       -0.62540
H          1.06140        2.91550        1.11970
H          2.02600        1.58390        0.47990
H         -0.15520       -1.27730       -0.64270
H          0.67590       -2.68450       -1.30200
H          1.84750        0.12120       -1.60000
H          2.38530       -1.37060       -2.36770
H          0.83450       -0.67040       -2.81680
H          5.84940       -5.95950      -10.59710
H          6.52580       -6.99310       -9.31560
H          4.36190       -8.22080       -9.18330
H          3.71640       -7.24210      -10.50590
H          5.07380       -8.33710      -10.79820
H          2.25520       -2.95810       -6.26320
H          2.22170       -2.50250       -7.98530
H          4.35540       -1.73210       -5.93730
H          4.41490       -1.30530       -7.65490
H          3.13490       -0.65700       -6.62180
H          7.07830       -9.63320       -3.88080
H          6.94150      -13.73900       -7.58570
H          5.29220      -14.35450       -9.29680
