
  xtb     02052207063D
 energy: -283.413583902190 gnorm: 0.000529311218 xtb: 6.4.1 (unknown)
159176  0     0  0            999 V2000
  -10.1744   -1.2485    2.9233 C   0  0  0  0  0  0  0  0  0  0  0  0
  -10.8597   -0.1714    3.4194 C   0  0  0  0  0  0  0  0  0  0  0  0
  -10.3234    1.1742    3.6745 C   0  0  0  0  0  0  0  0  0  0  0  0
   -9.1620    1.5372    3.6542 O   0  0  0  0  0  0  0  0  0  0  0  0
  -11.4954    2.0298    3.9380 C   0  0  0  0  0  0  0  0  0  0  0  0
  -11.5338    3.3891    4.1841 C   0  0  0  0  0  0  0  0  0  0  0  0
  -12.7661    3.9889    4.3881 C   0  0  0  0  0  0  0  0  0  0  0  0
  -13.9202    3.2175    4.3385 C   0  0  0  0  0  0  0  0  0  0  0  0
  -15.5982    4.0658    4.6076 Br  0  0  0  0  0  0  0  0  0  0  0  0
  -13.8983    1.8483    4.0984 C   0  0  0  0  0  0  0  0  0  0  0  0
  -12.6654    1.2505    3.8988 C   0  0  0  0  0  0  0  0  0  0  0  0
  -12.2921   -0.1420    3.6469 C   0  0  0  0  0  0  0  0  0  0  0  0
  -13.1343   -1.2188    3.7139 C   0  0  0  0  0  0  0  0  0  0  0  0
  -14.5235   -1.1155    3.9408 C   0  0  0  0  0  0  0  0  0  0  0  0
  -15.6576   -1.0899    4.1147 N   0  0  0  0  0  0  0  0  0  0  0  0
  -12.7409   -2.5746    3.6421 C   0  0  0  0  0  0  0  0  0  0  0  0
  -12.5156   -3.7002    3.6565 N   0  0  0  0  0  0  0  0  0  0  0  0
   -8.7968   -1.4128    2.7044 C   0  0  0  0  0  0  0  0  0  0  0  0
   -7.5649   -0.2961    3.2247 S   0  0  0  0  0  0  0  0  0  0  0  0
   -6.2872   -1.3655    2.7216 C   0  0  0  0  0  0  0  0  0  0  0  0
   -6.8104   -2.5454    2.1604 C   0  0  0  0  0  0  0  0  0  0  0  0
   -6.0183   -3.6809    1.7048 C   0  0  0  0  0  0  0  0  0  0  0  0
   -4.7938   -3.6603    1.6060 O   0  0  0  0  0  0  0  0  0  0  0  0
   -6.7941   -4.8772    1.4077 C   0  0  0  0  0  0  0  0  0  0  0  0
   -6.2477   -6.1127    1.1524 C   0  0  0  0  0  0  0  0  0  0  0  0
   -4.8080   -6.4743    1.1077 C   0  0  0  0  0  0  0  0  0  0  0  0
   -4.5640   -7.9750    1.0447 C   0  0  0  0  0  0  0  0  0  0  0  0
   -7.4889   -7.2854    0.8748 S   0  0  0  0  0  0  0  0  0  0  0  0
   -8.7487   -6.1130    1.0719 C   0  0  0  0  0  0  0  0  0  0  0  0
  -10.1718   -6.5014    0.9104 C   0  0  0  0  0  0  0  0  0  0  0  0
  -10.6352   -6.2652   -0.5307 C   0  0  0  0  0  0  0  0  0  0  0  0
   -8.2226   -4.8776    1.3525 C   0  0  0  0  0  0  0  0  0  0  0  0
   -9.0067   -3.6673    1.5720 C   0  0  0  0  0  0  0  0  0  0  0  0
  -10.1904   -3.5767    1.2900 O   0  0  0  0  0  0  0  0  0  0  0  0
   -8.2204   -2.5600    2.1462 C   0  0  0  0  0  0  0  0  0  0  0  0
   -4.9551   -0.9109    2.8580 C   0  0  0  0  0  0  0  0  0  0  0  0
   -4.5780    0.2484    3.5448 C   0  0  0  0  0  0  0  0  0  0  0  0
   -5.4281    1.0271    4.4547 C   0  0  0  0  0  0  0  0  0  0  0  0
   -5.8744    0.4626    5.6474 C   0  0  0  0  0  0  0  0  0  0  0  0
   -6.6506    1.2111    6.5092 C   0  0  0  0  0  0  0  0  0  0  0  0
   -6.9842    2.5168    6.1919 C   0  0  0  0  0  0  0  0  0  0  0  0
   -6.5360    3.0963    5.0137 C   0  0  0  0  0  0  0  0  0  0  0  0
   -6.8479    4.5269    4.6853 C   0  0  0  0  0  0  0  0  0  0  0  0
   -5.6773    5.4308    5.0768 C   0  0  0  0  0  0  0  0  0  0  0  0
   -5.7462    2.3446    4.1560 C   0  0  0  0  0  0  0  0  0  0  0  0
   -3.2463    0.5836    3.3081 C   0  0  0  0  0  0  0  0  0  0  0  0
   -2.2559    1.9210    3.8535 S   0  0  0  0  0  0  0  0  0  0  0  0
   -0.9425    1.2746    2.9285 C   0  0  0  0  0  0  0  0  0  0  0  0
    0.3753    1.6031    2.5837 C   0  0  0  0  0  0  0  0  0  0  0  0
    1.1450    2.7488    2.8814 C   0  0  0  0  0  0  0  0  0  0  0  0
    2.4318    2.8948    2.2685 C   0  0  0  0  0  0  0  0  0  0  0  0
    3.0190    4.0375    2.5881 N   0  0  0  0  0  0  0  0  0  0  0  0
    2.0376    4.8567    3.5811 S   0  0  0  0  0  0  0  0  0  0  0  0
    0.8239    3.7863    3.6383 N   0  0  0  0  0  0  0  0  0  0  0  0
    2.9266    1.8447    1.4650 C   0  0  0  0  0  0  0  0  0  0  0  0
    4.1596    1.6960    0.8134 C   0  0  0  0  0  0  0  0  0  0  0  0
    5.6084    2.5994    0.5284 S   0  0  0  0  0  0  0  0  0  0  0  0
    6.2333    1.2487   -0.3850 C   0  0  0  0  0  0  0  0  0  0  0  0
    7.4397    1.0523   -1.0745 C   0  0  0  0  0  0  0  0  0  0  0  0
    8.5481    2.0150   -1.0903 C   0  0  0  0  0  0  0  0  0  0  0  0
    9.7509    1.6849   -0.4746 C   0  0  0  0  0  0  0  0  0  0  0  0
   10.7870    2.5983   -0.4631 C   0  0  0  0  0  0  0  0  0  0  0  0
   10.6344    3.8293   -1.0739 C   0  0  0  0  0  0  0  0  0  0  0  0
    9.4416    4.1693   -1.6996 C   0  0  0  0  0  0  0  0  0  0  0  0
    9.3119    5.4786   -2.4221 C   0  0  0  0  0  0  0  0  0  0  0  0
   10.0985    5.4289   -3.7333 C   0  0  0  0  0  0  0  0  0  0  0  0
    8.3974    3.2576   -1.6907 C   0  0  0  0  0  0  0  0  0  0  0  0
    7.4813   -0.1887   -1.6841 C   0  0  0  0  0  0  0  0  0  0  0  0
    6.0314   -1.1391   -1.3615 S   0  0  0  0  0  0  0  0  0  0  0  0
    5.3563    0.1599   -0.4436 C   0  0  0  0  0  0  0  0  0  0  0  0
    4.1653    0.4200    0.2427 C   0  0  0  0  0  0  0  0  0  0  0  0
    2.9788   -0.2149    0.4960 N   0  0  0  0  0  0  0  0  0  0  0  0
    2.1864    0.6485    1.2389 C   0  0  0  0  0  0  0  0  0  0  0  0
    0.8537    0.5687    1.7250 C   0  0  0  0  0  0  0  0  0  0  0  0
   -0.1691   -0.3468    1.5450 N   0  0  0  0  0  0  0  0  0  0  0  0
   -1.2533    0.0863    2.2592 C   0  0  0  0  0  0  0  0  0  0  0  0
   -2.5793   -0.3123    2.4627 C   0  0  0  0  0  0  0  0  0  0  0  0
   -3.5981   -1.6243    1.9882 S   0  0  0  0  0  0  0  0  0  0  0  0
   -0.3513   -1.3739    0.5447 C   0  0  0  0  0  0  0  0  0  0  0  0
   -0.3213   -0.7908   -0.8661 C   0  0  0  0  0  0  0  0  0  0  0  0
    2.8980   -1.6495    0.3335 C   0  0  0  0  0  0  0  0  0  0  0  0
    2.8737   -2.3648    1.6821 C   0  0  0  0  0  0  0  0  0  0  0  0
    8.4591   -0.6901   -2.5794 C   0  0  0  0  0  0  0  0  0  0  0  0
    8.5642   -2.0011   -3.0127 C   0  0  0  0  0  0  0  0  0  0  0  0
    9.5703   -2.1789   -3.9535 C   0  0  0  0  0  0  0  0  0  0  0  0
   10.0409   -3.6827   -4.7007 S   0  0  0  0  0  0  0  0  0  0  0  0
    8.7373   -4.8522   -4.1783 C   0  0  0  0  0  0  0  0  0  0  0  0
    7.4242   -4.6106   -4.8977 C   0  0  0  0  0  0  0  0  0  0  0  0
   10.2466   -0.9800   -4.2781 C   0  0  0  0  0  0  0  0  0  0  0  0
    9.6040    0.3595   -3.3486 S   0  0  0  0  0  0  0  0  0  0  0  0
   11.2661   -0.9203   -5.2234 C   0  0  0  0  0  0  0  0  0  0  0  0
   11.9841    0.1580   -5.6960 C   0  0  0  0  0  0  0  0  0  0  0  0
   11.8026    1.5515   -5.2917 C   0  0  0  0  0  0  0  0  0  0  0  0
   11.0342    1.9996   -4.4564 O   0  0  0  0  0  0  0  0  0  0  0  0
   12.7406    2.3409   -6.1137 C   0  0  0  0  0  0  0  0  0  0  0  0
   12.9414    3.7072   -6.1303 C   0  0  0  0  0  0  0  0  0  0  0  0
   13.8871    4.2261   -7.0010 C   0  0  0  0  0  0  0  0  0  0  0  0
   14.6001    3.3674   -7.8254 C   0  0  0  0  0  0  0  0  0  0  0  0
   15.8912    4.1010   -9.0121 Br  0  0  0  0  0  0  0  0  0  0  0  0
   14.4080    1.9903   -7.8222 C   0  0  0  0  0  0  0  0  0  0  0  0
   13.4625    1.4748   -6.9524 C   0  0  0  0  0  0  0  0  0  0  0  0
   13.0128    0.1004   -6.7087 C   0  0  0  0  0  0  0  0  0  0  0  0
   13.5059   -1.0098   -7.3468 C   0  0  0  0  0  0  0  0  0  0  0  0
   13.0954   -2.3430   -7.1366 C   0  0  0  0  0  0  0  0  0  0  0  0
   12.8324   -3.4574   -7.0403 N   0  0  0  0  0  0  0  0  0  0  0  0
   14.5192   -0.9725   -8.3273 C   0  0  0  0  0  0  0  0  0  0  0  0
   15.3386   -1.0146   -9.1306 N   0  0  0  0  0  0  0  0  0  0  0  0
  -10.7631   -2.1088    2.6249 H   0  0  0  0  0  0  0  0  0  0  0  0
  -10.6188    3.9602    4.2124 H   0  0  0  0  0  0  0  0  0  0  0  0
  -12.8381    5.0478    4.5821 H   0  0  0  0  0  0  0  0  0  0  0  0
  -14.8201    1.2906    4.0664 H   0  0  0  0  0  0  0  0  0  0  0  0
   -4.3175   -6.0395    1.9841 H   0  0  0  0  0  0  0  0  0  0  0  0
   -4.3573   -5.9822    0.2392 H   0  0  0  0  0  0  0  0  0  0  0  0
   -5.0043   -8.3978    0.1439 H   0  0  0  0  0  0  0  0  0  0  0  0
   -5.0047   -8.4710    1.9068 H   0  0  0  0  0  0  0  0  0  0  0  0
   -3.4970   -8.1810    1.0363 H   0  0  0  0  0  0  0  0  0  0  0  0
  -10.2971   -7.5546    1.1688 H   0  0  0  0  0  0  0  0  0  0  0  0
  -10.7840   -5.8893    1.5763 H   0  0  0  0  0  0  0  0  0  0  0  0
  -11.6699   -6.5772   -0.6389 H   0  0  0  0  0  0  0  0  0  0  0  0
  -10.0221   -6.8306   -1.2298 H   0  0  0  0  0  0  0  0  0  0  0  0
  -10.5656   -5.2077   -0.7701 H   0  0  0  0  0  0  0  0  0  0  0  0
   -5.6139   -0.5586    5.8859 H   0  0  0  0  0  0  0  0  0  0  0  0
   -6.9991    0.7743    7.4338 H   0  0  0  0  0  0  0  0  0  0  0  0
   -7.6011    3.0910    6.8684 H   0  0  0  0  0  0  0  0  0  0  0  0
   -7.0378    4.6231    3.6145 H   0  0  0  0  0  0  0  0  0  0  0  0
   -7.7441    4.8430    5.2227 H   0  0  0  0  0  0  0  0  0  0  0  0
   -5.8957    6.4669    4.8281 H   0  0  0  0  0  0  0  0  0  0  0  0
   -4.7735    5.1295    4.5526 H   0  0  0  0  0  0  0  0  0  0  0  0
   -5.4890    5.3624    6.1459 H   0  0  0  0  0  0  0  0  0  0  0  0
   -5.3927    2.7778    3.2316 H   0  0  0  0  0  0  0  0  0  0  0  0
    9.8639    0.7185   -0.0045 H   0  0  0  0  0  0  0  0  0  0  0  0
   11.7187    2.3465    0.0218 H   0  0  0  0  0  0  0  0  0  0  0  0
   11.4515    4.5361   -1.0659 H   0  0  0  0  0  0  0  0  0  0  0  0
    9.6983    6.2886   -1.7989 H   0  0  0  0  0  0  0  0  0  0  0  0
    8.2610    5.6829   -2.6339 H   0  0  0  0  0  0  0  0  0  0  0  0
   11.1602    5.3159   -3.5259 H   0  0  0  0  0  0  0  0  0  0  0  0
    9.9481    6.3419   -4.3057 H   0  0  0  0  0  0  0  0  0  0  0  0
    9.7775    4.5773   -4.3291 H   0  0  0  0  0  0  0  0  0  0  0  0
    7.4609    3.5041   -2.1703 H   0  0  0  0  0  0  0  0  0  0  0  0
    0.3849   -2.1676    0.6702 H   0  0  0  0  0  0  0  0  0  0  0  0
   -1.3335   -1.8152    0.7306 H   0  0  0  0  0  0  0  0  0  0  0  0
    0.6132   -0.2684   -1.0586 H   0  0  0  0  0  0  0  0  0  0  0  0
   -0.4403   -1.5846   -1.5985 H   0  0  0  0  0  0  0  0  0  0  0  0
   -1.1367   -0.0821   -0.9896 H   0  0  0  0  0  0  0  0  0  0  0  0
    2.0404   -1.9214   -0.2818 H   0  0  0  0  0  0  0  0  0  0  0  0
    3.7938   -1.9486   -0.2166 H   0  0  0  0  0  0  0  0  0  0  0  0
    2.8004   -3.4385    1.5318 H   0  0  0  0  0  0  0  0  0  0  0  0
    2.0327   -2.0351    2.2876 H   0  0  0  0  0  0  0  0  0  0  0  0
    3.7886   -2.1532    2.2308 H   0  0  0  0  0  0  0  0  0  0  0  0
    7.9279   -2.7775   -2.6276 H   0  0  0  0  0  0  0  0  0  0  0  0
    8.6389   -4.7965   -3.0953 H   0  0  0  0  0  0  0  0  0  0  0  0
    9.1501   -5.8255   -4.4432 H   0  0  0  0  0  0  0  0  0  0  0  0
    7.5645   -4.6973   -5.9724 H   0  0  0  0  0  0  0  0  0  0  0  0
    6.6903   -5.3494   -4.5818 H   0  0  0  0  0  0  0  0  0  0  0  0
    7.0337   -3.6186   -4.6815 H   0  0  0  0  0  0  0  0  0  0  0  0
   11.5031   -1.8850   -5.6575 H   0  0  0  0  0  0  0  0  0  0  0  0
   12.3676    4.3487   -5.4801 H   0  0  0  0  0  0  0  0  0  0  0  0
   14.0724    5.2882   -7.0438 H   0  0  0  0  0  0  0  0  0  0  0  0
   14.9846    1.3652   -8.4840 H   0  0  0  0  0  0  0  0  0  0  0  0
  1  2  2  0  0  0  0
  2  3  1  0  0  0  0
  3  4  2  0  0  0  0
  3  5  1  0  0  0  0
  5  6  2  0  0  0  0
  6  7  1  0  0  0  0
  7  8  2  0  0  0  0
  8  9  1  0  0  0  0
  8 10  1  0  0  0  0
 10 11  2  0  0  0  0
 11 12  1  0  0  0  0
 12 13  2  0  0  0  0
 13 14  1  0  0  0  0
 14 15  3  0  0  0  0
 13 16  1  0  0  0  0
 16 17  3  0  0  0  0
  1 18  1  0  0  0  0
 18 19  1  0  0  0  0
 19 20  1  0  0  0  0
 20 21  2  0  0  0  0
 21 22  1  0  0  0  0
 22 23  2  0  0  0  0
 22 24  1  0  0  0  0
 24 25  2  0  0  0  0
 25 26  1  0  0  0  0
 26 27  1  0  0  0  0
 25 28  1  0  0  0  0
 28 29  1  0  0  0  0
 29 30  1  0  0  0  0
 30 31  1  0  0  0  0
 29 32  2  0  0  0  0
 32 33  1  0  0  0  0
 33 34  2  0  0  0  0
 33 35  1  0  0  0  0
 20 36  1  0  0  0  0
 36 37  2  0  0  0  0
 37 38  1  0  0  0  0
 38 39  2  0  0  0  0
 39 40  1  0  0  0  0
 40 41  2  0  0  0  0
 41 42  1  0  0  0  0
 42 43  1  0  0  0  0
 43 44  1  0  0  0  0
 42 45  2  0  0  0  0
 37 46  1  0  0  0  0
 46 47  1  0  0  0  0
 47 48  1  0  0  0  0
 48 49  1  0  0  0  0
 49 50  1  0  0  0  0
 50 51  1  0  0  0  0
 51 52  2  0  0  0  0
 52 53  1  0  0  0  0
 53 54  1  0  0  0  0
 51 55  1  0  0  0  0
 55 56  1  0  0  0  0
 56 57  1  0  0  0  0
 57 58  1  0  0  0  0
 58 59  1  0  0  0  0
 59 60  1  0  0  0  0
 60 61  2  0  0  0  0
 61 62  1  0  0  0  0
 62 63  2  0  0  0  0
 63 64  1  0  0  0  0
 64 65  1  0  0  0  0
 65 66  1  0  0  0  0
 64 67  2  0  0  0  0
 59 68  2  0  0  0  0
 68 69  1  0  0  0  0
 69 70  1  0  0  0  0
 70 71  1  0  0  0  0
 71 72  1  0  0  0  0
 72 73  1  0  0  0  0
 73 74  1  0  0  0  0
 74 75  1  0  0  0  0
 75 76  1  0  0  0  0
 76 77  1  0  0  0  0
 77 78  1  0  0  0  0
 75 79  1  0  0  0  0
 79 80  1  0  0  0  0
 72 81  1  0  0  0  0
 81 82  1  0  0  0  0
 68 83  1  0  0  0  0
 83 84  2  0  0  0  0
 84 85  1  0  0  0  0
 85 86  1  0  0  0  0
 86 87  1  0  0  0  0
 87 88  1  0  0  0  0
 85 89  2  0  0  0  0
 89 90  1  0  0  0  0
 89 91  1  0  0  0  0
 91 92  2  0  0  0  0
 92 93  1  0  0  0  0
 93 94  2  0  0  0  0
 93 95  1  0  0  0  0
 95 96  2  0  0  0  0
 96 97  1  0  0  0  0
 97 98  2  0  0  0  0
 98 99  1  0  0  0  0
 98100  1  0  0  0  0
100101  2  0  0  0  0
101102  1  0  0  0  0
102103  2  0  0  0  0
103104  1  0  0  0  0
104105  3  0  0  0  0
103106  1  0  0  0  0
106107  3  0  0  0  0
 12  2  1  0  0  0  0
 35 18  2  0  0  0  0
 78 36  1  0  0  0  0
 90 83  1  0  0  0  0
102 92  1  0  0  0  0
 11  5  1  0  0  0  0
 35 21  1  0  0  0  0
 45 38  1  0  0  0  0
 77 46  2  0  0  0  0
101 95  1  0  0  0  0
 32 24  1  0  0  0  0
 76 48  2  0  0  0  0
 74 49  2  0  0  0  0
 54 50  2  0  0  0  0
 73 55  2  0  0  0  0
 71 56  2  0  0  0  0
 70 58  2  0  0  0  0
 67 60  1  0  0  0  0
  1108  1  0  0  0  0
  6109  1  0  0  0  0
  7110  1  0  0  0  0
 10111  1  0  0  0  0
 26112  1  0  0  0  0
 26113  1  0  0  0  0
 27114  1  0  0  0  0
 27115  1  0  0  0  0
 27116  1  0  0  0  0
 30117  1  0  0  0  0
 30118  1  0  0  0  0
 31119  1  0  0  0  0
 31120  1  0  0  0  0
 31121  1  0  0  0  0
 39122  1  0  0  0  0
 40123  1  0  0  0  0
 41124  1  0  0  0  0
 43125  1  0  0  0  0
 43126  1  0  0  0  0
 44127  1  0  0  0  0
 44128  1  0  0  0  0
 44129  1  0  0  0  0
 45130  1  0  0  0  0
 61131  1  0  0  0  0
 62132  1  0  0  0  0
 63133  1  0  0  0  0
 65134  1  0  0  0  0
 65135  1  0  0  0  0
 66136  1  0  0  0  0
 66137  1  0  0  0  0
 66138  1  0  0  0  0
 67139  1  0  0  0  0
 79140  1  0  0  0  0
 79141  1  0  0  0  0
 80142  1  0  0  0  0
 80143  1  0  0  0  0
 80144  1  0  0  0  0
 81145  1  0  0  0  0
 81146  1  0  0  0  0
 82147  1  0  0  0  0
 82148  1  0  0  0  0
 82149  1  0  0  0  0
 84150  1  0  0  0  0
 87151  1  0  0  0  0
 87152  1  0  0  0  0
 88153  1  0  0  0  0
 88154  1  0  0  0  0
 88155  1  0  0  0  0
 91156  1  0  0  0  0
 96157  1  0  0  0  0
 97158  1  0  0  0  0
100159  1  0  0  0  0
M  END
