
  xtb     02052214243D
 energy: -286.680061444153 gnorm: 0.000482029369 xtb: 6.4.1 (unknown)
163178  0     0  0            999 V2000
    3.6778   10.3220   -1.9728 C   0  0  0  0  0  0  0  0  0  0  0  0
    3.6459   11.5625   -1.4211 C   0  0  0  0  0  0  0  0  0  0  0  0
    4.0977   12.7246   -2.2403 C   0  0  0  0  0  0  0  0  0  0  0  0
    4.3091   12.7343   -3.4304 O   0  0  0  0  0  0  0  0  0  0  0  0
    4.2748   13.8307   -1.2777 C   0  0  0  0  0  0  0  0  0  0  0  0
    4.7966   15.0937   -1.4870 C   0  0  0  0  0  0  0  0  0  0  0  0
    4.8916   15.9580   -0.4080 C   0  0  0  0  0  0  0  0  0  0  0  0
    4.4709   15.5386    0.8477 C   0  0  0  0  0  0  0  0  0  0  0  0
    4.6336   16.7362    2.3126 Br  0  0  0  0  0  0  0  0  0  0  0  0
    3.9371   14.2761    1.0757 C   0  0  0  0  0  0  0  0  0  0  0  0
    3.8355   13.4189   -0.0062 C   0  0  0  0  0  0  0  0  0  0  0  0
    3.3029   12.0597   -0.1056 C   0  0  0  0  0  0  0  0  0  0  0  0
    2.4373   11.4872    0.7867 C   0  0  0  0  0  0  0  0  0  0  0  0
    1.7608   10.2742    0.5498 C   0  0  0  0  0  0  0  0  0  0  0  0
    1.1726    9.3031    0.3799 N   0  0  0  0  0  0  0  0  0  0  0  0
    2.0546   12.0836    2.0067 C   0  0  0  0  0  0  0  0  0  0  0  0
    1.7112   12.5277    3.0073 N   0  0  0  0  0  0  0  0  0  0  0  0
    3.6363    9.0285   -1.3679 C   0  0  0  0  0  0  0  0  0  0  0  0
    4.0958    8.7204   -0.0921 C   0  0  0  0  0  0  0  0  0  0  0  0
    4.6234    9.6887    0.6785 F   0  0  0  0  0  0  0  0  0  0  0  0
    4.0780    7.4332    0.4416 C   0  0  0  0  0  0  0  0  0  0  0  0
    4.4866    7.3101    1.7149 F   0  0  0  0  0  0  0  0  0  0  0  0
    3.6017    6.3368   -0.2728 C   0  0  0  0  0  0  0  0  0  0  0  0
    3.0625    6.6362   -1.5647 C   0  0  0  0  0  0  0  0  0  0  0  0
    2.4755    5.6522   -2.2494 N   0  0  0  0  0  0  0  0  0  0  0  0
    1.9717    5.8719   -3.4410 C   0  0  0  0  0  0  0  0  0  0  0  0
    1.3271    4.6865   -4.0937 C   0  0  0  0  0  0  0  0  0  0  0  0
    2.3738    3.6148   -4.4047 C   0  0  0  0  0  0  0  0  0  0  0  0
    2.0772    7.1657   -4.0194 C   0  0  0  0  0  0  0  0  0  0  0  0
    2.6306    8.1507   -3.3513 N   0  0  0  0  0  0  0  0  0  0  0  0
    3.1197    7.9335   -2.1221 C   0  0  0  0  0  0  0  0  0  0  0  0
    1.5930    7.5062   -5.3960 C   0  0  0  0  0  0  0  0  0  0  0  0
    2.5662    7.0084   -6.4665 C   0  0  0  0  0  0  0  0  0  0  0  0
    3.5457    4.9955    0.2071 C   0  0  0  0  0  0  0  0  0  0  0  0
    4.2815    4.3751    1.2152 C   0  0  0  0  0  0  0  0  0  0  0  0
    5.5225    4.8713    1.8056 C   0  0  0  0  0  0  0  0  0  0  0  0
    6.5091    5.4286    0.9940 C   0  0  0  0  0  0  0  0  0  0  0  0
    7.7050    5.8387    1.5487 C   0  0  0  0  0  0  0  0  0  0  0  0
    7.9292    5.6970    2.9072 C   0  0  0  0  0  0  0  0  0  0  0  0
    6.9604    5.1350    3.7291 C   0  0  0  0  0  0  0  0  0  0  0  0
    7.1801    5.0220    5.2097 C   0  0  0  0  0  0  0  0  0  0  0  0
    6.6990    6.2925    5.9134 C   0  0  0  0  0  0  0  0  0  0  0  0
    5.7625    4.7229    3.1671 C   0  0  0  0  0  0  0  0  0  0  0  0
    3.7751    3.0974    1.4981 C   0  0  0  0  0  0  0  0  0  0  0  0
    4.2550    1.8675    2.6489 S   0  0  0  0  0  0  0  0  0  0  0  0
    2.9978    0.8489    2.0385 C   0  0  0  0  0  0  0  0  0  0  0  0
    2.4240   -0.4025    2.2980 C   0  0  0  0  0  0  0  0  0  0  0  0
    2.7028   -1.3382    3.3170 C   0  0  0  0  0  0  0  0  0  0  0  0
    1.8745   -2.5011    3.4294 C   0  0  0  0  0  0  0  0  0  0  0  0
    2.2139   -3.2696    4.4527 N   0  0  0  0  0  0  0  0  0  0  0  0
    3.4729   -2.5858    5.2086 S   0  0  0  0  0  0  0  0  0  0  0  0
    3.6318   -1.2837    4.2584 N   0  0  0  0  0  0  0  0  0  0  0  0
    0.8706   -2.7154    2.4614 C   0  0  0  0  0  0  0  0  0  0  0  0
    0.0093   -3.8073    2.2780 C   0  0  0  0  0  0  0  0  0  0  0  0
   -0.3836   -5.3117    3.0386 S   0  0  0  0  0  0  0  0  0  0  0  0
   -1.5091   -5.6406    1.7452 C   0  0  0  0  0  0  0  0  0  0  0  0
   -2.3530   -6.7457    1.4713 C   0  0  0  0  0  0  0  0  0  0  0  0
   -2.4882   -7.8892    2.3781 C   0  0  0  0  0  0  0  0  0  0  0  0
   -2.4426   -9.1988    1.9128 C   0  0  0  0  0  0  0  0  0  0  0  0
   -2.5525  -10.2506    2.8026 C   0  0  0  0  0  0  0  0  0  0  0  0
   -2.7048  -10.0083    4.1568 C   0  0  0  0  0  0  0  0  0  0  0  0
   -2.7486   -8.7066    4.6389 C   0  0  0  0  0  0  0  0  0  0  0  0
   -2.8522   -8.4266    6.1101 C   0  0  0  0  0  0  0  0  0  0  0  0
   -1.4616   -8.1782    6.6981 C   0  0  0  0  0  0  0  0  0  0  0  0
   -2.6385   -7.6560    3.7405 C   0  0  0  0  0  0  0  0  0  0  0  0
   -3.0363   -6.5591    0.2997 C   0  0  0  0  0  0  0  0  0  0  0  0
   -2.6695   -5.0359   -0.4793 S   0  0  0  0  0  0  0  0  0  0  0  0
   -1.5612   -4.6340    0.7858 C   0  0  0  0  0  0  0  0  0  0  0  0
   -0.6983   -3.5716    1.1001 C   0  0  0  0  0  0  0  0  0  0  0  0
   -0.3215   -2.3738    0.5607 N   0  0  0  0  0  0  0  0  0  0  0  0
    0.6330   -1.8062    1.3890 C   0  0  0  0  0  0  0  0  0  0  0  0
    1.3622   -0.5834    1.3604 C   0  0  0  0  0  0  0  0  0  0  0  0
    1.2821    0.5615    0.5889 N   0  0  0  0  0  0  0  0  0  0  0  0
    2.2683    1.4209    0.9924 C   0  0  0  0  0  0  0  0  0  0  0  0
    2.6984    2.7166    0.6896 C   0  0  0  0  0  0  0  0  0  0  0  0
    2.3232    3.9384   -0.4792 S   0  0  0  0  0  0  0  0  0  0  0  0
    0.3057    1.0328   -0.3642 C   0  0  0  0  0  0  0  0  0  0  0  0
    0.8406    0.9905   -1.7960 C   0  0  0  0  0  0  0  0  0  0  0  0
   -0.8293   -2.0077   -0.7399 C   0  0  0  0  0  0  0  0  0  0  0  0
   -2.2552   -1.4605   -0.6620 C   0  0  0  0  0  0  0  0  0  0  0  0
   -4.0643   -7.3977   -0.3184 C   0  0  0  0  0  0  0  0  0  0  0  0
   -5.4011   -7.1223   -0.1400 C   0  0  0  0  0  0  0  0  0  0  0  0
   -5.7699   -6.1090    0.6555 F   0  0  0  0  0  0  0  0  0  0  0  0
   -6.4107   -7.8783   -0.7608 C   0  0  0  0  0  0  0  0  0  0  0  0
   -7.6811   -7.5763   -0.4697 F   0  0  0  0  0  0  0  0  0  0  0  0
   -6.1137   -8.9474   -1.5825 C   0  0  0  0  0  0  0  0  0  0  0  0
   -4.7404   -9.2770   -1.7549 C   0  0  0  0  0  0  0  0  0  0  0  0
   -4.4084  -10.3324   -2.5204 N   0  0  0  0  0  0  0  0  0  0  0  0
   -3.1433  -10.6186   -2.7033 C   0  0  0  0  0  0  0  0  0  0  0  0
   -2.8559  -11.7842   -3.5988 C   0  0  0  0  0  0  0  0  0  0  0  0
   -2.7108  -11.3073   -5.0469 C   0  0  0  0  0  0  0  0  0  0  0  0
   -2.1214   -9.8167   -2.1129 C   0  0  0  0  0  0  0  0  0  0  0  0
   -2.4306   -8.7910   -1.3607 N   0  0  0  0  0  0  0  0  0  0  0  0
   -3.7267   -8.4936   -1.1514 C   0  0  0  0  0  0  0  0  0  0  0  0
   -0.6597  -10.1159   -2.2453 C   0  0  0  0  0  0  0  0  0  0  0  0
   -0.2183  -11.0835   -1.1426 C   0  0  0  0  0  0  0  0  0  0  0  0
   -7.1136   -9.7548   -2.2539 C   0  0  0  0  0  0  0  0  0  0  0  0
   -8.2053   -9.2832   -2.8879 C   0  0  0  0  0  0  0  0  0  0  0  0
   -8.4508   -7.9001   -3.0589 C   0  0  0  0  0  0  0  0  0  0  0  0
   -8.6151   -6.7803   -3.2355 N   0  0  0  0  0  0  0  0  0  0  0  0
   -9.1768  -10.1928   -3.5652 C   0  0  0  0  0  0  0  0  0  0  0  0
   -9.9854   -9.8345   -4.3807 O   0  0  0  0  0  0  0  0  0  0  0  0
   -9.0375  -11.4521   -3.1382 O   0  0  0  0  0  0  0  0  0  0  0  0
   -9.8976  -12.4288   -3.7286 C   0  0  0  0  0  0  0  0  0  0  0  0
   -9.3519  -12.9154   -5.0630 C   0  0  0  0  0  0  0  0  0  0  0  0
    3.7858   10.3015   -3.0530 H   0  0  0  0  0  0  0  0  0  0  0  0
    5.1211   15.3914   -2.4718 H   0  0  0  0  0  0  0  0  0  0  0  0
    5.2930   16.9517   -0.5333 H   0  0  0  0  0  0  0  0  0  0  0  0
    3.6302   13.9858    2.0676 H   0  0  0  0  0  0  0  0  0  0  0  0
    0.6052    4.2707   -3.3876 H   0  0  0  0  0  0  0  0  0  0  0  0
    0.8038    4.9760   -5.0030 H   0  0  0  0  0  0  0  0  0  0  0  0
    3.1088    3.9858   -5.1157 H   0  0  0  0  0  0  0  0  0  0  0  0
    1.8968    2.7342   -4.8272 H   0  0  0  0  0  0  0  0  0  0  0  0
    2.8917    3.3337   -3.4920 H   0  0  0  0  0  0  0  0  0  0  0  0
    1.5198    8.5924   -5.4567 H   0  0  0  0  0  0  0  0  0  0  0  0
    0.6029    7.0797   -5.5649 H   0  0  0  0  0  0  0  0  0  0  0  0
    2.6538    5.9252   -6.4450 H   0  0  0  0  0  0  0  0  0  0  0  0
    3.5513    7.4391   -6.3043 H   0  0  0  0  0  0  0  0  0  0  0  0
    2.2171    7.3069   -7.4516 H   0  0  0  0  0  0  0  0  0  0  0  0
    6.3380    5.5245   -0.0693 H   0  0  0  0  0  0  0  0  0  0  0  0
    8.4688    6.2696    0.9177 H   0  0  0  0  0  0  0  0  0  0  0  0
    8.8670    6.0229    3.3336 H   0  0  0  0  0  0  0  0  0  0  0  0
    6.6311    4.1628    5.5993 H   0  0  0  0  0  0  0  0  0  0  0  0
    8.2418    4.8738    5.4172 H   0  0  0  0  0  0  0  0  0  0  0  0
    5.6420    6.4551    5.7169 H   0  0  0  0  0  0  0  0  0  0  0  0
    7.2488    7.1577    5.5502 H   0  0  0  0  0  0  0  0  0  0  0  0
    6.8465    6.2119    6.9879 H   0  0  0  0  0  0  0  0  0  0  0  0
    4.9948    4.3002    3.7982 H   0  0  0  0  0  0  0  0  0  0  0  0
   -2.2929   -9.3825    0.8613 H   0  0  0  0  0  0  0  0  0  0  0  0
   -2.5125  -11.2674    2.4384 H   0  0  0  0  0  0  0  0  0  0  0  0
   -2.7870  -10.8365    4.8460 H   0  0  0  0  0  0  0  0  0  0  0  0
   -3.4743   -7.5447    6.2751 H   0  0  0  0  0  0  0  0  0  0  0  0
   -3.3162   -9.2735    6.6193 H   0  0  0  0  0  0  0  0  0  0  0  0
   -0.8305   -9.0531    6.5579 H   0  0  0  0  0  0  0  0  0  0  0  0
   -0.9876   -7.3329    6.2045 H   0  0  0  0  0  0  0  0  0  0  0  0
   -1.5312   -7.9667    7.7624 H   0  0  0  0  0  0  0  0  0  0  0  0
   -2.6825   -6.6398    4.1043 H   0  0  0  0  0  0  0  0  0  0  0  0
    0.0841    2.0753   -0.1112 H   0  0  0  0  0  0  0  0  0  0  0  0
   -0.6132    0.4642   -0.2569 H   0  0  0  0  0  0  0  0  0  0  0  0
    1.2298    0.0064   -2.0494 H   0  0  0  0  0  0  0  0  0  0  0  0
    0.0476    1.2465   -2.4931 H   0  0  0  0  0  0  0  0  0  0  0  0
    1.6461    1.7102   -1.9098 H   0  0  0  0  0  0  0  0  0  0  0  0
   -0.1499   -1.3034   -1.2110 H   0  0  0  0  0  0  0  0  0  0  0  0
   -0.8412   -2.9169   -1.3514 H   0  0  0  0  0  0  0  0  0  0  0  0
   -2.5688   -1.1070   -1.6402 H   0  0  0  0  0  0  0  0  0  0  0  0
   -2.3317   -0.6423    0.0511 H   0  0  0  0  0  0  0  0  0  0  0  0
   -2.9388   -2.2433   -0.3450 H   0  0  0  0  0  0  0  0  0  0  0  0
   -3.6975  -12.4749   -3.5368 H   0  0  0  0  0  0  0  0  0  0  0  0
   -1.9495  -12.3007   -3.2844 H   0  0  0  0  0  0  0  0  0  0  0  0
   -2.5075  -12.1529   -5.6988 H   0  0  0  0  0  0  0  0  0  0  0  0
   -1.8975  -10.5912   -5.1433 H   0  0  0  0  0  0  0  0  0  0  0  0
   -3.6299  -10.8276   -5.3739 H   0  0  0  0  0  0  0  0  0  0  0  0
   -0.4380  -10.5405   -3.2239 H   0  0  0  0  0  0  0  0  0  0  0  0
   -0.1126   -9.1794   -2.1314 H   0  0  0  0  0  0  0  0  0  0  0  0
   -0.3835  -10.6369   -0.1653 H   0  0  0  0  0  0  0  0  0  0  0  0
    0.8405  -11.3059   -1.2462 H   0  0  0  0  0  0  0  0  0  0  0  0
   -0.7755  -12.0168   -1.1937 H   0  0  0  0  0  0  0  0  0  0  0  0
   -6.9083  -10.8156   -2.2884 H   0  0  0  0  0  0  0  0  0  0  0  0
   -9.9425  -13.2398   -2.9990 H   0  0  0  0  0  0  0  0  0  0  0  0
  -10.8918  -11.9907   -3.8631 H   0  0  0  0  0  0  0  0  0  0  0  0
   -9.9934  -13.7005   -5.4523 H   0  0  0  0  0  0  0  0  0  0  0  0
   -9.3282  -12.0954   -5.7766 H   0  0  0  0  0  0  0  0  0  0  0  0
   -8.3450  -13.3074   -4.9392 H   0  0  0  0  0  0  0  0  0  0  0  0
  1  2  2  0  0  0  0
  2  3  1  0  0  0  0
  3  4  2  0  0  0  0
  3  5  1  0  0  0  0
  5  6  2  0  0  0  0
  6  7  1  0  0  0  0
  7  8  2  0  0  0  0
  8  9  1  0  0  0  0
  8 10  1  0  0  0  0
 10 11  2  0  0  0  0
 11 12  1  0  0  0  0
 12 13  2  0  0  0  0
 13 14  1  0  0  0  0
 14 15  3  0  0  0  0
 13 16  1  0  0  0  0
 16 17  3  0  0  0  0
  1 18  1  0  0  0  0
 18 19  2  0  0  0  0
 19 20  1  0  0  0  0
 19 21  1  0  0  0  0
 21 22  1  0  0  0  0
 21 23  2  0  0  0  0
 23 24  1  0  0  0  0
 24 25  2  0  0  0  0
 25 26  1  0  0  0  0
 26 27  1  0  0  0  0
 27 28  1  0  0  0  0
 26 29  2  0  0  0  0
 29 30  1  0  0  0  0
 30 31  2  0  0  0  0
 29 32  1  0  0  0  0
 32 33  1  0  0  0  0
 23 34  1  0  0  0  0
 34 35  2  0  0  0  0
 35 36  1  0  0  0  0
 36 37  2  0  0  0  0
 37 38  1  0  0  0  0
 38 39  2  0  0  0  0
 39 40  1  0  0  0  0
 40 41  1  0  0  0  0
 41 42  1  0  0  0  0
 40 43  2  0  0  0  0
 35 44  1  0  0  0  0
 44 45  1  0  0  0  0
 45 46  1  0  0  0  0
 46 47  1  0  0  0  0
 47 48  1  0  0  0  0
 48 49  1  0  0  0  0
 49 50  2  0  0  0  0
 50 51  1  0  0  0  0
 51 52  1  0  0  0  0
 49 53  1  0  0  0  0
 53 54  1  0  0  0  0
 54 55  1  0  0  0  0
 55 56  1  0  0  0  0
 56 57  1  0  0  0  0
 57 58  1  0  0  0  0
 58 59  2  0  0  0  0
 59 60  1  0  0  0  0
 60 61  2  0  0  0  0
 61 62  1  0  0  0  0
 62 63  1  0  0  0  0
 63 64  1  0  0  0  0
 62 65  2  0  0  0  0
 57 66  2  0  0  0  0
 66 67  1  0  0  0  0
 67 68  1  0  0  0  0
 68 69  1  0  0  0  0
 69 70  1  0  0  0  0
 70 71  1  0  0  0  0
 71 72  1  0  0  0  0
 72 73  1  0  0  0  0
 73 74  1  0  0  0  0
 74 75  1  0  0  0  0
 75 76  1  0  0  0  0
 73 77  1  0  0  0  0
 77 78  1  0  0  0  0
 70 79  1  0  0  0  0
 79 80  1  0  0  0  0
 66 81  1  0  0  0  0
 81 82  2  0  0  0  0
 82 83  1  0  0  0  0
 82 84  1  0  0  0  0
 84 85  1  0  0  0  0
 84 86  2  0  0  0  0
 86 87  1  0  0  0  0
 87 88  2  0  0  0  0
 88 89  1  0  0  0  0
 89 90  1  0  0  0  0
 90 91  1  0  0  0  0
 89 92  2  0  0  0  0
 92 93  1  0  0  0  0
 93 94  2  0  0  0  0
 92 95  1  0  0  0  0
 95 96  1  0  0  0  0
 86 97  1  0  0  0  0
 97 98  2  0  0  0  0
 98 99  1  0  0  0  0
 99100  3  0  0  0  0
 98101  1  0  0  0  0
101102  2  0  0  0  0
101103  1  0  0  0  0
103104  1  0  0  0  0
104105  1  0  0  0  0
 12  2  1  0  0  0  0
 31 18  1  0  0  0  0
 76 34  1  0  0  0  0
 94 81  1  0  0  0  0
 11  5  1  0  0  0  0
 31 24  1  0  0  0  0
 43 36  1  0  0  0  0
 75 44  2  0  0  0  0
 94 87  1  0  0  0  0
 74 46  2  0  0  0  0
 72 47  2  0  0  0  0
 52 48  2  0  0  0  0
 71 53  2  0  0  0  0
 69 54  2  0  0  0  0
 68 56  2  0  0  0  0
 65 58  1  0  0  0  0
  1106  1  0  0  0  0
  6107  1  0  0  0  0
  7108  1  0  0  0  0
 10109  1  0  0  0  0
 27110  1  0  0  0  0
 27111  1  0  0  0  0
 28112  1  0  0  0  0
 28113  1  0  0  0  0
 28114  1  0  0  0  0
 32115  1  0  0  0  0
 32116  1  0  0  0  0
 33117  1  0  0  0  0
 33118  1  0  0  0  0
 33119  1  0  0  0  0
 37120  1  0  0  0  0
 38121  1  0  0  0  0
 39122  1  0  0  0  0
 41123  1  0  0  0  0
 41124  1  0  0  0  0
 42125  1  0  0  0  0
 42126  1  0  0  0  0
 42127  1  0  0  0  0
 43128  1  0  0  0  0
 59129  1  0  0  0  0
 60130  1  0  0  0  0
 61131  1  0  0  0  0
 63132  1  0  0  0  0
 63133  1  0  0  0  0
 64134  1  0  0  0  0
 64135  1  0  0  0  0
 64136  1  0  0  0  0
 65137  1  0  0  0  0
 77138  1  0  0  0  0
 77139  1  0  0  0  0
 78140  1  0  0  0  0
 78141  1  0  0  0  0
 78142  1  0  0  0  0
 79143  1  0  0  0  0
 79144  1  0  0  0  0
 80145  1  0  0  0  0
 80146  1  0  0  0  0
 80147  1  0  0  0  0
 90148  1  0  0  0  0
 90149  1  0  0  0  0
 91150  1  0  0  0  0
 91151  1  0  0  0  0
 91152  1  0  0  0  0
 95153  1  0  0  0  0
 95154  1  0  0  0  0
 96155  1  0  0  0  0
 96156  1  0  0  0  0
 96157  1  0  0  0  0
 97158  1  0  0  0  0
104159  1  0  0  0  0
104160  1  0  0  0  0
105161  1  0  0  0  0
105162  1  0  0  0  0
105163  1  0  0  0  0
M  END
