
  xtb     02052216043D
 energy: -337.773778420718 gnorm: 0.000301552386 xtb: 6.4.1 (unknown)
202220  0     0  0            999 V2000
    0.3265   -5.9561   10.6842 C   0  0  0  0  0  0  0  0  0  0  0  0
    0.9740   -6.2394   11.8422 C   0  0  0  0  0  0  0  0  0  0  0  0
    2.2726   -5.6389   12.2588 C   0  0  0  0  0  0  0  0  0  0  0  0
    2.9236   -4.8069   11.6710 O   0  0  0  0  0  0  0  0  0  0  0  0
    2.5278   -6.1666   13.6145 C   0  0  0  0  0  0  0  0  0  0  0  0
    3.6164   -5.9393   14.4355 C   0  0  0  0  0  0  0  0  0  0  0  0
    3.6415   -6.5396   15.6838 C   0  0  0  0  0  0  0  0  0  0  0  0
    2.5773   -7.3395   16.0811 C   0  0  0  0  0  0  0  0  0  0  0  0
    2.6305   -8.1457   17.8005 Br  0  0  0  0  0  0  0  0  0  0  0  0
    1.4725   -7.5725   15.2720 C   0  0  0  0  0  0  0  0  0  0  0  0
    1.4529   -6.9766   14.0208 C   0  0  0  0  0  0  0  0  0  0  0  0
    0.4603   -7.0278   12.9488 C   0  0  0  0  0  0  0  0  0  0  0  0
   -0.7127   -7.7316   12.9781 C   0  0  0  0  0  0  0  0  0  0  0  0
   -1.6512   -7.8043   11.9253 C   0  0  0  0  0  0  0  0  0  0  0  0
   -2.4637   -7.9274   11.1236 N   0  0  0  0  0  0  0  0  0  0  0  0
   -1.1547   -8.4913   14.0832 C   0  0  0  0  0  0  0  0  0  0  0  0
   -1.5722   -9.1197   14.9479 N   0  0  0  0  0  0  0  0  0  0  0  0
    0.8814   -5.3091    9.5303 C   0  0  0  0  0  0  0  0  0  0  0  0
    2.1611   -5.5183    9.0389 C   0  0  0  0  0  0  0  0  0  0  0  0
    2.9710   -6.4118    9.6196 F   0  0  0  0  0  0  0  0  0  0  0  0
    2.6325   -4.8892    7.8811 C   0  0  0  0  0  0  0  0  0  0  0  0
    3.9135   -5.1229    7.5500 F   0  0  0  0  0  0  0  0  0  0  0  0
    1.8484   -4.0413    7.1120 C   0  0  0  0  0  0  0  0  0  0  0  0
    0.5211   -3.8108    7.6003 C   0  0  0  0  0  0  0  0  0  0  0  0
   -0.2962   -3.0074    6.9088 N   0  0  0  0  0  0  0  0  0  0  0  0
   -1.5155   -2.7784    7.3280 C   0  0  0  0  0  0  0  0  0  0  0  0
   -2.3176   -1.8258    6.4962 C   0  0  0  0  0  0  0  0  0  0  0  0
   -2.0287   -0.3860    6.9275 C   0  0  0  0  0  0  0  0  0  0  0  0
   -1.9814   -3.3887    8.5255 C   0  0  0  0  0  0  0  0  0  0  0  0
   -1.2032   -4.1956    9.2060 N   0  0  0  0  0  0  0  0  0  0  0  0
    0.0448   -4.4383    8.7735 C   0  0  0  0  0  0  0  0  0  0  0  0
   -3.3713   -3.2126    9.0533 C   0  0  0  0  0  0  0  0  0  0  0  0
   -4.3004   -4.2660    8.4431 C   0  0  0  0  0  0  0  0  0  0  0  0
    2.2570   -3.3968    5.8927 C   0  0  0  0  0  0  0  0  0  0  0  0
    3.0291   -3.8525    4.8329 C   0  0  0  0  0  0  0  0  0  0  0  0
    3.6154   -5.2167    4.6424 C   0  0  0  0  0  0  0  0  0  0  0  0
    2.5309   -6.2946    4.6045 C   0  0  0  0  0  0  0  0  0  0  0  0
    3.0698   -2.8957    3.8086 C   0  0  0  0  0  0  0  0  0  0  0  0
    3.7327   -2.9174    2.1944 S   0  0  0  0  0  0  0  0  0  0  0  0
    3.0029   -1.3752    1.8910 C   0  0  0  0  0  0  0  0  0  0  0  0
    2.7953   -0.5528    0.7372 C   0  0  0  0  0  0  0  0  0  0  0  0
    3.1839   -0.7162   -0.5897 C   0  0  0  0  0  0  0  0  0  0  0  0
    2.6732    0.1715   -1.5084 C   0  0  0  0  0  0  0  0  0  0  0  0
    2.8594    0.1716   -3.0167 C   0  0  0  0  0  0  0  0  0  0  0  0
    4.2252    0.6699   -3.4599 C   0  0  0  0  0  0  0  0  0  0  0  0
    4.5401    0.6318   -4.8133 C   0  0  0  0  0  0  0  0  0  0  0  0
    5.7592    1.0990   -5.2628 C   0  0  0  0  0  0  0  0  0  0  0  0
    6.6959    1.6149   -4.3755 C   0  0  0  0  0  0  0  0  0  0  0  0
    8.0079    2.1539   -4.8687 C   0  0  0  0  0  0  0  0  0  0  0  0
    7.8936    3.6497   -5.1692 C   0  0  0  0  0  0  0  0  0  0  0  0
    6.3707    1.6611   -3.0272 C   0  0  0  0  0  0  0  0  0  0  0  0
    5.1489    1.1984   -2.5710 C   0  0  0  0  0  0  0  0  0  0  0  0
    2.5740   -1.2107   -3.5695 C   0  0  0  0  0  0  0  0  0  0  0  0
    3.5986   -2.1425   -3.6762 C   0  0  0  0  0  0  0  0  0  0  0  0
    3.3436   -3.4121   -4.1578 C   0  0  0  0  0  0  0  0  0  0  0  0
    2.0632   -3.7847   -4.5456 C   0  0  0  0  0  0  0  0  0  0  0  0
    1.7842   -5.1746   -5.0399 C   0  0  0  0  0  0  0  0  0  0  0  0
    1.4427   -6.0996   -3.8700 C   0  0  0  0  0  0  0  0  0  0  0  0
    1.0397   -2.8556   -4.4193 C   0  0  0  0  0  0  0  0  0  0  0  0
    1.2884   -1.5859   -3.9324 C   0  0  0  0  0  0  0  0  0  0  0  0
    1.8472    1.2095   -3.4236 C   0  0  0  0  0  0  0  0  0  0  0  0
    1.2929    1.8086   -2.3080 C   0  0  0  0  0  0  0  0  0  0  0  0
    1.7772    1.1921   -1.1126 C   0  0  0  0  0  0  0  0  0  0  0  0
    1.4358    1.3937    0.2215 C   0  0  0  0  0  0  0  0  0  0  0  0
    1.9601    0.5167    1.1407 C   0  0  0  0  0  0  0  0  0  0  0  0
    1.6880    0.4611    2.6335 C   0  0  0  0  0  0  0  0  0  0  0  0
    0.1972    0.5023    2.8950 C   0  0  0  0  0  0  0  0  0  0  0  0
   -0.4430    1.7075    3.1517 C   0  0  0  0  0  0  0  0  0  0  0  0
   -1.8082    1.7451    3.3640 C   0  0  0  0  0  0  0  0  0  0  0  0
   -2.5704    0.5855    3.3172 C   0  0  0  0  0  0  0  0  0  0  0  0
   -4.0595    0.6371    3.5067 C   0  0  0  0  0  0  0  0  0  0  0  0
   -4.7582    0.8921    2.1697 C   0  0  0  0  0  0  0  0  0  0  0  0
   -1.9291   -0.6135    3.0365 C   0  0  0  0  0  0  0  0  0  0  0  0
   -0.5635   -0.6570    2.8278 C   0  0  0  0  0  0  0  0  0  0  0  0
    2.4356    1.5254    3.4200 C   0  0  0  0  0  0  0  0  0  0  0  0
    2.2217    1.6167    4.7906 C   0  0  0  0  0  0  0  0  0  0  0  0
    2.9235    2.5311    5.5506 C   0  0  0  0  0  0  0  0  0  0  0  0
    3.8617    3.3733    4.9660 C   0  0  0  0  0  0  0  0  0  0  0  0
    4.5972    4.3931    5.7868 C   0  0  0  0  0  0  0  0  0  0  0  0
    3.8198    5.7102    5.8274 C   0  0  0  0  0  0  0  0  0  0  0  0
    4.0713    3.2768    3.5978 C   0  0  0  0  0  0  0  0  0  0  0  0
    3.3721    2.3615    2.8310 C   0  0  0  0  0  0  0  0  0  0  0  0
    2.3231   -0.8584    2.9777 C   0  0  0  0  0  0  0  0  0  0  0  0
    2.3647   -1.7151    4.0760 C   0  0  0  0  0  0  0  0  0  0  0  0
    1.5902   -1.7946    5.6052 S   0  0  0  0  0  0  0  0  0  0  0  0
    0.0736    2.9832   -2.6683 S   0  0  0  0  0  0  0  0  0  0  0  0
    0.2779    2.6443   -4.3640 C   0  0  0  0  0  0  0  0  0  0  0  0
   -0.4140    3.0803   -5.5041 C   0  0  0  0  0  0  0  0  0  0  0  0
   -1.6054    3.9805   -5.4045 C   0  0  0  0  0  0  0  0  0  0  0  0
   -2.8964    3.2613   -5.7960 C   0  0  0  0  0  0  0  0  0  0  0  0
    0.0659    2.4441   -6.6336 C   0  0  0  0  0  0  0  0  0  0  0  0
    1.3760    1.3235   -6.2791 S   0  0  0  0  0  0  0  0  0  0  0  0
    1.2766    1.6921   -4.6025 C   0  0  0  0  0  0  0  0  0  0  0  0
   -0.4368    2.5146   -7.9839 C   0  0  0  0  0  0  0  0  0  0  0  0
   -0.6111    1.3712   -8.7516 C   0  0  0  0  0  0  0  0  0  0  0  0
   -0.2461    0.1691   -8.2742 F   0  0  0  0  0  0  0  0  0  0  0  0
   -1.2459    1.3967   -9.9960 C   0  0  0  0  0  0  0  0  0  0  0  0
   -1.4462    0.2319  -10.6310 F   0  0  0  0  0  0  0  0  0  0  0  0
   -1.7684    2.5597  -10.5320 C   0  0  0  0  0  0  0  0  0  0  0  0
   -1.4915    3.7719   -9.8347 C   0  0  0  0  0  0  0  0  0  0  0  0
   -1.8401    4.9406  -10.3918 N   0  0  0  0  0  0  0  0  0  0  0  0
   -1.5712    6.0605   -9.7693 C   0  0  0  0  0  0  0  0  0  0  0  0
   -2.0849    7.3091  -10.4181 C   0  0  0  0  0  0  0  0  0  0  0  0
   -3.4712    7.6423   -9.8591 C   0  0  0  0  0  0  0  0  0  0  0  0
   -0.8598    6.0441   -8.5381 C   0  0  0  0  0  0  0  0  0  0  0  0
   -0.4967    4.9088   -7.9923 N   0  0  0  0  0  0  0  0  0  0  0  0
   -0.8163    3.7503   -8.5905 C   0  0  0  0  0  0  0  0  0  0  0  0
   -0.4025    7.2883   -7.8380 C   0  0  0  0  0  0  0  0  0  0  0  0
    0.9467    7.7411   -8.4028 C   0  0  0  0  0  0  0  0  0  0  0  0
   -2.5196    2.5733  -11.7572 C   0  0  0  0  0  0  0  0  0  0  0  0
   -3.6272    3.3383  -11.9238 C   0  0  0  0  0  0  0  0  0  0  0  0
   -4.4152    3.9119  -10.7952 C   0  0  0  0  0  0  0  0  0  0  0  0
   -4.2125    3.7967   -9.6062 O   0  0  0  0  0  0  0  0  0  0  0  0
   -5.5955    4.5354  -11.4231 C   0  0  0  0  0  0  0  0  0  0  0  0
   -6.6443    5.2021  -10.8161 C   0  0  0  0  0  0  0  0  0  0  0  0
   -7.6709    5.6877  -11.6086 C   0  0  0  0  0  0  0  0  0  0  0  0
   -7.6360    5.4874  -12.9850 C   0  0  0  0  0  0  0  0  0  0  0  0
   -8.9275    6.0889  -13.9518 Cl  0  0  0  0  0  0  0  0  0  0  0  0
   -6.5917    4.8112  -13.6078 C   0  0  0  0  0  0  0  0  0  0  0  0
   -5.5611    4.3344  -12.8142 C   0  0  0  0  0  0  0  0  0  0  0  0
   -4.3420    3.6058  -13.1588 C   0  0  0  0  0  0  0  0  0  0  0  0
   -3.9132    3.3139  -14.4240 C   0  0  0  0  0  0  0  0  0  0  0  0
   -2.6877    2.6844  -14.7353 C   0  0  0  0  0  0  0  0  0  0  0  0
   -1.7042    2.1979  -15.0713 N   0  0  0  0  0  0  0  0  0  0  0  0
   -4.6295    3.6294  -15.5990 C   0  0  0  0  0  0  0  0  0  0  0  0
   -5.1637    3.8543  -16.5894 N   0  0  0  0  0  0  0  0  0  0  0  0
   -0.7279   -6.1808   10.5908 H   0  0  0  0  0  0  0  0  0  0  0  0
    4.4268   -5.3117   14.0991 H   0  0  0  0  0  0  0  0  0  0  0  0
    4.4779   -6.3920   16.3493 H   0  0  0  0  0  0  0  0  0  0  0  0
    0.6680   -8.1972   15.6244 H   0  0  0  0  0  0  0  0  0  0  0  0
   -2.0065   -1.9399    5.4574 H   0  0  0  0  0  0  0  0  0  0  0  0
   -3.3833   -2.0360    6.5779 H   0  0  0  0  0  0  0  0  0  0  0  0
   -0.9656   -0.1815    6.8293 H   0  0  0  0  0  0  0  0  0  0  0  0
   -2.5731    0.3078    6.2925 H   0  0  0  0  0  0  0  0  0  0  0  0
   -2.3212   -0.2217    7.9625 H   0  0  0  0  0  0  0  0  0  0  0  0
   -3.3434   -3.3514   10.1345 H   0  0  0  0  0  0  0  0  0  0  0  0
   -3.7417   -2.2114    8.8329 H   0  0  0  0  0  0  0  0  0  0  0  0
   -4.3248   -4.1832    7.3584 H   0  0  0  0  0  0  0  0  0  0  0  0
   -5.3100   -4.1378    8.8245 H   0  0  0  0  0  0  0  0  0  0  0  0
   -3.9539   -5.2622    8.7056 H   0  0  0  0  0  0  0  0  0  0  0  0
    4.1526   -5.2170    3.6911 H   0  0  0  0  0  0  0  0  0  0  0  0
    4.3338   -5.4462    5.4279 H   0  0  0  0  0  0  0  0  0  0  0  0
    1.9903   -6.3390    5.5472 H   0  0  0  0  0  0  0  0  0  0  0  0
    2.9811   -7.2664    4.4196 H   0  0  0  0  0  0  0  0  0  0  0  0
    1.8174   -6.0860    3.8100 H   0  0  0  0  0  0  0  0  0  0  0  0
    3.8293   -1.5298   -0.8834 H   0  0  0  0  0  0  0  0  0  0  0  0
    3.8275    0.2233   -5.5154 H   0  0  0  0  0  0  0  0  0  0  0  0
    5.9888    1.0577   -6.3179 H   0  0  0  0  0  0  0  0  0  0  0  0
    8.3062    1.6266   -5.7769 H   0  0  0  0  0  0  0  0  0  0  0  0
    8.7803    1.9972   -4.1129 H   0  0  0  0  0  0  0  0  0  0  0  0
    7.1350    3.8256   -5.9287 H   0  0  0  0  0  0  0  0  0  0  0  0
    8.8430    4.0396   -5.5289 H   0  0  0  0  0  0  0  0  0  0  0  0
    7.6112    4.1954   -4.2715 H   0  0  0  0  0  0  0  0  0  0  0  0
    7.0840    2.0607   -2.3202 H   0  0  0  0  0  0  0  0  0  0  0  0
    4.9212    1.2446   -1.5162 H   0  0  0  0  0  0  0  0  0  0  0  0
    4.6050   -1.8683   -3.3936 H   0  0  0  0  0  0  0  0  0  0  0  0
    4.1540   -4.1225   -4.2409 H   0  0  0  0  0  0  0  0  0  0  0  0
    0.9479   -5.1565   -5.7412 H   0  0  0  0  0  0  0  0  0  0  0  0
    2.6602   -5.5642   -5.5624 H   0  0  0  0  0  0  0  0  0  0  0  0
    1.2392   -7.1064   -4.2272 H   0  0  0  0  0  0  0  0  0  0  0  0
    2.2711   -6.1410   -3.1661 H   0  0  0  0  0  0  0  0  0  0  0  0
    0.5647   -5.7334   -3.3424 H   0  0  0  0  0  0  0  0  0  0  0  0
    0.0349   -3.1254   -4.7111 H   0  0  0  0  0  0  0  0  0  0  0  0
    0.4732   -0.8832   -3.8394 H   0  0  0  0  0  0  0  0  0  0  0  0
    0.7594    2.1838    0.5103 H   0  0  0  0  0  0  0  0  0  0  0  0
    0.1313    2.6216    3.1949 H   0  0  0  0  0  0  0  0  0  0  0  0
   -2.2889    2.6911    3.5702 H   0  0  0  0  0  0  0  0  0  0  0  0
   -4.4141   -0.3081    3.9232 H   0  0  0  0  0  0  0  0  0  0  0  0
   -4.3181    1.4374    4.2037 H   0  0  0  0  0  0  0  0  0  0  0  0
   -5.8366    0.9327    2.3043 H   0  0  0  0  0  0  0  0  0  0  0  0
   -4.4251    1.8357    1.7433 H   0  0  0  0  0  0  0  0  0  0  0  0
   -4.5249    0.0980    1.4640 H   0  0  0  0  0  0  0  0  0  0  0  0
   -2.5071   -1.5252    2.9755 H   0  0  0  0  0  0  0  0  0  0  0  0
   -0.0876   -1.6017    2.6084 H   0  0  0  0  0  0  0  0  0  0  0  0
    1.4990    0.9652    5.2606 H   0  0  0  0  0  0  0  0  0  0  0  0
    2.7462    2.5869    6.6151 H   0  0  0  0  0  0  0  0  0  0  0  0
    4.7298    4.0221    6.8050 H   0  0  0  0  0  0  0  0  0  0  0  0
    5.5848    4.5718    5.3567 H   0  0  0  0  0  0  0  0  0  0  0  0
    3.6916    6.1049    4.8219 H   0  0  0  0  0  0  0  0  0  0  0  0
    2.8348    5.5545    6.2619 H   0  0  0  0  0  0  0  0  0  0  0  0
    4.3507    6.4475    6.4250 H   0  0  0  0  0  0  0  0  0  0  0  0
    4.7972    3.9216    3.1228 H   0  0  0  0  0  0  0  0  0  0  0  0
    3.5605    2.3017    1.7693 H   0  0  0  0  0  0  0  0  0  0  0  0
   -1.6801    4.3214   -4.3691 H   0  0  0  0  0  0  0  0  0  0  0  0
   -1.4656    4.8506   -6.0451 H   0  0  0  0  0  0  0  0  0  0  0  0
   -3.0114    2.3438   -5.2226 H   0  0  0  0  0  0  0  0  0  0  0  0
   -3.7518    3.9020   -5.5974 H   0  0  0  0  0  0  0  0  0  0  0  0
   -2.8982    3.0124   -6.8545 H   0  0  0  0  0  0  0  0  0  0  0  0
   -1.4059    8.1454  -10.2550 H   0  0  0  0  0  0  0  0  0  0  0  0
   -2.1681    7.1233  -11.4898 H   0  0  0  0  0  0  0  0  0  0  0  0
   -4.1462    6.8051  -10.0188 H   0  0  0  0  0  0  0  0  0  0  0  0
   -3.8767    8.5183  -10.3592 H   0  0  0  0  0  0  0  0  0  0  0  0
   -3.4220    7.8419   -8.7908 H   0  0  0  0  0  0  0  0  0  0  0  0
   -1.1387    8.0845   -7.9464 H   0  0  0  0  0  0  0  0  0  0  0  0
   -0.2810    7.0598   -6.7785 H   0  0  0  0  0  0  0  0  0  0  0  0
    1.2824    8.6404   -7.8928 H   0  0  0  0  0  0  0  0  0  0  0  0
    0.8742    7.9518   -9.4677 H   0  0  0  0  0  0  0  0  0  0  0  0
    1.6889    6.9603   -8.2574 H   0  0  0  0  0  0  0  0  0  0  0  0
   -2.1616    1.9343  -12.5540 H   0  0  0  0  0  0  0  0  0  0  0  0
   -6.6527    5.3365   -9.7453 H   0  0  0  0  0  0  0  0  0  0  0  0
   -8.5015    6.2171  -11.1693 H   0  0  0  0  0  0  0  0  0  0  0  0
   -6.6074    4.6686  -14.6757 H   0  0  0  0  0  0  0  0  0  0  0  0
  1  2  2  0  0  0  0
  2  3  1  0  0  0  0
  3  4  2  0  0  0  0
  3  5  1  0  0  0  0
  5  6  2  0  0  0  0
  6  7  1  0  0  0  0
  7  8  2  0  0  0  0
  8  9  1  0  0  0  0
  8 10  1  0  0  0  0
 10 11  2  0  0  0  0
 11 12  1  0  0  0  0
 12 13  2  0  0  0  0
 13 14  1  0  0  0  0
 14 15  3  0  0  0  0
 13 16  1  0  0  0  0
 16 17  3  0  0  0  0
  1 18  1  0  0  0  0
 18 19  2  0  0  0  0
 19 20  1  0  0  0  0
 19 21  1  0  0  0  0
 21 22  1  0  0  0  0
 21 23  2  0  0  0  0
 23 24  1  0  0  0  0
 24 25  2  0  0  0  0
 25 26  1  0  0  0  0
 26 27  1  0  0  0  0
 27 28  1  0  0  0  0
 26 29  2  0  0  0  0
 29 30  1  0  0  0  0
 30 31  2  0  0  0  0
 29 32  1  0  0  0  0
 32 33  1  0  0  0  0
 23 34  1  0  0  0  0
 34 35  2  0  0  0  0
 35 36  1  0  0  0  0
 36 37  1  0  0  0  0
 35 38  1  0  0  0  0
 38 39  1  0  0  0  0
 39 40  1  0  0  0  0
 40 41  1  0  0  0  0
 41 42  2  0  0  0  0
 42 43  1  0  0  0  0
 43 44  1  0  0  0  0
 44 45  1  0  0  0  0
 45 46  2  0  0  0  0
 46 47  1  0  0  0  0
 47 48  2  0  0  0  0
 48 49  1  0  0  0  0
 49 50  1  0  0  0  0
 48 51  1  0  0  0  0
 51 52  2  0  0  0  0
 44 53  1  0  0  0  0
 53 54  2  0  0  0  0
 54 55  1  0  0  0  0
 55 56  2  0  0  0  0
 56 57  1  0  0  0  0
 57 58  1  0  0  0  0
 56 59  1  0  0  0  0
 59 60  2  0  0  0  0
 44 61  1  0  0  0  0
 61 62  2  0  0  0  0
 62 63  1  0  0  0  0
 63 64  1  0  0  0  0
 64 65  2  0  0  0  0
 65 66  1  0  0  0  0
 66 67  1  0  0  0  0
 67 68  2  0  0  0  0
 68 69  1  0  0  0  0
 69 70  2  0  0  0  0
 70 71  1  0  0  0  0
 71 72  1  0  0  0  0
 70 73  1  0  0  0  0
 73 74  2  0  0  0  0
 66 75  1  0  0  0  0
 75 76  2  0  0  0  0
 76 77  1  0  0  0  0
 77 78  2  0  0  0  0
 78 79  1  0  0  0  0
 79 80  1  0  0  0  0
 78 81  1  0  0  0  0
 81 82  2  0  0  0  0
 66 83  1  0  0  0  0
 83 84  1  0  0  0  0
 84 85  1  0  0  0  0
 62 86  1  0  0  0  0
 86 87  1  0  0  0  0
 87 88  1  0  0  0  0
 88 89  1  0  0  0  0
 89 90  1  0  0  0  0
 88 91  2  0  0  0  0
 91 92  1  0  0  0  0
 92 93  1  0  0  0  0
 91 94  1  0  0  0  0
 94 95  2  0  0  0  0
 95 96  1  0  0  0  0
 95 97  1  0  0  0  0
 97 98  1  0  0  0  0
 97 99  2  0  0  0  0
 99100  1  0  0  0  0
100101  2  0  0  0  0
101102  1  0  0  0  0
102103  1  0  0  0  0
103104  1  0  0  0  0
102105  2  0  0  0  0
105106  1  0  0  0  0
106107  2  0  0  0  0
105108  1  0  0  0  0
108109  1  0  0  0  0
 99110  1  0  0  0  0
110111  2  0  0  0  0
111112  1  0  0  0  0
112113  2  0  0  0  0
112114  1  0  0  0  0
114115  2  0  0  0  0
115116  1  0  0  0  0
116117  2  0  0  0  0
117118  1  0  0  0  0
117119  1  0  0  0  0
119120  2  0  0  0  0
120121  1  0  0  0  0
121122  2  0  0  0  0
122123  1  0  0  0  0
123124  3  0  0  0  0
122125  1  0  0  0  0
125126  3  0  0  0  0
 12  2  1  0  0  0  0
 31 18  1  0  0  0  0
 85 34  1  0  0  0  0
 93 87  2  0  0  0  0
107 94  1  0  0  0  0
121111  1  0  0  0  0
 11  5  1  0  0  0  0
 31 24  1  0  0  0  0
 84 38  2  0  0  0  0
107100  1  0  0  0  0
120114  1  0  0  0  0
 83 40  2  0  0  0  0
 65 41  1  0  0  0  0
 74 67  1  0  0  0  0
 82 75  1  0  0  0  0
 63 43  2  0  0  0  0
 52 45  1  0  0  0  0
 60 53  1  0  0  0  0
 93 61  1  0  0  0  0
  1127  1  0  0  0  0
  6128  1  0  0  0  0
  7129  1  0  0  0  0
 10130  1  0  0  0  0
 27131  1  0  0  0  0
 27132  1  0  0  0  0
 28133  1  0  0  0  0
 28134  1  0  0  0  0
 28135  1  0  0  0  0
 32136  1  0  0  0  0
 32137  1  0  0  0  0
 33138  1  0  0  0  0
 33139  1  0  0  0  0
 33140  1  0  0  0  0
 36141  1  0  0  0  0
 36142  1  0  0  0  0
 37143  1  0  0  0  0
 37144  1  0  0  0  0
 37145  1  0  0  0  0
 42146  1  0  0  0  0
 46147  1  0  0  0  0
 47148  1  0  0  0  0
 49149  1  0  0  0  0
 49150  1  0  0  0  0
 50151  1  0  0  0  0
 50152  1  0  0  0  0
 50153  1  0  0  0  0
 51154  1  0  0  0  0
 52155  1  0  0  0  0
 54156  1  0  0  0  0
 55157  1  0  0  0  0
 57158  1  0  0  0  0
 57159  1  0  0  0  0
 58160  1  0  0  0  0
 58161  1  0  0  0  0
 58162  1  0  0  0  0
 59163  1  0  0  0  0
 60164  1  0  0  0  0
 64165  1  0  0  0  0
 68166  1  0  0  0  0
 69167  1  0  0  0  0
 71168  1  0  0  0  0
 71169  1  0  0  0  0
 72170  1  0  0  0  0
 72171  1  0  0  0  0
 72172  1  0  0  0  0
 73173  1  0  0  0  0
 74174  1  0  0  0  0
 76175  1  0  0  0  0
 77176  1  0  0  0  0
 79177  1  0  0  0  0
 79178  1  0  0  0  0
 80179  1  0  0  0  0
 80180  1  0  0  0  0
 80181  1  0  0  0  0
 81182  1  0  0  0  0
 82183  1  0  0  0  0
 89184  1  0  0  0  0
 89185  1  0  0  0  0
 90186  1  0  0  0  0
 90187  1  0  0  0  0
 90188  1  0  0  0  0
103189  1  0  0  0  0
103190  1  0  0  0  0
104191  1  0  0  0  0
104192  1  0  0  0  0
104193  1  0  0  0  0
108194  1  0  0  0  0
108195  1  0  0  0  0
109196  1  0  0  0  0
109197  1  0  0  0  0
109198  1  0  0  0  0
110199  1  0  0  0  0
115200  1  0  0  0  0
116201  1  0  0  0  0
119202  1  0  0  0  0
M  END
