175

C          2.02820      -12.34290       -2.44260
C          2.56480      -12.48730       -3.68370
C          2.05470      -11.78150       -4.89230
O          0.98880      -11.22220       -5.03400
C          3.03310      -12.08240       -5.95770
C          3.08120      -11.59820       -7.25140
C          4.09400      -12.03900       -8.08780
C          5.01920      -12.96110       -7.61520
Br         6.39970      -13.55060       -8.78110
C          4.97670      -13.46980       -6.32310
C          3.96860      -13.01940       -5.48540
C          3.66730      -13.33620       -4.08830
C          4.35200      -14.22910       -3.30910
C          5.43890      -15.00800       -3.76070
N          6.32540      -15.66870       -4.06900
C          4.07180      -14.50400       -1.95300
N          3.91510      -14.77750       -0.84920
C          1.21150      -11.22310       -2.08690
C          0.22480      -11.29990       -1.11170
F          0.00290      -12.47310       -0.50130
C         -0.58420      -10.21910       -0.76550
F         -1.47000      -10.40950        0.22570
C         -0.46370       -8.97740       -1.38670
C          0.65420       -8.82870       -2.26710
N          0.92200       -7.61790       -2.76370
C          1.93570       -7.43590       -3.57580
C          2.14360       -6.02980       -4.05170
C          2.59350       -5.13170       -2.89710
C          2.77340       -8.53480       -3.91040
N          2.52650       -9.72660       -3.42380
C          1.47070       -9.92640       -2.62390
C          3.98500       -8.43140       -4.78750
C          5.18650       -7.87820       -4.01920
C         -1.32810       -7.86490       -1.15920
C         -2.65410       -7.85060       -0.73230
C         -3.53110       -9.01790       -0.72590
C         -4.43960       -9.23120        0.30670
C         -5.24680      -10.35190        0.28550
C         -5.15650      -11.26230       -0.75360
C         -4.27230      -11.05270       -1.80470
C         -4.13940      -12.04270       -2.92700
C         -2.78250      -12.74850       -2.87970
C         -3.47520       -9.91960       -1.78570
C         -3.07950       -6.54270       -0.44770
S         -4.58100       -5.88460        0.16730
C         -3.89010       -4.29960        0.08910
C         -4.20400       -2.97740        0.44220
C         -5.30490       -2.43530        1.14230
C         -5.26030       -1.05940        1.55030
N         -6.31910       -0.70940        2.26350
S         -7.29260       -1.99550        2.40260
N         -6.39850       -3.05110        1.56250
C         -4.18280       -0.25360        1.12110
C         -3.93300        1.12090        1.26020
S         -4.60300        2.50460        2.05460
C         -3.34480        3.49540        1.35150
C         -3.03670        4.86840        1.44220
C         -3.81370        5.84890        2.19730
C         -4.37320        5.50700        3.42560
C         -5.05880        6.45490        4.16110
C         -5.19830        7.74550        3.68310
C         -4.67700        8.09700        2.44330
C         -4.87910        9.47900        1.89160
C         -6.19530        9.55780        1.11580
C         -4.00410        7.13800        1.70480
C         -1.92330        5.17570        0.67780
S         -1.28100        3.79190       -0.17840
C         -2.47550        2.77170        0.52970
C         -2.79990        1.41010        0.49470
N         -2.32470        0.26660       -0.08960
C         -3.13990       -0.77820        0.30590
C         -3.08130       -2.17740        0.08410
N         -2.10080       -3.00270       -0.44310
C         -2.58650       -4.28420       -0.41740
C         -2.11200       -5.56590       -0.70730
S         -0.66430       -6.25520       -1.35710
C         -0.66630       -2.81830       -0.47560
C         -0.09300       -2.75470        0.93840
C         -1.41000        0.35220       -1.20610
C          0.03400        0.58290       -0.76250
C         -1.21230        6.42660        0.60250
C         -0.66450        6.90340       -0.57850
F         -0.84110        6.21700       -1.72350
C          0.07200        8.08900       -0.63230
F          0.60600        8.45510       -1.80800
C          0.30910        8.86240        0.49200
C         -0.29990        8.43730        1.70850
N         -0.28660        9.23620        2.78490
C         -0.74350        8.79510        3.92640
C         -0.75580        9.76950        5.06440
C          0.60520        9.78690        5.76580
C         -1.17430        7.43950        4.04860
N         -1.33850        6.71420        2.97540
C         -0.97990        7.19880        1.77830
C         -1.51200        6.80960        5.36570
C         -1.33120        5.29640        5.33760
C          1.09650       10.06220        0.44070
C          1.96010       10.42120        1.42460
C          2.50900        9.47430        2.43650
O          2.27090        8.29270        2.56340
C          3.53210       10.23840        3.17400
C          4.32690        9.81700        4.20120
C          5.27900       10.70600        4.74610
C          6.12070       10.32420        5.81090
C          7.04910       11.18910        6.31920
C          7.15520       12.47250        5.76510
F          8.07600       13.30820        6.27740
C          6.36210       12.89440        4.73460
C          5.39860       12.01700        4.19930
C          4.56180       12.42540        3.13500
C          3.63420       11.55080        2.63290
C          2.64720       11.69250        1.56810
C          2.35720       12.84830        0.89450
C          1.33190       12.98670       -0.06580
N          0.50550       13.18430       -0.83760
C          3.02940       14.07180        1.09940
N          3.54240       15.09120        1.22200
H          2.24420      -13.05430       -1.65660
H          2.34470      -10.88670       -7.59120
H          4.16950      -11.67590       -9.10110
H          5.71290      -14.18870       -6.00270
H          1.18760       -5.65840       -4.42570
H          2.87320       -5.99500       -4.85870
H          3.54910       -5.46310       -2.49690
H          2.69900       -4.10610       -3.24140
H          1.85730       -5.16410       -2.09900
H          3.77250       -7.80080       -5.65230
H          4.21990       -9.43660       -5.14190
H          4.99900       -6.86400       -3.67700
H          6.06420       -7.86920       -4.66030
H          5.39590       -8.50320       -3.15430
H         -4.48840       -8.53720        1.13150
H         -5.94440      -10.52360        1.09160
H         -5.78100      -12.14400       -0.75060
H         -4.93580      -12.78550       -2.85580
H         -4.24000      -11.52750       -3.88570
H         -1.97340      -12.04390       -3.06210
H         -2.62740      -13.20720       -1.90550
H         -2.73330      -13.52440       -3.64010
H         -2.80000       -9.72970       -2.60920
H         -4.25440        4.50740        3.81370
H         -5.48200        6.18560        5.11800
H         -5.72180        8.48670        4.27010
H         -4.89880       10.20300        2.70900
H         -4.05130        9.73810        1.22790
H         -7.03240        9.31330        1.76580
H         -6.18850        8.85280        0.28770
H         -6.34310       10.55920        0.71890
H         -3.61870        7.39800        0.72890
H         -0.39510       -1.92950       -1.03680
H         -0.25490       -3.68380       -1.00080
H         -0.51830       -1.91680        1.48730
H         -0.32510       -3.67000        1.47780
H          0.98700       -2.64100        0.89810
H         -1.51690       -0.54800       -1.81320
H         -1.72130        1.20190       -1.82460
H          0.13340        1.56890       -0.31790
H          0.69440        0.53070       -1.62380
H          0.35000       -0.15140       -0.02740
H         -1.54260        9.51140        5.77370
H         -0.95470       10.76300        4.65970
H          0.59410       10.49780        6.58820
H          0.85510        8.80390        6.15810
H          1.38080       10.07850        5.06200
H         -0.89610        7.24560        6.15300
H         -2.55800        7.04570        5.58760
H         -1.93940        4.86610        4.54920
H         -1.62300        4.86500        6.29180
H         -0.29140        5.04650        5.14230
H          0.97840       10.68160       -0.43920
H          4.22900        8.81530        4.59270
H          6.02100        9.32980        6.21940
H          7.70210       10.91270        7.13170
H          6.47100       13.89000        4.33380
H          4.68240       13.42060        2.73840
