
  xtb     02052210543D
 energy: -343.999114175407 gnorm: 0.000421136389 xtb: 6.4.1 (unknown)
204223  0     0  0            999 V2000
    4.8063   -5.5349  -10.4045 C   0  0  0  0  0  0  0  0  0  0  0  0
    5.5540   -4.9298  -11.3633 C   0  0  0  0  0  0  0  0  0  0  0  0
    5.9766   -3.5019  -11.3444 C   0  0  0  0  0  0  0  0  0  0  0  0
    5.6502   -2.6462  -10.5546 O   0  0  0  0  0  0  0  0  0  0  0  0
    6.7645   -3.3120  -12.5794 C   0  0  0  0  0  0  0  0  0  0  0  0
    7.4328   -2.1815  -13.0100 C   0  0  0  0  0  0  0  0  0  0  0  0
    8.1135   -2.2334  -14.2156 C   0  0  0  0  0  0  0  0  0  0  0  0
    8.0994   -3.4061  -14.9600 C   0  0  0  0  0  0  0  0  0  0  0  0
    9.0368   -3.4524  -16.6121 Br  0  0  0  0  0  0  0  0  0  0  0  0
    7.4260   -4.5485  -14.5463 C   0  0  0  0  0  0  0  0  0  0  0  0
    6.7507   -4.4961  -13.3372 C   0  0  0  0  0  0  0  0  0  0  0  0
    5.9632   -5.5069  -12.6315 C   0  0  0  0  0  0  0  0  0  0  0  0
    5.6858   -6.7657  -13.0921 C   0  0  0  0  0  0  0  0  0  0  0  0
    6.1227   -7.2680  -14.3371 C   0  0  0  0  0  0  0  0  0  0  0  0
    6.4424   -7.7337  -15.3361 N   0  0  0  0  0  0  0  0  0  0  0  0
    4.9119   -7.7359  -12.4191 C   0  0  0  0  0  0  0  0  0  0  0  0
    4.2939   -8.5833  -11.9514 N   0  0  0  0  0  0  0  0  0  0  0  0
    4.5288   -5.0298   -9.0940 C   0  0  0  0  0  0  0  0  0  0  0  0
    5.4245   -4.3263   -8.3005 C   0  0  0  0  0  0  0  0  0  0  0  0
    6.6897   -4.1506   -8.6995 F   0  0  0  0  0  0  0  0  0  0  0  0
    5.0847   -3.8737   -7.0277 C   0  0  0  0  0  0  0  0  0  0  0  0
    6.0418   -3.2188   -6.3457 F   0  0  0  0  0  0  0  0  0  0  0  0
    3.8383   -4.0878   -6.4386 C   0  0  0  0  0  0  0  0  0  0  0  0
    2.9141   -4.8678   -7.2147 C   0  0  0  0  0  0  0  0  0  0  0  0
    1.6926   -5.1579   -6.7378 N   0  0  0  0  0  0  0  0  0  0  0  0
    0.8569   -5.8781   -7.4444 C   0  0  0  0  0  0  0  0  0  0  0  0
   -0.4949   -6.1012   -6.8345 C   0  0  0  0  0  0  0  0  0  0  0  0
   -1.4434   -4.9629   -7.2194 C   0  0  0  0  0  0  0  0  0  0  0  0
    1.2294   -6.3697   -8.7263 C   0  0  0  0  0  0  0  0  0  0  0  0
    2.4057   -6.0763   -9.2195 N   0  0  0  0  0  0  0  0  0  0  0  0
    3.2677   -5.3365   -8.5034 C   0  0  0  0  0  0  0  0  0  0  0  0
    0.3272   -7.2325   -9.5545 C   0  0  0  0  0  0  0  0  0  0  0  0
    0.9088   -7.5376  -10.9286 C   0  0  0  0  0  0  0  0  0  0  0  0
    3.5026   -3.5623   -5.1534 C   0  0  0  0  0  0  0  0  0  0  0  0
    4.5411   -2.3740   -4.3508 S   0  0  0  0  0  0  0  0  0  0  0  0
    3.4204   -2.2407   -3.0571 C   0  0  0  0  0  0  0  0  0  0  0  0
    3.1920   -1.5556   -1.8634 C   0  0  0  0  0  0  0  0  0  0  0  0
    3.9017   -0.2938   -0.9117 S   0  0  0  0  0  0  0  0  0  0  0  0
    2.5225   -0.3566    0.1361 C   0  0  0  0  0  0  0  0  0  0  0  0
    2.0669    0.4512    1.2222 C   0  0  0  0  0  0  0  0  0  0  0  0
    2.6600    1.5363    1.8622 C   0  0  0  0  0  0  0  0  0  0  0  0
    1.9170    2.1832    2.8215 C   0  0  0  0  0  0  0  0  0  0  0  0
    2.3050    3.3944    3.6535 C   0  0  0  0  0  0  0  0  0  0  0  0
    3.5293    3.0336    4.4739 C   0  0  0  0  0  0  0  0  0  0  0  0
    4.7990    3.1910    3.9321 C   0  0  0  0  0  0  0  0  0  0  0  0
    5.9198    2.8326    4.6558 C   0  0  0  0  0  0  0  0  0  0  0  0
    5.8046    2.3055    5.9358 C   0  0  0  0  0  0  0  0  0  0  0  0
    7.0232    1.8818    6.7039 C   0  0  0  0  0  0  0  0  0  0  0  0
    7.3816    0.4305    6.3780 C   0  0  0  0  0  0  0  0  0  0  0  0
    4.5332    2.1365    6.4665 C   0  0  0  0  0  0  0  0  0  0  0  0
    3.4080    2.4919    5.7455 C   0  0  0  0  0  0  0  0  0  0  0  0
    2.5235    4.6579    2.8416 C   0  0  0  0  0  0  0  0  0  0  0  0
    3.1126    5.7600    3.4507 C   0  0  0  0  0  0  0  0  0  0  0  0
    3.2803    6.9406    2.7544 C   0  0  0  0  0  0  0  0  0  0  0  0
    2.8579    7.0570    1.4358 C   0  0  0  0  0  0  0  0  0  0  0  0
    3.0876    8.3253    0.6660 C   0  0  0  0  0  0  0  0  0  0  0  0
    4.4603    8.2982   -0.0094 C   0  0  0  0  0  0  0  0  0  0  0  0
    2.2601    5.9575    0.8364 C   0  0  0  0  0  0  0  0  0  0  0  0
    2.0869    4.7730    1.5302 C   0  0  0  0  0  0  0  0  0  0  0  0
    1.0537    3.5878    4.4720 C   0  0  0  0  0  0  0  0  0  0  0  0
    0.1029    2.6284    4.1444 C   0  0  0  0  0  0  0  0  0  0  0  0
    0.6117    1.7436    3.1469 C   0  0  0  0  0  0  0  0  0  0  0  0
    0.0289    0.6426    2.5217 C   0  0  0  0  0  0  0  0  0  0  0  0
    0.7668    0.0036    1.5558 C   0  0  0  0  0  0  0  0  0  0  0  0
    0.3761   -1.2056    0.7127 C   0  0  0  0  0  0  0  0  0  0  0  0
   -0.8279   -0.9371   -0.1727 C   0  0  0  0  0  0  0  0  0  0  0  0
   -0.9054    0.2781   -0.8441 C   0  0  0  0  0  0  0  0  0  0  0  0
   -1.9230    0.5226   -1.7458 C   0  0  0  0  0  0  0  0  0  0  0  0
   -2.8920   -0.4382   -2.0048 C   0  0  0  0  0  0  0  0  0  0  0  0
   -3.9573   -0.2108   -3.0380 C   0  0  0  0  0  0  0  0  0  0  0  0
   -3.5409   -0.8343   -4.3719 C   0  0  0  0  0  0  0  0  0  0  0  0
   -2.8173   -1.6451   -1.3245 C   0  0  0  0  0  0  0  0  0  0  0  0
   -1.7989   -1.8949   -0.4238 C   0  0  0  0  0  0  0  0  0  0  0  0
    0.2222   -2.3760    1.6629 C   0  0  0  0  0  0  0  0  0  0  0  0
    1.2580   -3.2805    1.8544 C   0  0  0  0  0  0  0  0  0  0  0  0
    1.1278   -4.3226    2.7532 C   0  0  0  0  0  0  0  0  0  0  0  0
   -0.0348   -4.4873    3.4931 C   0  0  0  0  0  0  0  0  0  0  0  0
   -0.1870   -5.6512    4.4292 C   0  0  0  0  0  0  0  0  0  0  0  0
   -0.6969   -6.8833    3.6787 C   0  0  0  0  0  0  0  0  0  0  0  0
   -1.0623   -3.5703    3.3137 C   0  0  0  0  0  0  0  0  0  0  0  0
   -0.9345   -2.5241    2.4192 C   0  0  0  0  0  0  0  0  0  0  0  0
    1.5775   -1.3153   -0.1968 C   0  0  0  0  0  0  0  0  0  0  0  0
    1.9529   -2.0136   -1.3458 C   0  0  0  0  0  0  0  0  0  0  0  0
    1.4328   -2.9676   -2.1918 N   0  0  0  0  0  0  0  0  0  0  0  0
    2.3170   -3.1022   -3.2420 C   0  0  0  0  0  0  0  0  0  0  0  0
    2.3664   -3.8432   -4.4128 C   0  0  0  0  0  0  0  0  0  0  0  0
    0.2795   -3.7259   -2.0567 C   0  0  0  0  0  0  0  0  0  0  0  0
   -0.7197   -3.8648   -2.9707 C   0  0  0  0  0  0  0  0  0  0  0  0
   -1.7058   -4.7847   -2.5551 C   0  0  0  0  0  0  0  0  0  0  0  0
   -1.4463   -5.3536   -1.3475 C   0  0  0  0  0  0  0  0  0  0  0  0
   -2.2892   -6.2998   -0.5634 C   0  0  0  0  0  0  0  0  0  0  0  0
   -2.9796   -5.5870    0.6018 C   0  0  0  0  0  0  0  0  0  0  0  0
    0.0503   -4.7768   -0.6869 S   0  0  0  0  0  0  0  0  0  0  0  0
   -1.3723    2.8397    4.9957 S   0  0  0  0  0  0  0  0  0  0  0  0
   -0.7058    4.2453    5.8094 C   0  0  0  0  0  0  0  0  0  0  0  0
    0.6032    4.5001    5.4116 C   0  0  0  0  0  0  0  0  0  0  0  0
   -1.5081    4.9799    6.7283 C   0  0  0  0  0  0  0  0  0  0  0  0
   -1.0663    6.0802    7.4650 C   0  0  0  0  0  0  0  0  0  0  0  0
    0.1938    6.5345    7.3391 F   0  0  0  0  0  0  0  0  0  0  0  0
   -1.8820    6.7456    8.3764 C   0  0  0  0  0  0  0  0  0  0  0  0
   -1.3514    7.7672    9.0642 F   0  0  0  0  0  0  0  0  0  0  0  0
   -3.1931    6.3666    8.6410 C   0  0  0  0  0  0  0  0  0  0  0  0
   -3.7081    5.2920    7.8564 C   0  0  0  0  0  0  0  0  0  0  0  0
   -5.0073    4.9711    7.9259 N   0  0  0  0  0  0  0  0  0  0  0  0
   -5.4712    3.9488    7.2536 C   0  0  0  0  0  0  0  0  0  0  0  0
   -6.9477    3.7088    7.3433 C   0  0  0  0  0  0  0  0  0  0  0  0
   -7.6723    4.4193    6.1972 C   0  0  0  0  0  0  0  0  0  0  0  0
   -4.5996    3.1711    6.4421 C   0  0  0  0  0  0  0  0  0  0  0  0
   -3.3556    3.5474    6.2877 N   0  0  0  0  0  0  0  0  0  0  0  0
   -2.8704    4.6010    6.9510 C   0  0  0  0  0  0  0  0  0  0  0  0
   -5.0058    1.9081    5.7502 C   0  0  0  0  0  0  0  0  0  0  0  0
   -4.8368    0.7231    6.7052 C   0  0  0  0  0  0  0  0  0  0  0  0
   -4.0243    7.0768    9.5607 C   0  0  0  0  0  0  0  0  0  0  0  0
   -5.0397    6.4854   10.2477 C   0  0  0  0  0  0  0  0  0  0  0  0
   -5.1407    5.0191   10.4867 C   0  0  0  0  0  0  0  0  0  0  0  0
   -4.2798    4.1770   10.3494 O   0  0  0  0  0  0  0  0  0  0  0  0
   -6.4554    4.8218   11.1329 C   0  0  0  0  0  0  0  0  0  0  0  0
   -7.0775    3.6388   11.4843 C   0  0  0  0  0  0  0  0  0  0  0  0
   -8.3135    3.6984   12.1073 C   0  0  0  0  0  0  0  0  0  0  0  0
   -8.8846    4.9356   12.3767 C   0  0  0  0  0  0  0  0  0  0  0  0
  -10.5800    4.9921   13.2344 Br  0  0  0  0  0  0  0  0  0  0  0  0
   -8.2671    6.1345   12.0429 C   0  0  0  0  0  0  0  0  0  0  0  0
   -7.0362    6.0714   11.4090 C   0  0  0  0  0  0  0  0  0  0  0  0
   -6.1555    7.1293   10.9105 C   0  0  0  0  0  0  0  0  0  0  0  0
   -6.3982    8.4736   11.0014 C   0  0  0  0  0  0  0  0  0  0  0  0
   -5.5737    9.4874   10.4673 C   0  0  0  0  0  0  0  0  0  0  0  0
   -4.9716   10.3708   10.0495 N   0  0  0  0  0  0  0  0  0  0  0  0
   -7.5196    9.0362   11.6478 C   0  0  0  0  0  0  0  0  0  0  0  0
   -8.4063    9.5528   12.1619 N   0  0  0  0  0  0  0  0  0  0  0  0
    4.3117   -6.4718  -10.6225 H   0  0  0  0  0  0  0  0  0  0  0  0
    7.4243   -1.2852  -12.4096 H   0  0  0  0  0  0  0  0  0  0  0  0
    8.6536   -1.3737  -14.5808 H   0  0  0  0  0  0  0  0  0  0  0  0
    7.4417   -5.4352  -15.1589 H   0  0  0  0  0  0  0  0  0  0  0  0
   -0.9074   -7.0560   -7.1606 H   0  0  0  0  0  0  0  0  0  0  0  0
   -0.3848   -6.1166   -5.7488 H   0  0  0  0  0  0  0  0  0  0  0  0
   -1.0390   -4.0118   -6.8815 H   0  0  0  0  0  0  0  0  0  0  0  0
   -1.5760   -4.9143   -8.2978 H   0  0  0  0  0  0  0  0  0  0  0  0
   -2.4163   -5.1136   -6.7583 H   0  0  0  0  0  0  0  0  0  0  0  0
    0.1537   -8.1667   -9.0113 H   0  0  0  0  0  0  0  0  0  0  0  0
   -0.6406   -6.7350   -9.6602 H   0  0  0  0  0  0  0  0  0  0  0  0
    1.8575   -8.0580  -10.8366 H   0  0  0  0  0  0  0  0  0  0  0  0
    1.0813   -6.6154  -11.4767 H   0  0  0  0  0  0  0  0  0  0  0  0
    0.2208   -8.1599  -11.4949 H   0  0  0  0  0  0  0  0  0  0  0  0
    3.6540    1.8586    1.5934 H   0  0  0  0  0  0  0  0  0  0  0  0
    4.9120    3.6122    2.9435 H   0  0  0  0  0  0  0  0  0  0  0  0
    6.9002    2.9692    4.2221 H   0  0  0  0  0  0  0  0  0  0  0  0
    7.8659    2.5266    6.4464 H   0  0  0  0  0  0  0  0  0  0  0  0
    6.8366    1.9747    7.7756 H   0  0  0  0  0  0  0  0  0  0  0  0
    7.5842    0.3205    5.3150 H   0  0  0  0  0  0  0  0  0  0  0  0
    6.5572   -0.2299    6.6383 H   0  0  0  0  0  0  0  0  0  0  0  0
    8.2638    0.1219    6.9341 H   0  0  0  0  0  0  0  0  0  0  0  0
    4.4201    1.7251    7.4594 H   0  0  0  0  0  0  0  0  0  0  0  0
    2.4293    2.3508    6.1806 H   0  0  0  0  0  0  0  0  0  0  0  0
    3.4499    5.6873    4.4744 H   0  0  0  0  0  0  0  0  0  0  0  0
    3.7421    7.7865    3.2431 H   0  0  0  0  0  0  0  0  0  0  0  0
    2.3139    8.4423   -0.0956 H   0  0  0  0  0  0  0  0  0  0  0  0
    3.0358    9.1820    1.3408 H   0  0  0  0  0  0  0  0  0  0  0  0
    4.5270    7.4579   -0.6970 H   0  0  0  0  0  0  0  0  0  0  0  0
    4.6293    9.2171   -0.5658 H   0  0  0  0  0  0  0  0  0  0  0  0
    5.2460    8.1934    0.7356 H   0  0  0  0  0  0  0  0  0  0  0  0
    1.9197    6.0277   -0.1871 H   0  0  0  0  0  0  0  0  0  0  0  0
    1.6097    3.9348    1.0437 H   0  0  0  0  0  0  0  0  0  0  0  0
   -0.9690    0.3313    2.7865 H   0  0  0  0  0  0  0  0  0  0  0  0
   -0.1564    1.0361   -0.6634 H   0  0  0  0  0  0  0  0  0  0  0  0
   -1.9614    1.4720   -2.2607 H   0  0  0  0  0  0  0  0  0  0  0  0
   -4.8956   -0.6625   -2.7085 H   0  0  0  0  0  0  0  0  0  0  0  0
   -4.1223    0.8593   -3.1748 H   0  0  0  0  0  0  0  0  0  0  0  0
   -2.6127   -0.3886   -4.7231 H   0  0  0  0  0  0  0  0  0  0  0  0
   -3.3844   -1.9046   -4.2556 H   0  0  0  0  0  0  0  0  0  0  0  0
   -4.3095   -0.6743   -5.1245 H   0  0  0  0  0  0  0  0  0  0  0  0
   -3.5607   -2.4080   -1.5075 H   0  0  0  0  0  0  0  0  0  0  0  0
   -1.7651   -2.8465    0.0811 H   0  0  0  0  0  0  0  0  0  0  0  0
    2.1763   -3.1761    1.2958 H   0  0  0  0  0  0  0  0  0  0  0  0
    1.9451   -5.0173    2.8822 H   0  0  0  0  0  0  0  0  0  0  0  0
    0.7778   -5.8836    4.8845 H   0  0  0  0  0  0  0  0  0  0  0  0
   -0.8889   -5.3984    5.2264 H   0  0  0  0  0  0  0  0  0  0  0  0
   -0.7674   -7.7352    4.3508 H   0  0  0  0  0  0  0  0  0  0  0  0
   -0.0204   -7.1366    2.8654 H   0  0  0  0  0  0  0  0  0  0  0  0
   -1.6816   -6.6912    3.2590 H   0  0  0  0  0  0  0  0  0  0  0  0
   -1.9741   -3.6719    3.8857 H   0  0  0  0  0  0  0  0  0  0  0  0
   -1.7486   -1.8241    2.3018 H   0  0  0  0  0  0  0  0  0  0  0  0
    1.6283   -4.5479   -4.7415 H   0  0  0  0  0  0  0  0  0  0  0  0
   -0.7555   -3.3110   -3.8911 H   0  0  0  0  0  0  0  0  0  0  0  0
   -2.5833   -5.0110   -3.1346 H   0  0  0  0  0  0  0  0  0  0  0  0
   -1.6685   -7.1075   -0.1687 H   0  0  0  0  0  0  0  0  0  0  0  0
   -3.0399   -6.7360   -1.2256 H   0  0  0  0  0  0  0  0  0  0  0  0
   -2.2384   -5.1553    1.2719 H   0  0  0  0  0  0  0  0  0  0  0  0
   -3.5909   -6.2899    1.1625 H   0  0  0  0  0  0  0  0  0  0  0  0
   -3.6206   -4.7892    0.2329 H   0  0  0  0  0  0  0  0  0  0  0  0
    1.1911    5.3160    5.7855 H   0  0  0  0  0  0  0  0  0  0  0  0
   -7.1639    2.6410    7.3158 H   0  0  0  0  0  0  0  0  0  0  0  0
   -7.2989    4.1139    8.2937 H   0  0  0  0  0  0  0  0  0  0  0  0
   -7.3300    4.0514    5.2323 H   0  0  0  0  0  0  0  0  0  0  0  0
   -8.7438    4.2531    6.2726 H   0  0  0  0  0  0  0  0  0  0  0  0
   -7.4824    5.4889    6.2433 H   0  0  0  0  0  0  0  0  0  0  0  0
   -4.3507    1.7693    4.8897 H   0  0  0  0  0  0  0  0  0  0  0  0
   -6.0386    1.9671    5.4075 H   0  0  0  0  0  0  0  0  0  0  0  0
   -5.1343   -0.1993    6.2129 H   0  0  0  0  0  0  0  0  0  0  0  0
   -3.7965    0.6381    7.0082 H   0  0  0  0  0  0  0  0  0  0  0  0
   -5.4444    0.8537    7.5981 H   0  0  0  0  0  0  0  0  0  0  0  0
   -3.8403    8.1390    9.6548 H   0  0  0  0  0  0  0  0  0  0  0  0
   -6.6046    2.6933   11.2684 H   0  0  0  0  0  0  0  0  0  0  0  0
   -8.8343    2.7958   12.3874 H   0  0  0  0  0  0  0  0  0  0  0  0
   -8.7460    7.0709   12.2782 H   0  0  0  0  0  0  0  0  0  0  0  0
  1  2  2  0  0  0  0
  2  3  1  0  0  0  0
  3  4  2  0  0  0  0
  3  5  1  0  0  0  0
  5  6  2  0  0  0  0
  6  7  1  0  0  0  0
  7  8  2  0  0  0  0
  8  9  1  0  0  0  0
  8 10  1  0  0  0  0
 10 11  2  0  0  0  0
 11 12  1  0  0  0  0
 12 13  2  0  0  0  0
 13 14  1  0  0  0  0
 14 15  3  0  0  0  0
 13 16  1  0  0  0  0
 16 17  3  0  0  0  0
  1 18  1  0  0  0  0
 18 19  2  0  0  0  0
 19 20  1  0  0  0  0
 19 21  1  0  0  0  0
 21 22  1  0  0  0  0
 21 23  2  0  0  0  0
 23 24  1  0  0  0  0
 24 25  2  0  0  0  0
 25 26  1  0  0  0  0
 26 27  1  0  0  0  0
 27 28  1  0  0  0  0
 26 29  2  0  0  0  0
 29 30  1  0  0  0  0
 30 31  2  0  0  0  0
 29 32  1  0  0  0  0
 32 33  1  0  0  0  0
 23 34  1  0  0  0  0
 34 35  1  0  0  0  0
 35 36  1  0  0  0  0
 36 37  1  0  0  0  0
 37 38  1  0  0  0  0
 38 39  1  0  0  0  0
 39 40  1  0  0  0  0
 40 41  2  0  0  0  0
 41 42  1  0  0  0  0
 42 43  1  0  0  0  0
 43 44  1  0  0  0  0
 44 45  2  0  0  0  0
 45 46  1  0  0  0  0
 46 47  2  0  0  0  0
 47 48  1  0  0  0  0
 48 49  1  0  0  0  0
 47 50  1  0  0  0  0
 50 51  2  0  0  0  0
 43 52  1  0  0  0  0
 52 53  2  0  0  0  0
 53 54  1  0  0  0  0
 54 55  2  0  0  0  0
 55 56  1  0  0  0  0
 56 57  1  0  0  0  0
 55 58  1  0  0  0  0
 58 59  2  0  0  0  0
 43 60  1  0  0  0  0
 60 61  2  0  0  0  0
 61 62  1  0  0  0  0
 62 63  1  0  0  0  0
 63 64  2  0  0  0  0
 64 65  1  0  0  0  0
 65 66  1  0  0  0  0
 66 67  2  0  0  0  0
 67 68  1  0  0  0  0
 68 69  2  0  0  0  0
 69 70  1  0  0  0  0
 70 71  1  0  0  0  0
 69 72  1  0  0  0  0
 72 73  2  0  0  0  0
 65 74  1  0  0  0  0
 74 75  2  0  0  0  0
 75 76  1  0  0  0  0
 76 77  2  0  0  0  0
 77 78  1  0  0  0  0
 78 79  1  0  0  0  0
 77 80  1  0  0  0  0
 80 81  2  0  0  0  0
 65 82  1  0  0  0  0
 82 83  1  0  0  0  0
 83 84  1  0  0  0  0
 84 85  1  0  0  0  0
 85 86  1  0  0  0  0
 84 87  1  0  0  0  0
 87 88  2  0  0  0  0
 88 89  1  0  0  0  0
 89 90  2  0  0  0  0
 90 91  1  0  0  0  0
 91 92  1  0  0  0  0
 90 93  1  0  0  0  0
 61 94  1  0  0  0  0
 94 95  1  0  0  0  0
 95 96  2  0  0  0  0
 95 97  1  0  0  0  0
 97 98  2  0  0  0  0
 98 99  1  0  0  0  0
 98100  1  0  0  0  0
100101  1  0  0  0  0
100102  2  0  0  0  0
102103  1  0  0  0  0
103104  2  0  0  0  0
104105  1  0  0  0  0
105106  1  0  0  0  0
106107  1  0  0  0  0
105108  2  0  0  0  0
108109  1  0  0  0  0
109110  2  0  0  0  0
108111  1  0  0  0  0
111112  1  0  0  0  0
102113  1  0  0  0  0
113114  2  0  0  0  0
114115  1  0  0  0  0
115116  2  0  0  0  0
115117  1  0  0  0  0
117118  2  0  0  0  0
118119  1  0  0  0  0
119120  2  0  0  0  0
120121  1  0  0  0  0
120122  1  0  0  0  0
122123  2  0  0  0  0
123124  1  0  0  0  0
124125  2  0  0  0  0
125126  1  0  0  0  0
126127  3  0  0  0  0
125128  1  0  0  0  0
128129  3  0  0  0  0
 12  2  1  0  0  0  0
 31 18  1  0  0  0  0
 86 34  2  0  0  0  0
 93 87  1  0  0  0  0
110 97  1  0  0  0  0
124114  1  0  0  0  0
 11  5  1  0  0  0  0
 31 24  1  0  0  0  0
 85 36  2  0  0  0  0
110103  1  0  0  0  0
123117  1  0  0  0  0
 83 37  2  0  0  0  0
 82 39  2  0  0  0  0
 64 40  1  0  0  0  0
 73 66  1  0  0  0  0
 81 74  1  0  0  0  0
 62 42  2  0  0  0  0
 51 44  1  0  0  0  0
 59 52  1  0  0  0  0
 96 60  1  0  0  0  0
  1130  1  0  0  0  0
  6131  1  0  0  0  0
  7132  1  0  0  0  0
 10133  1  0  0  0  0
 27134  1  0  0  0  0
 27135  1  0  0  0  0
 28136  1  0  0  0  0
 28137  1  0  0  0  0
 28138  1  0  0  0  0
 32139  1  0  0  0  0
 32140  1  0  0  0  0
 33141  1  0  0  0  0
 33142  1  0  0  0  0
 33143  1  0  0  0  0
 41144  1  0  0  0  0
 45145  1  0  0  0  0
 46146  1  0  0  0  0
 48147  1  0  0  0  0
 48148  1  0  0  0  0
 49149  1  0  0  0  0
 49150  1  0  0  0  0
 49151  1  0  0  0  0
 50152  1  0  0  0  0
 51153  1  0  0  0  0
 53154  1  0  0  0  0
 54155  1  0  0  0  0
 56156  1  0  0  0  0
 56157  1  0  0  0  0
 57158  1  0  0  0  0
 57159  1  0  0  0  0
 57160  1  0  0  0  0
 58161  1  0  0  0  0
 59162  1  0  0  0  0
 63163  1  0  0  0  0
 67164  1  0  0  0  0
 68165  1  0  0  0  0
 70166  1  0  0  0  0
 70167  1  0  0  0  0
 71168  1  0  0  0  0
 71169  1  0  0  0  0
 71170  1  0  0  0  0
 72171  1  0  0  0  0
 73172  1  0  0  0  0
 75173  1  0  0  0  0
 76174  1  0  0  0  0
 78175  1  0  0  0  0
 78176  1  0  0  0  0
 79177  1  0  0  0  0
 79178  1  0  0  0  0
 79179  1  0  0  0  0
 80180  1  0  0  0  0
 81181  1  0  0  0  0
 86182  1  0  0  0  0
 88183  1  0  0  0  0
 89184  1  0  0  0  0
 91185  1  0  0  0  0
 91186  1  0  0  0  0
 92187  1  0  0  0  0
 92188  1  0  0  0  0
 92189  1  0  0  0  0
 96190  1  0  0  0  0
106191  1  0  0  0  0
106192  1  0  0  0  0
107193  1  0  0  0  0
107194  1  0  0  0  0
107195  1  0  0  0  0
111196  1  0  0  0  0
111197  1  0  0  0  0
112198  1  0  0  0  0
112199  1  0  0  0  0
112200  1  0  0  0  0
113201  1  0  0  0  0
118202  1  0  0  0  0
119203  1  0  0  0  0
122204  1  0  0  0  0
M  END
