159

C        -10.17440       -1.24850        2.92330
C        -10.85970       -0.17140        3.41940
C        -10.32340        1.17420        3.67450
O         -9.16200        1.53720        3.65420
C        -11.49540        2.02980        3.93800
C        -11.53380        3.38910        4.18410
C        -12.76610        3.98890        4.38810
C        -13.92020        3.21750        4.33850
Br       -15.59820        4.06580        4.60760
C        -13.89830        1.84830        4.09840
C        -12.66540        1.25050        3.89880
C        -12.29210       -0.14200        3.64690
C        -13.13430       -1.21880        3.71390
C        -14.52350       -1.11550        3.94080
N        -15.65760       -1.08990        4.11470
C        -12.74090       -2.57460        3.64210
N        -12.51560       -3.70020        3.65650
C         -8.79680       -1.41280        2.70440
S         -7.56490       -0.29610        3.22470
C         -6.28720       -1.36550        2.72160
C         -6.81040       -2.54540        2.16040
C         -6.01830       -3.68090        1.70480
O         -4.79380       -3.66030        1.60600
C         -6.79410       -4.87720        1.40770
C         -6.24770       -6.11270        1.15240
C         -4.80800       -6.47430        1.10770
C         -4.56400       -7.97500        1.04470
S         -7.48890       -7.28540        0.87480
C         -8.74870       -6.11300        1.07190
C        -10.17180       -6.50140        0.91040
C        -10.63520       -6.26520       -0.53070
C         -8.22260       -4.87760        1.35250
C         -9.00670       -3.66730        1.57200
O        -10.19040       -3.57670        1.29000
C         -8.22040       -2.56000        2.14620
C         -4.95510       -0.91090        2.85800
C         -4.57800        0.24840        3.54480
C         -5.42810        1.02710        4.45470
C         -5.87440        0.46260        5.64740
C         -6.65060        1.21110        6.50920
C         -6.98420        2.51680        6.19190
C         -6.53600        3.09630        5.01370
C         -6.84790        4.52690        4.68530
C         -5.67730        5.43080        5.07680
C         -5.74620        2.34460        4.15600
C         -3.24630        0.58360        3.30810
S         -2.25590        1.92100        3.85350
C         -0.94250        1.27460        2.92850
C          0.37530        1.60310        2.58370
C          1.14500        2.74880        2.88140
C          2.43180        2.89480        2.26850
N          3.01900        4.03750        2.58810
S          2.03760        4.85670        3.58110
N          0.82390        3.78630        3.63830
C          2.92660        1.84470        1.46500
C          4.15960        1.69600        0.81340
S          5.60840        2.59940        0.52840
C          6.23330        1.24870       -0.38500
C          7.43970        1.05230       -1.07450
C          8.54810        2.01500       -1.09030
C          9.75090        1.68490       -0.47460
C         10.78700        2.59830       -0.46310
C         10.63440        3.82930       -1.07390
C          9.44160        4.16930       -1.69960
C          9.31190        5.47860       -2.42210
C         10.09850        5.42890       -3.73330
C          8.39740        3.25760       -1.69070
C          7.48130       -0.18870       -1.68410
S          6.03140       -1.13910       -1.36150
C          5.35630        0.15990       -0.44360
C          4.16530        0.42000        0.24270
N          2.97880       -0.21490        0.49600
C          2.18640        0.64850        1.23890
C          0.85370        0.56870        1.72500
N         -0.16910       -0.34680        1.54500
C         -1.25330        0.08630        2.25920
C         -2.57930       -0.31230        2.46270
S         -3.59810       -1.62430        1.98820
C         -0.35130       -1.37390        0.54470
C         -0.32130       -0.79080       -0.86610
C          2.89800       -1.64950        0.33350
C          2.87370       -2.36480        1.68210
C          8.45910       -0.69010       -2.57940
C          8.56420       -2.00110       -3.01270
C          9.57030       -2.17890       -3.95350
S         10.04090       -3.68270       -4.70070
C          8.73730       -4.85220       -4.17830
C          7.42420       -4.61060       -4.89770
C         10.24660       -0.98000       -4.27810
S          9.60400        0.35950       -3.34860
C         11.26610       -0.92030       -5.22340
C         11.98410        0.15800       -5.69600
C         11.80260        1.55150       -5.29170
O         11.03420        1.99960       -4.45640
C         12.74060        2.34090       -6.11370
C         12.94140        3.70720       -6.13030
C         13.88710        4.22610       -7.00100
C         14.60010        3.36740       -7.82540
Br        15.89120        4.10100       -9.01210
C         14.40800        1.99030       -7.82220
C         13.46250        1.47480       -6.95240
C         13.01280        0.10040       -6.70870
C         13.50590       -1.00980       -7.34680
C         13.09540       -2.34300       -7.13660
N         12.83240       -3.45740       -7.04030
C         14.51920       -0.97250       -8.32730
N         15.33860       -1.01460       -9.13060
H        -10.76310       -2.10880        2.62490
H        -10.61880        3.96020        4.21240
H        -12.83810        5.04780        4.58210
H        -14.82010        1.29060        4.06640
H         -4.31750       -6.03950        1.98410
H         -4.35730       -5.98220        0.23920
H         -5.00430       -8.39780        0.14390
H         -5.00470       -8.47100        1.90680
H         -3.49700       -8.18100        1.03630
H        -10.29710       -7.55460        1.16880
H        -10.78400       -5.88930        1.57630
H        -11.66990       -6.57720       -0.63890
H        -10.02210       -6.83060       -1.22980
H        -10.56560       -5.20770       -0.77010
H         -5.61390       -0.55860        5.88590
H         -6.99910        0.77430        7.43380
H         -7.60110        3.09100        6.86840
H         -7.03780        4.62310        3.61450
H         -7.74410        4.84300        5.22270
H         -5.89570        6.46690        4.82810
H         -4.77350        5.12950        4.55260
H         -5.48900        5.36240        6.14590
H         -5.39270        2.77780        3.23160
H          9.86390        0.71850       -0.00450
H         11.71870        2.34650        0.02180
H         11.45150        4.53610       -1.06590
H          9.69830        6.28860       -1.79890
H          8.26100        5.68290       -2.63390
H         11.16020        5.31590       -3.52590
H          9.94810        6.34190       -4.30570
H          9.77750        4.57730       -4.32910
H          7.46090        3.50410       -2.17030
H          0.38490       -2.16760        0.67020
H         -1.33350       -1.81520        0.73060
H          0.61320       -0.26840       -1.05860
H         -0.44030       -1.58460       -1.59850
H         -1.13670       -0.08210       -0.98960
H          2.04040       -1.92140       -0.28180
H          3.79380       -1.94860       -0.21660
H          2.80040       -3.43850        1.53180
H          2.03270       -2.03510        2.28760
H          3.78860       -2.15320        2.23080
H          7.92790       -2.77750       -2.62760
H          8.63890       -4.79650       -3.09530
H          9.15010       -5.82550       -4.44320
H          7.56450       -4.69730       -5.97240
H          6.69030       -5.34940       -4.58180
H          7.03370       -3.61860       -4.68150
H         11.50310       -1.88500       -5.65750
H         12.36760        4.34870       -5.48010
H         14.07240        5.28820       -7.04380
H         14.98460        1.36520       -8.48400
