
  xtb     02062209263D
 energy: -420.527098298378 gnorm: 0.000711865464 xtb: 6.4.1 (unknown)
255281  0     0  0            999 V2000
    2.8264  -12.2065   -2.5043 C   0  0  0  0  0  0  0  0  0  0  0  0
    1.6077  -12.7875   -2.7998 C   0  0  0  0  0  0  0  0  0  0  0  0
    0.2914  -12.1702   -2.6432 C   0  0  0  0  0  0  0  0  0  0  0  0
    0.0241  -11.0167   -2.3516 O   0  0  0  0  0  0  0  0  0  0  0  0
   -0.6928  -13.2473   -2.8800 C   0  0  0  0  0  0  0  0  0  0  0  0
   -2.0713  -13.1887   -2.8340 C   0  0  0  0  0  0  0  0  0  0  0  0
   -2.7920  -14.3459   -3.0885 C   0  0  0  0  0  0  0  0  0  0  0  0
   -2.1148  -15.5207   -3.3810 C   0  0  0  0  0  0  0  0  0  0  0  0
   -3.1234  -17.0961   -3.7216 Br  0  0  0  0  0  0  0  0  0  0  0  0
   -0.7275  -15.5953   -3.4367 C   0  0  0  0  0  0  0  0  0  0  0  0
   -0.0117  -14.4388   -3.1808 C   0  0  0  0  0  0  0  0  0  0  0  0
    1.4284  -14.1674   -3.1733 C   0  0  0  0  0  0  0  0  0  0  0  0
    2.4020  -15.0774   -3.5107 C   0  0  0  0  0  0  0  0  0  0  0  0
    3.7729  -14.7917   -3.6508 C   0  0  0  0  0  0  0  0  0  0  0  0
    4.8997  -14.6389   -3.8206 N   0  0  0  0  0  0  0  0  0  0  0  0
    2.1510  -16.4327   -3.8019 C   0  0  0  0  0  0  0  0  0  0  0  0
    2.0184  -17.5506   -4.0300 N   0  0  0  0  0  0  0  0  0  0  0  0
    3.1387  -10.8973   -2.1582 C   0  0  0  0  0  0  0  0  0  0  0  0
    4.4516  -10.4627   -1.8223 C   0  0  0  0  0  0  0  0  0  0  0  0
    5.5294  -11.2885   -1.6303 N   0  0  0  0  0  0  0  0  0  0  0  0
    5.3849  -12.5309   -0.9821 C   0  0  0  0  0  0  0  0  0  0  0  0
    4.5137  -12.6542    0.0976 C   0  0  0  0  0  0  0  0  0  0  0  0
    4.3491  -13.8762    0.7186 C   0  0  0  0  0  0  0  0  0  0  0  0
    5.0547  -14.9966    0.2958 C   0  0  0  0  0  0  0  0  0  0  0  0
    4.8718  -16.3282    0.9556 C   0  0  0  0  0  0  0  0  0  0  0  0
    5.9437  -14.8555   -0.7641 C   0  0  0  0  0  0  0  0  0  0  0  0
    6.1105  -13.6433   -1.4027 C   0  0  0  0  0  0  0  0  0  0  0  0
    6.7969  -10.8986   -2.0955 C   0  0  0  0  0  0  0  0  0  0  0  0
    7.9487  -11.2625   -1.4030 C   0  0  0  0  0  0  0  0  0  0  0  0
    9.1928  -10.9679   -1.9240 C   0  0  0  0  0  0  0  0  0  0  0  0
    9.3255  -10.2859   -3.1275 C   0  0  0  0  0  0  0  0  0  0  0  0
   10.6735  -10.0459   -3.7336 C   0  0  0  0  0  0  0  0  0  0  0  0
    8.1706   -9.8758   -3.7828 C   0  0  0  0  0  0  0  0  0  0  0  0
    6.9212  -10.1840   -3.2849 C   0  0  0  0  0  0  0  0  0  0  0  0
    4.5011   -9.0653   -1.7080 C   0  0  0  0  0  0  0  0  0  0  0  0
    5.7476   -7.9188   -1.3216 S   0  0  0  0  0  0  0  0  0  0  0  0
    4.5908   -6.5998   -1.4266 C   0  0  0  0  0  0  0  0  0  0  0  0
    3.3256   -7.0313   -1.8154 C   0  0  0  0  0  0  0  0  0  0  0  0
    2.2414   -6.2257   -2.1297 N   0  0  0  0  0  0  0  0  0  0  0  0
    2.3851   -5.0133   -2.8096 C   0  0  0  0  0  0  0  0  0  0  0  0
    3.4409   -4.7959   -3.6940 C   0  0  0  0  0  0  0  0  0  0  0  0
    3.6376   -3.5463   -4.2477 C   0  0  0  0  0  0  0  0  0  0  0  0
    2.7890   -2.4850   -3.9581 C   0  0  0  0  0  0  0  0  0  0  0  0
    3.0364   -1.1253   -4.5363 C   0  0  0  0  0  0  0  0  0  0  0  0
    1.6992   -2.7270   -3.1306 C   0  0  0  0  0  0  0  0  0  0  0  0
    1.4951   -3.9671   -2.5613 C   0  0  0  0  0  0  0  0  0  0  0  0
    0.9598   -6.7246   -1.8277 C   0  0  0  0  0  0  0  0  0  0  0  0
    0.7228   -7.3225   -0.5929 C   0  0  0  0  0  0  0  0  0  0  0  0
   -0.5103   -7.8767   -0.3175 C   0  0  0  0  0  0  0  0  0  0  0  0
   -1.5357   -7.8414   -1.2544 C   0  0  0  0  0  0  0  0  0  0  0  0
   -2.8481   -8.4997   -0.9627 C   0  0  0  0  0  0  0  0  0  0  0  0
   -1.2998   -7.2130   -2.4703 C   0  0  0  0  0  0  0  0  0  0  0  0
   -0.0682   -6.6609   -2.7617 C   0  0  0  0  0  0  0  0  0  0  0  0
    3.2796   -8.4398   -1.9321 C   0  0  0  0  0  0  0  0  0  0  0  0
    1.9985   -9.5523   -2.2384 S   0  0  0  0  0  0  0  0  0  0  0  0
    4.9598   -5.2362   -1.2103 C   0  0  0  0  0  0  0  0  0  0  0  0
    6.0245   -4.5363   -1.7433 C   0  0  0  0  0  0  0  0  0  0  0  0
    7.2139   -5.1513   -2.3406 C   0  0  0  0  0  0  0  0  0  0  0  0
    7.5568   -4.9277   -3.6670 C   0  0  0  0  0  0  0  0  0  0  0  0
    8.7106   -5.4969   -4.1735 C   0  0  0  0  0  0  0  0  0  0  0  0
    9.5248   -6.2667   -3.3621 C   0  0  0  0  0  0  0  0  0  0  0  0
    9.2039   -6.4885   -2.0273 C   0  0  0  0  0  0  0  0  0  0  0  0
   10.1352   -7.2807   -1.1512 C   0  0  0  0  0  0  0  0  0  0  0  0
    9.4447   -8.0421   -0.0243 C   0  0  0  0  0  0  0  0  0  0  0  0
    8.0377   -5.9271   -1.5321 C   0  0  0  0  0  0  0  0  0  0  0  0
    5.8199   -3.1463   -1.6504 C   0  0  0  0  0  0  0  0  0  0  0  0
    6.6690   -1.7744   -2.3212 S   0  0  0  0  0  0  0  0  0  0  0  0
    5.3895   -0.7377   -1.7769 C   0  0  0  0  0  0  0  0  0  0  0  0
    4.9842    0.6091   -1.8721 C   0  0  0  0  0  0  0  0  0  0  0  0
    5.6074    1.7968   -2.3199 C   0  0  0  0  0  0  0  0  0  0  0  0
    4.9258    3.0598   -2.1589 C   0  0  0  0  0  0  0  0  0  0  0  0
    5.6678    4.0832   -2.5494 N   0  0  0  0  0  0  0  0  0  0  0  0
    7.0885    3.5199   -3.0842 S   0  0  0  0  0  0  0  0  0  0  0  0
    6.8172    1.9434   -2.8353 N   0  0  0  0  0  0  0  0  0  0  0  0
    3.5846    3.0724   -1.7100 C   0  0  0  0  0  0  0  0  0  0  0  0
    2.5950    4.0720   -1.6116 C   0  0  0  0  0  0  0  0  0  0  0  0
    2.4356    5.7950   -1.7337 S   0  0  0  0  0  0  0  0  0  0  0  0
    0.7401    5.6498   -1.3363 C   0  0  0  0  0  0  0  0  0  0  0  0
   -0.2704    6.6006   -1.0865 C   0  0  0  0  0  0  0  0  0  0  0  0
   -0.0701    8.0464   -1.2208 C   0  0  0  0  0  0  0  0  0  0  0  0
   -0.8759    8.7932   -2.0748 C   0  0  0  0  0  0  0  0  0  0  0  0
   -0.6740   10.1553   -2.1956 C   0  0  0  0  0  0  0  0  0  0  0  0
    0.3354   10.7754   -1.4813 C   0  0  0  0  0  0  0  0  0  0  0  0
    1.1692   10.0388   -0.6486 C   0  0  0  0  0  0  0  0  0  0  0  0
    2.2525   10.7082    0.1474 C   0  0  0  0  0  0  0  0  0  0  0  0
    1.7510   11.0495    1.5521 C   0  0  0  0  0  0  0  0  0  0  0  0
    0.9564    8.6740   -0.5261 C   0  0  0  0  0  0  0  0  0  0  0  0
   -1.4320    5.9918   -0.6535 C   0  0  0  0  0  0  0  0  0  0  0  0
   -1.3322    4.2338   -0.7244 S   0  0  0  0  0  0  0  0  0  0  0  0
    0.3341    4.3297   -1.1508 C   0  0  0  0  0  0  0  0  0  0  0  0
    1.3930    3.4297   -1.2958 C   0  0  0  0  0  0  0  0  0  0  0  0
    1.5960    2.0813   -1.1582 N   0  0  0  0  0  0  0  0  0  0  0  0
    2.9408    1.8543   -1.3772 C   0  0  0  0  0  0  0  0  0  0  0  0
    3.6956    0.6681   -1.2846 C   0  0  0  0  0  0  0  0  0  0  0  0
    3.3600   -0.5676   -0.7677 N   0  0  0  0  0  0  0  0  0  0  0  0
    4.3842   -1.4216   -1.0847 C   0  0  0  0  0  0  0  0  0  0  0  0
    4.6371   -2.7925   -1.0017 C   0  0  0  0  0  0  0  0  0  0  0  0
    3.7956   -4.1774   -0.4163 S   0  0  0  0  0  0  0  0  0  0  0  0
    2.4959   -0.8193    0.3666 C   0  0  0  0  0  0  0  0  0  0  0  0
    3.3098   -1.0680    1.6361 C   0  0  0  0  0  0  0  0  0  0  0  0
    0.5153    1.1410   -1.3677 C   0  0  0  0  0  0  0  0  0  0  0  0
   -0.1440    1.3482   -2.7313 C   0  0  0  0  0  0  0  0  0  0  0  0
   -2.5785    6.5646   -0.0198 C   0  0  0  0  0  0  0  0  0  0  0  0
   -3.1868    6.0977    1.1427 C   0  0  0  0  0  0  0  0  0  0  0  0
   -2.7223    5.0785    1.9563 N   0  0  0  0  0  0  0  0  0  0  0  0
   -1.3590    4.8235    2.1326 C   0  0  0  0  0  0  0  0  0  0  0  0
   -0.9191    3.5123    2.3158 C   0  0  0  0  0  0  0  0  0  0  0  0
    0.4308    3.2288    2.3650 C   0  0  0  0  0  0  0  0  0  0  0  0
    1.3816    4.2337    2.2395 C   0  0  0  0  0  0  0  0  0  0  0  0
    2.8463    3.9215    2.2115 C   0  0  0  0  0  0  0  0  0  0  0  0
    0.9352    5.5450    2.1201 C   0  0  0  0  0  0  0  0  0  0  0  0
   -0.4112    5.8450    2.0735 C   0  0  0  0  0  0  0  0  0  0  0  0
   -3.6748    4.3316    2.6769 C   0  0  0  0  0  0  0  0  0  0  0  0
   -4.8249    3.8709    2.0431 C   0  0  0  0  0  0  0  0  0  0  0  0
   -5.7946    3.2065    2.7667 C   0  0  0  0  0  0  0  0  0  0  0  0
   -5.6396    2.9772    4.1278 C   0  0  0  0  0  0  0  0  0  0  0  0
   -6.7280    2.3195    4.9179 C   0  0  0  0  0  0  0  0  0  0  0  0
   -4.4698    3.4063    4.7426 C   0  0  0  0  0  0  0  0  0  0  0  0
   -3.4951    4.0771    4.0321 C   0  0  0  0  0  0  0  0  0  0  0  0
   -4.3529    6.8427    1.4434 C   0  0  0  0  0  0  0  0  0  0  0  0
   -5.5348    6.7409    2.6994 S   0  0  0  0  0  0  0  0  0  0  0  0
   -6.4082    8.1086    1.9963 C   0  0  0  0  0  0  0  0  0  0  0  0
   -5.7027    8.6809    0.8994 C   0  0  0  0  0  0  0  0  0  0  0  0
   -6.0450    9.8251    0.2414 N   0  0  0  0  0  0  0  0  0  0  0  0
   -6.6732   10.9190    0.8683 C   0  0  0  0  0  0  0  0  0  0  0  0
   -6.3819   11.2581    2.1871 C   0  0  0  0  0  0  0  0  0  0  0  0
   -7.0174   12.3310    2.7791 C   0  0  0  0  0  0  0  0  0  0  0  0
   -7.9366   13.1004    2.0747 C   0  0  0  0  0  0  0  0  0  0  0  0
   -8.6501   14.2456    2.7238 C   0  0  0  0  0  0  0  0  0  0  0  0
   -8.1924   12.7742    0.7482 C   0  0  0  0  0  0  0  0  0  0  0  0
   -7.5753   11.6959    0.1465 C   0  0  0  0  0  0  0  0  0  0  0  0
   -5.5962    9.9990   -1.0865 C   0  0  0  0  0  0  0  0  0  0  0  0
   -5.8316    9.0100   -2.0368 C   0  0  0  0  0  0  0  0  0  0  0  0
   -5.3634    9.1672   -3.3258 C   0  0  0  0  0  0  0  0  0  0  0  0
   -4.6585   10.3063   -3.6982 C   0  0  0  0  0  0  0  0  0  0  0  0
   -4.1173   10.4459   -5.0872 C   0  0  0  0  0  0  0  0  0  0  0  0
   -4.4512   11.2977   -2.7465 C   0  0  0  0  0  0  0  0  0  0  0  0
   -4.9133   11.1530   -1.4535 C   0  0  0  0  0  0  0  0  0  0  0  0
   -4.5832    7.8991    0.5713 C   0  0  0  0  0  0  0  0  0  0  0  0
   -3.3648    7.9969   -0.6588 S   0  0  0  0  0  0  0  0  0  0  0  0
   -7.7003    8.4794    2.3409 C   0  0  0  0  0  0  0  0  0  0  0  0
   -8.5376    7.9961    3.3295 C   0  0  0  0  0  0  0  0  0  0  0  0
   -8.1727    7.0515    4.3821 C   0  0  0  0  0  0  0  0  0  0  0  0
   -7.1040    6.4853    4.5504 O   0  0  0  0  0  0  0  0  0  0  0  0
   -9.3605    6.9233    5.2475 C   0  0  0  0  0  0  0  0  0  0  0  0
   -9.5297    6.1551    6.3610 C   0  0  0  0  0  0  0  0  0  0  0  0
  -10.7715    6.1855    7.0359 C   0  0  0  0  0  0  0  0  0  0  0  0
  -11.0060    5.4070    8.1867 C   0  0  0  0  0  0  0  0  0  0  0  0
  -12.2130    5.4436    8.8290 C   0  0  0  0  0  0  0  0  0  0  0  0
  -13.2223    6.2733    8.3248 C   0  0  0  0  0  0  0  0  0  0  0  0
  -14.4050    6.2967    8.9700 F   0  0  0  0  0  0  0  0  0  0  0  0
  -13.0468    7.0493    7.2129 C   0  0  0  0  0  0  0  0  0  0  0  0
  -11.8112    7.0222    6.5382 C   0  0  0  0  0  0  0  0  0  0  0  0
  -11.6031    7.8092    5.3798 C   0  0  0  0  0  0  0  0  0  0  0  0
  -10.3945    7.7592    4.7407 C   0  0  0  0  0  0  0  0  0  0  0  0
   -9.8999    8.4183    3.5318 C   0  0  0  0  0  0  0  0  0  0  0  0
  -10.6445    9.2573    2.7339 C   0  0  0  0  0  0  0  0  0  0  0  0
  -10.2405    9.7890    1.4958 C   0  0  0  0  0  0  0  0  0  0  0  0
  -10.0099   10.2313    0.4589 N   0  0  0  0  0  0  0  0  0  0  0  0
  -11.9534    9.6776    3.0381 C   0  0  0  0  0  0  0  0  0  0  0  0
  -13.0149   10.0746    3.2288 N   0  0  0  0  0  0  0  0  0  0  0  0
    3.6791  -12.8721   -2.5404 H   0  0  0  0  0  0  0  0  0  0  0  0
   -2.5692  -12.2588   -2.6073 H   0  0  0  0  0  0  0  0  0  0  0  0
   -3.8706  -14.3405   -3.0613 H   0  0  0  0  0  0  0  0  0  0  0  0
   -0.2464  -16.5310   -3.6702 H   0  0  0  0  0  0  0  0  0  0  0  0
    3.9615  -11.7911    0.4399 H   0  0  0  0  0  0  0  0  0  0  0  0
    3.6645  -13.9575    1.5505 H   0  0  0  0  0  0  0  0  0  0  0  0
    4.1543  -16.2664    1.7698 H   0  0  0  0  0  0  0  0  0  0  0  0
    5.8198  -16.6890    1.3525 H   0  0  0  0  0  0  0  0  0  0  0  0
    4.5162  -17.0616    0.2326 H   0  0  0  0  0  0  0  0  0  0  0  0
    6.5007  -15.7135   -1.1090 H   0  0  0  0  0  0  0  0  0  0  0  0
    6.7854  -13.5593   -2.2394 H   0  0  0  0  0  0  0  0  0  0  0  0
    7.8640  -11.7891   -0.4642 H   0  0  0  0  0  0  0  0  0  0  0  0
   10.0766  -11.2769   -1.3851 H   0  0  0  0  0  0  0  0  0  0  0  0
   10.9058  -10.8470   -4.4366 H   0  0  0  0  0  0  0  0  0  0  0  0
   11.4514  -10.0348   -2.9735 H   0  0  0  0  0  0  0  0  0  0  0  0
   10.6913   -9.1077   -4.2830 H   0  0  0  0  0  0  0  0  0  0  0  0
    8.2494   -9.3287   -4.7106 H   0  0  0  0  0  0  0  0  0  0  0  0
    6.0356   -9.8979   -3.8329 H   0  0  0  0  0  0  0  0  0  0  0  0
    4.1158   -5.6047   -3.9331 H   0  0  0  0  0  0  0  0  0  0  0  0
    4.4733   -3.3884   -4.9141 H   0  0  0  0  0  0  0  0  0  0  0  0
    2.5984   -1.0519   -5.5326 H   0  0  0  0  0  0  0  0  0  0  0  0
    2.5931   -0.3519   -3.9128 H   0  0  0  0  0  0  0  0  0  0  0  0
    4.1033   -0.9311   -4.6236 H   0  0  0  0  0  0  0  0  0  0  0  0
    1.0087   -1.9242   -2.9119 H   0  0  0  0  0  0  0  0  0  0  0  0
    0.6642   -4.1293   -1.8906 H   0  0  0  0  0  0  0  0  0  0  0  0
    1.5153   -7.3561    0.1411 H   0  0  0  0  0  0  0  0  0  0  0  0
   -0.6787   -8.3515    0.6381 H   0  0  0  0  0  0  0  0  0  0  0  0
   -2.7356   -9.5800   -1.0537 H   0  0  0  0  0  0  0  0  0  0  0  0
   -3.1763   -8.2820    0.0521 H   0  0  0  0  0  0  0  0  0  0  0  0
   -3.6152   -8.1738   -1.6607 H   0  0  0  0  0  0  0  0  0  0  0  0
   -2.0853   -7.1716   -3.2110 H   0  0  0  0  0  0  0  0  0  0  0  0
    0.1102   -6.1932   -3.7190 H   0  0  0  0  0  0  0  0  0  0  0  0
    6.9211   -4.3187   -4.2916 H   0  0  0  0  0  0  0  0  0  0  0  0
    8.9805   -5.3332   -5.2067 H   0  0  0  0  0  0  0  0  0  0  0  0
   10.4333   -6.6901   -3.7661 H   0  0  0  0  0  0  0  0  0  0  0  0
   10.8713   -6.5926   -0.7216 H   0  0  0  0  0  0  0  0  0  0  0  0
   10.6817   -7.9869   -1.7776 H   0  0  0  0  0  0  0  0  0  0  0  0
    9.0730   -7.3663    0.7413 H   0  0  0  0  0  0  0  0  0  0  0  0
   10.1489   -8.7243    0.4465 H   0  0  0  0  0  0  0  0  0  0  0  0
    8.6109   -8.6209   -0.4147 H   0  0  0  0  0  0  0  0  0  0  0  0
    7.7651   -6.0607   -0.4968 H   0  0  0  0  0  0  0  0  0  0  0  0
   -1.6396    8.3017   -2.6590 H   0  0  0  0  0  0  0  0  0  0  0  0
   -1.3085   10.7325   -2.8516 H   0  0  0  0  0  0  0  0  0  0  0  0
    0.4878   11.8408   -1.5792 H   0  0  0  0  0  0  0  0  0  0  0  0
    3.1162   10.0447    0.2241 H   0  0  0  0  0  0  0  0  0  0  0  0
    2.5688   11.6243   -0.3549 H   0  0  0  0  0  0  0  0  0  0  0  0
    0.8943   11.7175    1.4959 H   0  0  0  0  0  0  0  0  0  0  0  0
    1.4454   10.1463    2.0757 H   0  0  0  0  0  0  0  0  0  0  0  0
    2.5342   11.5366    2.1283 H   0  0  0  0  0  0  0  0  0  0  0  0
    1.5921    8.0872    0.1210 H   0  0  0  0  0  0  0  0  0  0  0  0
    1.8728   -1.6939    0.1508 H   0  0  0  0  0  0  0  0  0  0  0  0
    1.8645    0.0538    0.5267 H   0  0  0  0  0  0  0  0  0  0  0  0
    3.9726   -0.2266    1.8282 H   0  0  0  0  0  0  0  0  0  0  0  0
    3.9080   -1.9699    1.5437 H   0  0  0  0  0  0  0  0  0  0  0  0
    2.6379   -1.1856    2.4819 H   0  0  0  0  0  0  0  0  0  0  0  0
    0.9150    0.1293   -1.3276 H   0  0  0  0  0  0  0  0  0  0  0  0
   -0.2267    1.2761   -0.5738 H   0  0  0  0  0  0  0  0  0  0  0  0
    0.5973    1.2720   -3.5245 H   0  0  0  0  0  0  0  0  0  0  0  0
   -0.6180    2.3236   -2.7904 H   0  0  0  0  0  0  0  0  0  0  0  0
   -0.9032    0.5866   -2.8878 H   0  0  0  0  0  0  0  0  0  0  0  0
   -1.6466    2.7169    2.3837 H   0  0  0  0  0  0  0  0  0  0  0  0
    0.7512    2.2031    2.4844 H   0  0  0  0  0  0  0  0  0  0  0  0
    3.4022    4.6175    2.8368 H   0  0  0  0  0  0  0  0  0  0  0  0
    3.0359    2.9086    2.5589 H   0  0  0  0  0  0  0  0  0  0  0  0
    3.2297    4.0110    1.1939 H   0  0  0  0  0  0  0  0  0  0  0  0
    1.6587    6.3451    2.0566 H   0  0  0  0  0  0  0  0  0  0  0  0
   -0.7340    6.8714    1.9777 H   0  0  0  0  0  0  0  0  0  0  0  0
   -4.9559    4.0485    0.9852 H   0  0  0  0  0  0  0  0  0  0  0  0
   -6.6909    2.8675    2.2675 H   0  0  0  0  0  0  0  0  0  0  0  0
   -7.4512    3.0738    5.2300 H   0  0  0  0  0  0  0  0  0  0  0  0
   -6.3309    1.8393    5.8091 H   0  0  0  0  0  0  0  0  0  0  0  0
   -7.2534    1.5787    4.3190 H   0  0  0  0  0  0  0  0  0  0  0  0
   -4.3279    3.2314    5.7992 H   0  0  0  0  0  0  0  0  0  0  0  0
   -2.5984    4.4247    4.5241 H   0  0  0  0  0  0  0  0  0  0  0  0
   -5.6641   10.6755    2.7460 H   0  0  0  0  0  0  0  0  0  0  0  0
   -6.7884   12.5784    3.8057 H   0  0  0  0  0  0  0  0  0  0  0  0
   -8.2064   14.4892    3.6858 H   0  0  0  0  0  0  0  0  0  0  0  0
   -8.6197   15.1278    2.0872 H   0  0  0  0  0  0  0  0  0  0  0  0
   -9.6973   13.9881    2.8830 H   0  0  0  0  0  0  0  0  0  0  0  0
   -8.9006   13.3603    0.1826 H   0  0  0  0  0  0  0  0  0  0  0  0
   -7.7991   11.4413   -0.8774 H   0  0  0  0  0  0  0  0  0  0  0  0
   -6.3823    8.1241   -1.7569 H   0  0  0  0  0  0  0  0  0  0  0  0
   -5.5487    8.3932   -4.0560 H   0  0  0  0  0  0  0  0  0  0  0  0
   -4.8046   10.0213   -5.8155 H   0  0  0  0  0  0  0  0  0  0  0  0
   -3.1700    9.9116   -5.1710 H   0  0  0  0  0  0  0  0  0  0  0  0
   -3.9404   11.4896   -5.3346 H   0  0  0  0  0  0  0  0  0  0  0  0
   -3.9145   12.1950   -3.0185 H   0  0  0  0  0  0  0  0  0  0  0  0
   -4.7396   11.9256   -0.7192 H   0  0  0  0  0  0  0  0  0  0  0  0
   -8.1203    9.2545    1.7131 H   0  0  0  0  0  0  0  0  0  0  0  0
   -8.7273    5.5298    6.7237 H   0  0  0  0  0  0  0  0  0  0  0  0
  -10.2119    4.7756    8.5566 H   0  0  0  0  0  0  0  0  0  0  0  0
  -12.4086    4.8531    9.7100 H   0  0  0  0  0  0  0  0  0  0  0  0
  -13.8473    7.6765    6.8526 H   0  0  0  0  0  0  0  0  0  0  0  0
  -12.4116    8.4305    5.0297 H   0  0  0  0  0  0  0  0  0  0  0  0
  1  2  2  0  0  0  0
  2  3  1  0  0  0  0
  3  4  2  0  0  0  0
  3  5  1  0  0  0  0
  5  6  2  0  0  0  0
  6  7  1  0  0  0  0
  7  8  2  0  0  0  0
  8  9  1  0  0  0  0
  8 10  1  0  0  0  0
 10 11  2  0  0  0  0
 11 12  1  0  0  0  0
 12 13  2  0  0  0  0
 13 14  1  0  0  0  0
 14 15  3  0  0  0  0
 13 16  1  0  0  0  0
 16 17  3  0  0  0  0
  1 18  1  0  0  0  0
 18 19  2  0  0  0  0
 19 20  1  0  0  0  0
 20 21  1  0  0  0  0
 21 22  2  0  0  0  0
 22 23  1  0  0  0  0
 23 24  2  0  0  0  0
 24 25  1  0  0  0  0
 24 26  1  0  0  0  0
 26 27  2  0  0  0  0
 20 28  1  0  0  0  0
 28 29  2  0  0  0  0
 29 30  1  0  0  0  0
 30 31  2  0  0  0  0
 31 32  1  0  0  0  0
 31 33  1  0  0  0  0
 33 34  2  0  0  0  0
 19 35  1  0  0  0  0
 35 36  1  0  0  0  0
 36 37  1  0  0  0  0
 37 38  2  0  0  0  0
 38 39  1  0  0  0  0
 39 40  1  0  0  0  0
 40 41  2  0  0  0  0
 41 42  1  0  0  0  0
 42 43  2  0  0  0  0
 43 44  1  0  0  0  0
 43 45  1  0  0  0  0
 45 46  2  0  0  0  0
 39 47  1  0  0  0  0
 47 48  2  0  0  0  0
 48 49  1  0  0  0  0
 49 50  2  0  0  0  0
 50 51  1  0  0  0  0
 50 52  1  0  0  0  0
 52 53  2  0  0  0  0
 38 54  1  0  0  0  0
 54 55  1  0  0  0  0
 37 56  1  0  0  0  0
 56 57  2  0  0  0  0
 57 58  1  0  0  0  0
 58 59  2  0  0  0  0
 59 60  1  0  0  0  0
 60 61  2  0  0  0  0
 61 62  1  0  0  0  0
 62 63  1  0  0  0  0
 63 64  1  0  0  0  0
 62 65  2  0  0  0  0
 57 66  1  0  0  0  0
 66 67  1  0  0  0  0
 67 68  1  0  0  0  0
 68 69  1  0  0  0  0
 69 70  1  0  0  0  0
 70 71  1  0  0  0  0
 71 72  2  0  0  0  0
 72 73  1  0  0  0  0
 73 74  1  0  0  0  0
 71 75  1  0  0  0  0
 75 76  1  0  0  0  0
 76 77  1  0  0  0  0
 77 78  1  0  0  0  0
 78 79  1  0  0  0  0
 79 80  1  0  0  0  0
 80 81  2  0  0  0  0
 81 82  1  0  0  0  0
 82 83  2  0  0  0  0
 83 84  1  0  0  0  0
 84 85  1  0  0  0  0
 85 86  1  0  0  0  0
 84 87  2  0  0  0  0
 79 88  2  0  0  0  0
 88 89  1  0  0  0  0
 89 90  1  0  0  0  0
 90 91  1  0  0  0  0
 91 92  1  0  0  0  0
 92 93  1  0  0  0  0
 93 94  1  0  0  0  0
 94 95  1  0  0  0  0
 95 96  1  0  0  0  0
 96 97  1  0  0  0  0
 97 98  1  0  0  0  0
 95 99  1  0  0  0  0
 99100  1  0  0  0  0
 92101  1  0  0  0  0
101102  1  0  0  0  0
 88103  1  0  0  0  0
103104  2  0  0  0  0
104105  1  0  0  0  0
105106  1  0  0  0  0
106107  2  0  0  0  0
107108  1  0  0  0  0
108109  2  0  0  0  0
109110  1  0  0  0  0
109111  1  0  0  0  0
111112  2  0  0  0  0
105113  1  0  0  0  0
113114  2  0  0  0  0
114115  1  0  0  0  0
115116  2  0  0  0  0
116117  1  0  0  0  0
116118  1  0  0  0  0
118119  2  0  0  0  0
104120  1  0  0  0  0
120121  1  0  0  0  0
121122  1  0  0  0  0
122123  2  0  0  0  0
123124  1  0  0  0  0
124125  1  0  0  0  0
125126  2  0  0  0  0
126127  1  0  0  0  0
127128  2  0  0  0  0
128129  1  0  0  0  0
128130  1  0  0  0  0
130131  2  0  0  0  0
124132  1  0  0  0  0
132133  2  0  0  0  0
133134  1  0  0  0  0
134135  2  0  0  0  0
135136  1  0  0  0  0
135137  1  0  0  0  0
137138  2  0  0  0  0
123139  1  0  0  0  0
139140  1  0  0  0  0
122141  1  0  0  0  0
141142  2  0  0  0  0
142143  1  0  0  0  0
143144  2  0  0  0  0
143145  1  0  0  0  0
145146  2  0  0  0  0
146147  1  0  0  0  0
147148  2  0  0  0  0
148149  1  0  0  0  0
149150  2  0  0  0  0
150151  1  0  0  0  0
150152  1  0  0  0  0
152153  2  0  0  0  0
153154  1  0  0  0  0
154155  2  0  0  0  0
155156  1  0  0  0  0
156157  2  0  0  0  0
157158  1  0  0  0  0
158159  3  0  0  0  0
157160  1  0  0  0  0
160161  3  0  0  0  0
 12  2  1  0  0  0  0
 55 18  1  0  0  0  0
 98 56  1  0  0  0  0
140103  1  0  0  0  0
156142  1  0  0  0  0
 11  5  1  0  0  0  0
 27 21  1  0  0  0  0
 34 28  1  0  0  0  0
 54 35  2  0  0  0  0
 65 58  1  0  0  0  0
 97 66  2  0  0  0  0
112106  1  0  0  0  0
119113  1  0  0  0  0
139120  2  0  0  0  0
155145  1  0  0  0  0
 46 40  1  0  0  0  0
 53 47  1  0  0  0  0
 96 68  2  0  0  0  0
131125  1  0  0  0  0
138132  1  0  0  0  0
153147  1  0  0  0  0
 94 69  2  0  0  0  0
 74 70  2  0  0  0  0
 93 75  2  0  0  0  0
 91 76  2  0  0  0  0
 90 78  2  0  0  0  0
 87 80  1  0  0  0  0
  1162  1  0  0  0  0
  6163  1  0  0  0  0
  7164  1  0  0  0  0
 10165  1  0  0  0  0
 22166  1  0  0  0  0
 23167  1  0  0  0  0
 25168  1  0  0  0  0
 25169  1  0  0  0  0
 25170  1  0  0  0  0
 26171  1  0  0  0  0
 27172  1  0  0  0  0
 29173  1  0  0  0  0
 30174  1  0  0  0  0
 32175  1  0  0  0  0
 32176  1  0  0  0  0
 32177  1  0  0  0  0
 33178  1  0  0  0  0
 34179  1  0  0  0  0
 41180  1  0  0  0  0
 42181  1  0  0  0  0
 44182  1  0  0  0  0
 44183  1  0  0  0  0
 44184  1  0  0  0  0
 45185  1  0  0  0  0
 46186  1  0  0  0  0
 48187  1  0  0  0  0
 49188  1  0  0  0  0
 51189  1  0  0  0  0
 51190  1  0  0  0  0
 51191  1  0  0  0  0
 52192  1  0  0  0  0
 53193  1  0  0  0  0
 59194  1  0  0  0  0
 60195  1  0  0  0  0
 61196  1  0  0  0  0
 63197  1  0  0  0  0
 63198  1  0  0  0  0
 64199  1  0  0  0  0
 64200  1  0  0  0  0
 64201  1  0  0  0  0
 65202  1  0  0  0  0
 81203  1  0  0  0  0
 82204  1  0  0  0  0
 83205  1  0  0  0  0
 85206  1  0  0  0  0
 85207  1  0  0  0  0
 86208  1  0  0  0  0
 86209  1  0  0  0  0
 86210  1  0  0  0  0
 87211  1  0  0  0  0
 99212  1  0  0  0  0
 99213  1  0  0  0  0
100214  1  0  0  0  0
100215  1  0  0  0  0
100216  1  0  0  0  0
101217  1  0  0  0  0
101218  1  0  0  0  0
102219  1  0  0  0  0
102220  1  0  0  0  0
102221  1  0  0  0  0
107222  1  0  0  0  0
108223  1  0  0  0  0
110224  1  0  0  0  0
110225  1  0  0  0  0
110226  1  0  0  0  0
111227  1  0  0  0  0
112228  1  0  0  0  0
114229  1  0  0  0  0
115230  1  0  0  0  0
117231  1  0  0  0  0
117232  1  0  0  0  0
117233  1  0  0  0  0
118234  1  0  0  0  0
119235  1  0  0  0  0
126236  1  0  0  0  0
127237  1  0  0  0  0
129238  1  0  0  0  0
129239  1  0  0  0  0
129240  1  0  0  0  0
130241  1  0  0  0  0
131242  1  0  0  0  0
133243  1  0  0  0  0
134244  1  0  0  0  0
136245  1  0  0  0  0
136246  1  0  0  0  0
136247  1  0  0  0  0
137248  1  0  0  0  0
138249  1  0  0  0  0
141250  1  0  0  0  0
146251  1  0  0  0  0
148252  1  0  0  0  0
149253  1  0  0  0  0
152254  1  0  0  0  0
154255  1  0  0  0  0
M  END
