
  xtb     02062211013D
 energy: -410.912952529260 gnorm: 0.000412260441 xtb: 6.4.1 (unknown)
249274  0     0  0            999 V2000
    5.5946    0.8502    6.1219 C   0  0  0  0  0  0  0  0  0  0  0  0
    5.6335    2.2226    6.0314 C   0  0  0  0  0  0  0  0  0  0  0  0
    6.8800    2.9477    6.3615 C   0  0  0  0  0  0  0  0  0  0  0  0
    7.8860    2.4939    6.8614 O   0  0  0  0  0  0  0  0  0  0  0  0
    6.6550    4.3335    5.8906 C   0  0  0  0  0  0  0  0  0  0  0  0
    7.5314    5.4000    5.8681 C   0  0  0  0  0  0  0  0  0  0  0  0
    7.0884    6.6124    5.3614 C   0  0  0  0  0  0  0  0  0  0  0  0
    5.7830    6.7292    4.9051 C   0  0  0  0  0  0  0  0  0  0  0  0
    5.2011    8.3981    4.2093 Br  0  0  0  0  0  0  0  0  0  0  0  0
    4.8843    5.6695    4.9320 C   0  0  0  0  0  0  0  0  0  0  0  0
    5.3362    4.4579    5.4211 C   0  0  0  0  0  0  0  0  0  0  0  0
    4.6601    3.1703    5.5839 C   0  0  0  0  0  0  0  0  0  0  0  0
    3.2968    2.9617    5.5523 C   0  0  0  0  0  0  0  0  0  0  0  0
    2.6987    1.8105    6.0857 C   0  0  0  0  0  0  0  0  0  0  0  0
    2.1754    0.8968    6.5474 N   0  0  0  0  0  0  0  0  0  0  0  0
    2.3728    3.8831    5.0404 C   0  0  0  0  0  0  0  0  0  0  0  0
    1.5848    4.5791    4.5745 N   0  0  0  0  0  0  0  0  0  0  0  0
    4.7897   -0.0864    5.4653 C   0  0  0  0  0  0  0  0  0  0  0  0
    4.0021   -0.0331    4.2936 C   0  0  0  0  0  0  0  0  0  0  0  0
    3.9082    1.0110    3.4051 N   0  0  0  0  0  0  0  0  0  0  0  0
    4.9780    1.8748    3.1184 C   0  0  0  0  0  0  0  0  0  0  0  0
    4.7125    3.1630    2.6510 C   0  0  0  0  0  0  0  0  0  0  0  0
    5.7451    4.0324    2.3648 C   0  0  0  0  0  0  0  0  0  0  0  0
    7.0699    3.6584    2.5543 C   0  0  0  0  0  0  0  0  0  0  0  0
    8.1897    4.6115    2.2806 C   0  0  0  0  0  0  0  0  0  0  0  0
    7.3300    2.3637    2.9911 C   0  0  0  0  0  0  0  0  0  0  0  0
    6.3060    1.4775    3.2587 C   0  0  0  0  0  0  0  0  0  0  0  0
    2.7772    1.0849    2.5482 C   0  0  0  0  0  0  0  0  0  0  0  0
    1.4857    1.0294    3.0645 C   0  0  0  0  0  0  0  0  0  0  0  0
    0.3969    1.1151    2.2189 C   0  0  0  0  0  0  0  0  0  0  0  0
    0.5575    1.2599    0.8452 C   0  0  0  0  0  0  0  0  0  0  0  0
   -0.6281    1.3322   -0.0630 C   0  0  0  0  0  0  0  0  0  0  0  0
    1.8521    1.3278    0.3433 C   0  0  0  0  0  0  0  0  0  0  0  0
    2.9498    1.2375    1.1760 C   0  0  0  0  0  0  0  0  0  0  0  0
    3.3395   -1.2653    4.0951 C   0  0  0  0  0  0  0  0  0  0  0  0
    2.2933   -1.8659    2.8540 S   0  0  0  0  0  0  0  0  0  0  0  0
    2.1723   -3.4083    3.6830 C   0  0  0  0  0  0  0  0  0  0  0  0
    2.9610   -3.4796    4.8181 C   0  0  0  0  0  0  0  0  0  0  0  0
    3.1225   -4.6132    5.5865 N   0  0  0  0  0  0  0  0  0  0  0  0
    2.9667   -5.8824    5.0062 C   0  0  0  0  0  0  0  0  0  0  0  0
    2.2682   -6.8827    5.6774 C   0  0  0  0  0  0  0  0  0  0  0  0
    2.0509   -8.1025    5.0706 C   0  0  0  0  0  0  0  0  0  0  0  0
    2.5252   -8.3656    3.7896 C   0  0  0  0  0  0  0  0  0  0  0  0
    2.2260   -9.6737    3.1227 C   0  0  0  0  0  0  0  0  0  0  0  0
    3.2661   -7.3820    3.1495 C   0  0  0  0  0  0  0  0  0  0  0  0
    3.4921   -6.1569    3.7470 C   0  0  0  0  0  0  0  0  0  0  0  0
    3.3423   -4.4994    6.9690 C   0  0  0  0  0  0  0  0  0  0  0  0
    4.2084   -5.3785    7.6124 C   0  0  0  0  0  0  0  0  0  0  0  0
    4.4305   -5.2595    8.9697 C   0  0  0  0  0  0  0  0  0  0  0  0
    3.8085   -4.2648    9.7152 C   0  0  0  0  0  0  0  0  0  0  0  0
    4.0804   -4.1172   11.1809 C   0  0  0  0  0  0  0  0  0  0  0  0
    2.9418   -3.3961    9.0638 C   0  0  0  0  0  0  0  0  0  0  0  0
    2.7024   -3.5108    7.7093 C   0  0  0  0  0  0  0  0  0  0  0  0
    3.6168   -2.2438    5.0422 C   0  0  0  0  0  0  0  0  0  0  0  0
    4.7503   -1.6918    6.2115 S   0  0  0  0  0  0  0  0  0  0  0  0
    1.2558   -4.3944    3.1876 C   0  0  0  0  0  0  0  0  0  0  0  0
    0.1826   -4.9363    3.8578 C   0  0  0  0  0  0  0  0  0  0  0  0
   -0.2424   -4.5518    5.2051 C   0  0  0  0  0  0  0  0  0  0  0  0
   -0.6496   -5.5280    6.1072 C   0  0  0  0  0  0  0  0  0  0  0  0
   -1.0843   -5.1602    7.3671 C   0  0  0  0  0  0  0  0  0  0  0  0
   -1.1588   -3.8250    7.7175 C   0  0  0  0  0  0  0  0  0  0  0  0
   -0.7926   -2.8312    6.8151 C   0  0  0  0  0  0  0  0  0  0  0  0
   -0.9563   -1.3817    7.1796 C   0  0  0  0  0  0  0  0  0  0  0  0
    0.0078   -0.9314    8.2771 C   0  0  0  0  0  0  0  0  0  0  0  0
   -0.3153   -3.2097    5.5698 C   0  0  0  0  0  0  0  0  0  0  0  0
   -0.5554   -5.8027    3.0218 C   0  0  0  0  0  0  0  0  0  0  0  0
   -2.1604   -6.4850    3.1656 S   0  0  0  0  0  0  0  0  0  0  0  0
   -2.1655   -6.7916    1.4554 C   0  0  0  0  0  0  0  0  0  0  0  0
   -3.1088   -6.9603    0.4155 C   0  0  0  0  0  0  0  0  0  0  0  0
   -4.5190   -7.0508    0.4281 C   0  0  0  0  0  0  0  0  0  0  0  0
   -5.2522   -6.6494   -0.7468 C   0  0  0  0  0  0  0  0  0  0  0  0
   -6.5604   -6.7109   -0.5662 N   0  0  0  0  0  0  0  0  0  0  0  0
   -6.8535   -7.2371    0.9381 S   0  0  0  0  0  0  0  0  0  0  0  0
   -5.3165   -7.3875    1.4275 N   0  0  0  0  0  0  0  0  0  0  0  0
   -4.5392   -6.1297   -1.8517 C   0  0  0  0  0  0  0  0  0  0  0  0
   -4.9224   -5.2182   -2.8540 C   0  0  0  0  0  0  0  0  0  0  0  0
   -6.2948   -4.2464   -3.2880 S   0  0  0  0  0  0  0  0  0  0  0  0
   -5.2479   -3.1915   -4.2152 C   0  0  0  0  0  0  0  0  0  0  0  0
   -5.3981   -1.8855   -4.7399 C   0  0  0  0  0  0  0  0  0  0  0  0
   -6.6282   -1.1168   -4.9032 C   0  0  0  0  0  0  0  0  0  0  0  0
   -7.6974   -1.2266   -4.0188 C   0  0  0  0  0  0  0  0  0  0  0  0
   -8.8168   -0.4362   -4.1942 C   0  0  0  0  0  0  0  0  0  0  0  0
   -8.8998    0.4433   -5.2603 C   0  0  0  0  0  0  0  0  0  0  0  0
   -7.8665    0.5287   -6.1845 C   0  0  0  0  0  0  0  0  0  0  0  0
   -7.9512    1.4356   -7.3815 C   0  0  0  0  0  0  0  0  0  0  0  0
   -6.9525    2.5915   -7.3049 C   0  0  0  0  0  0  0  0  0  0  0  0
   -6.7374   -0.2512   -5.9897 C   0  0  0  0  0  0  0  0  0  0  0  0
   -4.1785   -1.3655   -5.1265 C   0  0  0  0  0  0  0  0  0  0  0  0
   -2.8636   -2.5230   -4.9952 S   0  0  0  0  0  0  0  0  0  0  0  0
   -3.9347   -3.6568   -4.2603 C   0  0  0  0  0  0  0  0  0  0  0  0
   -3.7504   -4.8132   -3.4941 C   0  0  0  0  0  0  0  0  0  0  0  0
   -2.6757   -5.4876   -2.9889 N   0  0  0  0  0  0  0  0  0  0  0  0
   -3.1212   -6.2415   -1.9210 C   0  0  0  0  0  0  0  0  0  0  0  0
   -2.4094   -6.7345   -0.7986 C   0  0  0  0  0  0  0  0  0  0  0  0
   -1.0522   -6.5833   -0.5214 N   0  0  0  0  0  0  0  0  0  0  0  0
   -0.9438   -6.5031    0.8493 C   0  0  0  0  0  0  0  0  0  0  0  0
   -0.0322   -5.9180    1.7356 C   0  0  0  0  0  0  0  0  0  0  0  0
    1.3979   -4.9732    1.5356 S   0  0  0  0  0  0  0  0  0  0  0  0
    0.0595   -7.1022   -1.2973 C   0  0  0  0  0  0  0  0  0  0  0  0
    0.7748   -8.2369   -0.5656 C   0  0  0  0  0  0  0  0  0  0  0  0
   -1.3533   -5.2295   -3.5057 C   0  0  0  0  0  0  0  0  0  0  0  0
   -0.6207   -4.1396   -2.7296 C   0  0  0  0  0  0  0  0  0  0  0  0
   -3.8181    0.0249   -5.1812 C   0  0  0  0  0  0  0  0  0  0  0  0
   -4.0244    0.8903   -4.1217 C   0  0  0  0  0  0  0  0  0  0  0  0
   -4.7724    0.5930   -2.9837 N   0  0  0  0  0  0  0  0  0  0  0  0
   -4.3685   -0.4607   -2.1547 C   0  0  0  0  0  0  0  0  0  0  0  0
   -3.0185   -0.7660   -2.0056 C   0  0  0  0  0  0  0  0  0  0  0  0
   -2.6210   -1.7511   -1.1225 C   0  0  0  0  0  0  0  0  0  0  0  0
   -3.5505   -2.4844   -0.3976 C   0  0  0  0  0  0  0  0  0  0  0  0
   -3.1115   -3.5075    0.6031 C   0  0  0  0  0  0  0  0  0  0  0  0
   -4.8996   -2.2060   -0.5862 C   0  0  0  0  0  0  0  0  0  0  0  0
   -5.3072   -1.2017   -1.4397 C   0  0  0  0  0  0  0  0  0  0  0  0
   -5.7087    1.5428   -2.5596 C   0  0  0  0  0  0  0  0  0  0  0  0
   -6.3860    2.3003   -3.5107 C   0  0  0  0  0  0  0  0  0  0  0  0
   -7.3109    3.2478   -3.1213 C   0  0  0  0  0  0  0  0  0  0  0  0
   -7.5899    3.4682   -1.7798 C   0  0  0  0  0  0  0  0  0  0  0  0
   -8.5813    4.5067   -1.3507 C   0  0  0  0  0  0  0  0  0  0  0  0
   -6.9026    2.7139   -0.8355 C   0  0  0  0  0  0  0  0  0  0  0  0
   -5.9706    1.7684   -1.2105 C   0  0  0  0  0  0  0  0  0  0  0  0
   -3.2859    2.0844   -4.2774 C   0  0  0  0  0  0  0  0  0  0  0  0
   -2.8259    3.2871   -3.1342 S   0  0  0  0  0  0  0  0  0  0  0  0
   -1.6375    3.9240   -4.2773 C   0  0  0  0  0  0  0  0  0  0  0  0
   -1.6191    3.1938   -5.4918 C   0  0  0  0  0  0  0  0  0  0  0  0
   -0.7726    3.4017   -6.5516 N   0  0  0  0  0  0  0  0  0  0  0  0
   -1.2171    3.0394   -7.8372 C   0  0  0  0  0  0  0  0  0  0  0  0
   -2.5259    3.3143   -8.2277 C   0  0  0  0  0  0  0  0  0  0  0  0
   -2.9648    2.9500   -9.4840 C   0  0  0  0  0  0  0  0  0  0  0  0
   -2.1161    2.3180  -10.3858 C   0  0  0  0  0  0  0  0  0  0  0  0
   -2.6085    1.9075  -11.7388 C   0  0  0  0  0  0  0  0  0  0  0  0
   -0.8084    2.0613   -9.9918 C   0  0  0  0  0  0  0  0  0  0  0  0
   -0.3587    2.4114   -8.7343 C   0  0  0  0  0  0  0  0  0  0  0  0
    0.5590    3.8342   -6.3934 C   0  0  0  0  0  0  0  0  0  0  0  0
    1.3434    3.3548   -5.3459 C   0  0  0  0  0  0  0  0  0  0  0  0
    2.6317    3.8207   -5.1787 C   0  0  0  0  0  0  0  0  0  0  0  0
    3.1823    4.7474   -6.0586 C   0  0  0  0  0  0  0  0  0  0  0  0
    4.5666    5.2773   -5.8519 C   0  0  0  0  0  0  0  0  0  0  0  0
    2.4062    5.1830   -7.1261 C   0  0  0  0  0  0  0  0  0  0  0  0
    1.1085    4.7414   -7.2942 C   0  0  0  0  0  0  0  0  0  0  0  0
   -2.5423    2.1350   -5.4490 C   0  0  0  0  0  0  0  0  0  0  0  0
   -2.7608    0.6994   -6.4091 S   0  0  0  0  0  0  0  0  0  0  0  0
   -0.7491    4.9630   -3.9918 C   0  0  0  0  0  0  0  0  0  0  0  0
   -0.2924    5.4203   -2.7765 C   0  0  0  0  0  0  0  0  0  0  0  0
   -0.6992    4.9292   -1.4572 C   0  0  0  0  0  0  0  0  0  0  0  0
   -1.7063    4.3080   -1.1660 O   0  0  0  0  0  0  0  0  0  0  0  0
    0.3733    5.3315   -0.5275 C   0  0  0  0  0  0  0  0  0  0  0  0
    0.5069    5.0436    0.8163 C   0  0  0  0  0  0  0  0  0  0  0  0
    1.6309    5.5058    1.4832 C   0  0  0  0  0  0  0  0  0  0  0  0
    2.5753    6.2356    0.7800 C   0  0  0  0  0  0  0  0  0  0  0  0
    3.6759    6.6522    1.4333 F   0  0  0  0  0  0  0  0  0  0  0  0
    2.4561    6.5529   -0.5673 C   0  0  0  0  0  0  0  0  0  0  0  0
    1.3307    6.0890   -1.2264 C   0  0  0  0  0  0  0  0  0  0  0  0
    0.8937    6.2283   -2.6167 C   0  0  0  0  0  0  0  0  0  0  0  0
    1.5225    6.9738   -3.5827 C   0  0  0  0  0  0  0  0  0  0  0  0
    1.0077    7.2205   -4.8705 C   0  0  0  0  0  0  0  0  0  0  0  0
    0.6400    7.4940   -5.9244 N   0  0  0  0  0  0  0  0  0  0  0  0
    2.7701    7.6019   -3.4104 C   0  0  0  0  0  0  0  0  0  0  0  0
    3.8065    8.0949   -3.3582 N   0  0  0  0  0  0  0  0  0  0  0  0
    6.3560    0.4235    6.7688 H   0  0  0  0  0  0  0  0  0  0  0  0
    8.5379    5.2852    6.2394 H   0  0  0  0  0  0  0  0  0  0  0  0
    7.7480    7.4654    5.3214 H   0  0  0  0  0  0  0  0  0  0  0  0
    3.8801    5.8030    4.5643 H   0  0  0  0  0  0  0  0  0  0  0  0
    3.6889    3.4820    2.5193 H   0  0  0  0  0  0  0  0  0  0  0  0
    5.5165    5.0244    2.0070 H   0  0  0  0  0  0  0  0  0  0  0  0
    7.8197    5.6303    2.1994 H   0  0  0  0  0  0  0  0  0  0  0  0
    8.6845    4.3518    1.3445 H   0  0  0  0  0  0  0  0  0  0  0  0
    8.9328    4.5651    3.0741 H   0  0  0  0  0  0  0  0  0  0  0  0
    8.3522    2.0418    3.1240 H   0  0  0  0  0  0  0  0  0  0  0  0
    6.5385    0.4714    3.5724 H   0  0  0  0  0  0  0  0  0  0  0  0
    1.3357    0.9119    4.1265 H   0  0  0  0  0  0  0  0  0  0  0  0
   -0.5985    1.0669    2.6348 H   0  0  0  0  0  0  0  0  0  0  0  0
   -0.3456    1.0902   -1.0849 H   0  0  0  0  0  0  0  0  0  0  0  0
   -1.0584    2.3338   -0.0665 H   0  0  0  0  0  0  0  0  0  0  0  0
   -1.4056    0.6426    0.2589 H   0  0  0  0  0  0  0  0  0  0  0  0
    2.0064    1.4403   -0.7203 H   0  0  0  0  0  0  0  0  0  0  0  0
    3.9481    1.2767    0.7648 H   0  0  0  0  0  0  0  0  0  0  0  0
    1.8835   -6.6854    6.6667 H   0  0  0  0  0  0  0  0  0  0  0  0
    1.4889   -8.8628    5.5937 H   0  0  0  0  0  0  0  0  0  0  0  0
    2.8015   -9.7860    2.2070 H   0  0  0  0  0  0  0  0  0  0  0  0
    1.1661   -9.7323    2.8729 H   0  0  0  0  0  0  0  0  0  0  0  0
    2.4564  -10.5054    3.7859 H   0  0  0  0  0  0  0  0  0  0  0  0
    3.6709   -7.5705    2.1651 H   0  0  0  0  0  0  0  0  0  0  0  0
    4.0687   -5.4025    3.2314 H   0  0  0  0  0  0  0  0  0  0  0  0
    4.7033   -6.1515    7.0427 H   0  0  0  0  0  0  0  0  0  0  0  0
    5.1063   -5.9473    9.4572 H   0  0  0  0  0  0  0  0  0  0  0  0
    4.8697   -3.3817   11.3398 H   0  0  0  0  0  0  0  0  0  0  0  0
    4.4055   -5.0600   11.6142 H   0  0  0  0  0  0  0  0  0  0  0  0
    3.1926   -3.7730   11.7068 H   0  0  0  0  0  0  0  0  0  0  0  0
    2.4410   -2.6211    9.6249 H   0  0  0  0  0  0  0  0  0  0  0  0
    2.0064   -2.8482    7.2195 H   0  0  0  0  0  0  0  0  0  0  0  0
   -0.6199   -6.5674    5.8171 H   0  0  0  0  0  0  0  0  0  0  0  0
   -1.3864   -5.9202    8.0727 H   0  0  0  0  0  0  0  0  0  0  0  0
   -1.5296   -3.5469    8.6933 H   0  0  0  0  0  0  0  0  0  0  0  0
   -0.8040   -0.7596    6.2957 H   0  0  0  0  0  0  0  0  0  0  0  0
   -1.9826   -1.2288    7.5262 H   0  0  0  0  0  0  0  0  0  0  0  0
   -0.2482    0.0730    8.6062 H   0  0  0  0  0  0  0  0  0  0  0  0
    1.0278   -0.9083    7.9055 H   0  0  0  0  0  0  0  0  0  0  0  0
   -0.0425   -1.6009    9.1329 H   0  0  0  0  0  0  0  0  0  0  0  0
   -0.0356   -2.4499    4.8532 H   0  0  0  0  0  0  0  0  0  0  0  0
   -7.6463   -1.9237   -3.1974 H   0  0  0  0  0  0  0  0  0  0  0  0
   -9.6365   -0.5091   -3.4948 H   0  0  0  0  0  0  0  0  0  0  0  0
   -9.7828    1.0530   -5.3858 H   0  0  0  0  0  0  0  0  0  0  0  0
   -8.9621    1.8386   -7.4646 H   0  0  0  0  0  0  0  0  0  0  0  0
   -7.7458    0.8520   -8.2832 H   0  0  0  0  0  0  0  0  0  0  0  0
   -7.1624    3.2194   -6.4419 H   0  0  0  0  0  0  0  0  0  0  0  0
   -5.9339    2.2173   -7.2222 H   0  0  0  0  0  0  0  0  0  0  0  0
   -7.0201    3.2061   -8.2000 H   0  0  0  0  0  0  0  0  0  0  0  0
   -5.9337   -0.2069   -6.7112 H   0  0  0  0  0  0  0  0  0  0  0  0
   -0.3365   -7.4952   -2.2338 H   0  0  0  0  0  0  0  0  0  0  0  0
    0.7749   -6.3001   -1.5054 H   0  0  0  0  0  0  0  0  0  0  0  0
    0.0706   -9.0236   -0.3027 H   0  0  0  0  0  0  0  0  0  0  0  0
    1.2494   -7.8749    0.3424 H   0  0  0  0  0  0  0  0  0  0  0  0
    1.5407   -8.6566   -1.2129 H   0  0  0  0  0  0  0  0  0  0  0  0
   -0.7772   -6.1533   -3.5257 H   0  0  0  0  0  0  0  0  0  0  0  0
   -1.4813   -4.9011   -4.5414 H   0  0  0  0  0  0  0  0  0  0  0  0
    0.3956   -4.0423   -3.1014 H   0  0  0  0  0  0  0  0  0  0  0  0
   -0.5909   -4.3703   -1.6686 H   0  0  0  0  0  0  0  0  0  0  0  0
   -1.1318   -3.1907   -2.8627 H   0  0  0  0  0  0  0  0  0  0  0  0
   -2.2796   -0.2012   -2.5559 H   0  0  0  0  0  0  0  0  0  0  0  0
   -1.5667   -1.9324   -0.9699 H   0  0  0  0  0  0  0  0  0  0  0  0
   -3.0124   -3.0495    1.5885 H   0  0  0  0  0  0  0  0  0  0  0  0
   -2.1462   -3.9307    0.3351 H   0  0  0  0  0  0  0  0  0  0  0  0
   -3.8399   -4.3108    0.6824 H   0  0  0  0  0  0  0  0  0  0  0  0
   -5.6406   -2.7774   -0.0460 H   0  0  0  0  0  0  0  0  0  0  0  0
   -6.3547   -0.9703   -1.5516 H   0  0  0  0  0  0  0  0  0  0  0  0
   -6.1880    2.1312   -4.5573 H   0  0  0  0  0  0  0  0  0  0  0  0
   -7.8298    3.8225   -3.8756 H   0  0  0  0  0  0  0  0  0  0  0  0
   -8.0606    5.3899   -0.9795 H   0  0  0  0  0  0  0  0  0  0  0  0
   -9.2117    4.1302   -0.5475 H   0  0  0  0  0  0  0  0  0  0  0  0
   -9.2135    4.8087   -2.1822 H   0  0  0  0  0  0  0  0  0  0  0  0
   -7.0931    2.8789    0.2153 H   0  0  0  0  0  0  0  0  0  0  0  0
   -5.4343    1.2109   -0.4578 H   0  0  0  0  0  0  0  0  0  0  0  0
   -3.1922    3.8219   -7.5454 H   0  0  0  0  0  0  0  0  0  0  0  0
   -3.9825    3.1685   -9.7732 H   0  0  0  0  0  0  0  0  0  0  0  0
   -3.1074    0.9399  -11.6742 H   0  0  0  0  0  0  0  0  0  0  0  0
   -1.7843    1.8161  -12.4418 H   0  0  0  0  0  0  0  0  0  0  0  0
   -3.3255    2.6282  -12.1254 H   0  0  0  0  0  0  0  0  0  0  0  0
   -0.1316    1.5723  -10.6772 H   0  0  0  0  0  0  0  0  0  0  0  0
    0.6573    2.1956   -8.4390 H   0  0  0  0  0  0  0  0  0  0  0  0
    0.9316    2.6300   -4.6582 H   0  0  0  0  0  0  0  0  0  0  0  0
    3.2248    3.4528   -4.3533 H   0  0  0  0  0  0  0  0  0  0  0  0
    4.5288    6.2148   -5.2950 H   0  0  0  0  0  0  0  0  0  0  0  0
    5.0500    5.4773   -6.8051 H   0  0  0  0  0  0  0  0  0  0  0  0
    5.1732    4.5745   -5.2856 H   0  0  0  0  0  0  0  0  0  0  0  0
    2.8147    5.8976   -7.8241 H   0  0  0  0  0  0  0  0  0  0  0  0
    0.5088    5.1099   -8.1120 H   0  0  0  0  0  0  0  0  0  0  0  0
   -0.2540    5.3727   -4.8627 H   0  0  0  0  0  0  0  0  0  0  0  0
   -0.2458    4.4717    1.3352 H   0  0  0  0  0  0  0  0  0  0  0  0
    1.7643    5.3113    2.5368 H   0  0  0  0  0  0  0  0  0  0  0  0
    3.2247    7.1340   -1.0498 H   0  0  0  0  0  0  0  0  0  0  0  0
  1  2  2  0  0  0  0
  2  3  1  0  0  0  0
  3  4  2  0  0  0  0
  3  5  1  0  0  0  0
  5  6  2  0  0  0  0
  6  7  1  0  0  0  0
  7  8  2  0  0  0  0
  8  9  1  0  0  0  0
  8 10  1  0  0  0  0
 10 11  2  0  0  0  0
 11 12  1  0  0  0  0
 12 13  2  0  0  0  0
 13 14  1  0  0  0  0
 14 15  3  0  0  0  0
 13 16  1  0  0  0  0
 16 17  3  0  0  0  0
  1 18  1  0  0  0  0
 18 19  2  0  0  0  0
 19 20  1  0  0  0  0
 20 21  1  0  0  0  0
 21 22  2  0  0  0  0
 22 23  1  0  0  0  0
 23 24  2  0  0  0  0
 24 25  1  0  0  0  0
 24 26  1  0  0  0  0
 26 27  2  0  0  0  0
 20 28  1  0  0  0  0
 28 29  2  0  0  0  0
 29 30  1  0  0  0  0
 30 31  2  0  0  0  0
 31 32  1  0  0  0  0
 31 33  1  0  0  0  0
 33 34  2  0  0  0  0
 19 35  1  0  0  0  0
 35 36  1  0  0  0  0
 36 37  1  0  0  0  0
 37 38  2  0  0  0  0
 38 39  1  0  0  0  0
 39 40  1  0  0  0  0
 40 41  2  0  0  0  0
 41 42  1  0  0  0  0
 42 43  2  0  0  0  0
 43 44  1  0  0  0  0
 43 45  1  0  0  0  0
 45 46  2  0  0  0  0
 39 47  1  0  0  0  0
 47 48  2  0  0  0  0
 48 49  1  0  0  0  0
 49 50  2  0  0  0  0
 50 51  1  0  0  0  0
 50 52  1  0  0  0  0
 52 53  2  0  0  0  0
 38 54  1  0  0  0  0
 54 55  1  0  0  0  0
 37 56  1  0  0  0  0
 56 57  2  0  0  0  0
 57 58  1  0  0  0  0
 58 59  2  0  0  0  0
 59 60  1  0  0  0  0
 60 61  2  0  0  0  0
 61 62  1  0  0  0  0
 62 63  1  0  0  0  0
 63 64  1  0  0  0  0
 62 65  2  0  0  0  0
 57 66  1  0  0  0  0
 66 67  1  0  0  0  0
 67 68  1  0  0  0  0
 68 69  1  0  0  0  0
 69 70  1  0  0  0  0
 70 71  1  0  0  0  0
 71 72  2  0  0  0  0
 72 73  1  0  0  0  0
 73 74  1  0  0  0  0
 71 75  1  0  0  0  0
 75 76  1  0  0  0  0
 76 77  1  0  0  0  0
 77 78  1  0  0  0  0
 78 79  1  0  0  0  0
 79 80  1  0  0  0  0
 80 81  2  0  0  0  0
 81 82  1  0  0  0  0
 82 83  2  0  0  0  0
 83 84  1  0  0  0  0
 84 85  1  0  0  0  0
 85 86  1  0  0  0  0
 84 87  2  0  0  0  0
 79 88  2  0  0  0  0
 88 89  1  0  0  0  0
 89 90  1  0  0  0  0
 90 91  1  0  0  0  0
 91 92  1  0  0  0  0
 92 93  1  0  0  0  0
 93 94  1  0  0  0  0
 94 95  1  0  0  0  0
 95 96  1  0  0  0  0
 96 97  1  0  0  0  0
 97 98  1  0  0  0  0
 95 99  1  0  0  0  0
 99100  1  0  0  0  0
 92101  1  0  0  0  0
101102  1  0  0  0  0
 88103  1  0  0  0  0
103104  2  0  0  0  0
104105  1  0  0  0  0
105106  1  0  0  0  0
106107  2  0  0  0  0
107108  1  0  0  0  0
108109  2  0  0  0  0
109110  1  0  0  0  0
109111  1  0  0  0  0
111112  2  0  0  0  0
105113  1  0  0  0  0
113114  2  0  0  0  0
114115  1  0  0  0  0
115116  2  0  0  0  0
116117  1  0  0  0  0
116118  1  0  0  0  0
118119  2  0  0  0  0
104120  1  0  0  0  0
120121  1  0  0  0  0
121122  1  0  0  0  0
122123  2  0  0  0  0
123124  1  0  0  0  0
124125  1  0  0  0  0
125126  2  0  0  0  0
126127  1  0  0  0  0
127128  2  0  0  0  0
128129  1  0  0  0  0
128130  1  0  0  0  0
130131  2  0  0  0  0
124132  1  0  0  0  0
132133  2  0  0  0  0
133134  1  0  0  0  0
134135  2  0  0  0  0
135136  1  0  0  0  0
135137  1  0  0  0  0
137138  2  0  0  0  0
123139  1  0  0  0  0
139140  1  0  0  0  0
122141  1  0  0  0  0
141142  2  0  0  0  0
142143  1  0  0  0  0
143144  2  0  0  0  0
143145  1  0  0  0  0
145146  2  0  0  0  0
146147  1  0  0  0  0
147148  2  0  0  0  0
148149  1  0  0  0  0
148150  1  0  0  0  0
150151  2  0  0  0  0
151152  1  0  0  0  0
152153  2  0  0  0  0
153154  1  0  0  0  0
154155  3  0  0  0  0
153156  1  0  0  0  0
156157  3  0  0  0  0
 12  2  1  0  0  0  0
 55 18  1  0  0  0  0
 98 56  1  0  0  0  0
140103  1  0  0  0  0
152142  1  0  0  0  0
 11  5  1  0  0  0  0
 27 21  1  0  0  0  0
 34 28  1  0  0  0  0
 54 35  2  0  0  0  0
 65 58  1  0  0  0  0
 97 66  2  0  0  0  0
112106  1  0  0  0  0
119113  1  0  0  0  0
139120  2  0  0  0  0
151145  1  0  0  0  0
 46 40  1  0  0  0  0
 53 47  1  0  0  0  0
 96 68  2  0  0  0  0
131125  1  0  0  0  0
138132  1  0  0  0  0
 94 69  2  0  0  0  0
 74 70  2  0  0  0  0
 93 75  2  0  0  0  0
 91 76  2  0  0  0  0
 90 78  2  0  0  0  0
 87 80  1  0  0  0  0
  1158  1  0  0  0  0
  6159  1  0  0  0  0
  7160  1  0  0  0  0
 10161  1  0  0  0  0
 22162  1  0  0  0  0
 23163  1  0  0  0  0
 25164  1  0  0  0  0
 25165  1  0  0  0  0
 25166  1  0  0  0  0
 26167  1  0  0  0  0
 27168  1  0  0  0  0
 29169  1  0  0  0  0
 30170  1  0  0  0  0
 32171  1  0  0  0  0
 32172  1  0  0  0  0
 32173  1  0  0  0  0
 33174  1  0  0  0  0
 34175  1  0  0  0  0
 41176  1  0  0  0  0
 42177  1  0  0  0  0
 44178  1  0  0  0  0
 44179  1  0  0  0  0
 44180  1  0  0  0  0
 45181  1  0  0  0  0
 46182  1  0  0  0  0
 48183  1  0  0  0  0
 49184  1  0  0  0  0
 51185  1  0  0  0  0
 51186  1  0  0  0  0
 51187  1  0  0  0  0
 52188  1  0  0  0  0
 53189  1  0  0  0  0
 59190  1  0  0  0  0
 60191  1  0  0  0  0
 61192  1  0  0  0  0
 63193  1  0  0  0  0
 63194  1  0  0  0  0
 64195  1  0  0  0  0
 64196  1  0  0  0  0
 64197  1  0  0  0  0
 65198  1  0  0  0  0
 81199  1  0  0  0  0
 82200  1  0  0  0  0
 83201  1  0  0  0  0
 85202  1  0  0  0  0
 85203  1  0  0  0  0
 86204  1  0  0  0  0
 86205  1  0  0  0  0
 86206  1  0  0  0  0
 87207  1  0  0  0  0
 99208  1  0  0  0  0
 99209  1  0  0  0  0
100210  1  0  0  0  0
100211  1  0  0  0  0
100212  1  0  0  0  0
101213  1  0  0  0  0
101214  1  0  0  0  0
102215  1  0  0  0  0
102216  1  0  0  0  0
102217  1  0  0  0  0
107218  1  0  0  0  0
108219  1  0  0  0  0
110220  1  0  0  0  0
110221  1  0  0  0  0
110222  1  0  0  0  0
111223  1  0  0  0  0
112224  1  0  0  0  0
114225  1  0  0  0  0
115226  1  0  0  0  0
117227  1  0  0  0  0
117228  1  0  0  0  0
117229  1  0  0  0  0
118230  1  0  0  0  0
119231  1  0  0  0  0
126232  1  0  0  0  0
127233  1  0  0  0  0
129234  1  0  0  0  0
129235  1  0  0  0  0
129236  1  0  0  0  0
130237  1  0  0  0  0
131238  1  0  0  0  0
133239  1  0  0  0  0
134240  1  0  0  0  0
136241  1  0  0  0  0
136242  1  0  0  0  0
136243  1  0  0  0  0
137244  1  0  0  0  0
138245  1  0  0  0  0
141246  1  0  0  0  0
146247  1  0  0  0  0
147248  1  0  0  0  0
150249  1  0  0  0  0
M  END
