286

C         12.62470        5.41110        4.59610
C         12.73520        5.28660        5.97160
C         11.70880        4.66360        6.81470
O         10.66160        4.15280        6.45980
C         12.14770        4.89970        8.20990
C         11.54010        4.52080        9.38890
C         12.16550        4.83400       10.58750
C         13.36780        5.52350       10.57050
Br        14.21100        5.93490       12.22600
C         13.98690        5.92510        9.39210
C         13.36360        5.60280        8.20100
C         13.75270        5.84230        6.80990
C         14.95920        6.35120        6.38980
C         15.34870        6.42660        5.03880
N         15.74230        6.48420        3.96080
C         15.98210        6.77450        7.25620
N         16.85750        7.11550        7.91830
C         11.91930        4.55790        3.75460
C         11.52150        3.20740        3.90740
N         11.87480        2.34770        4.90730
C         13.04170        2.48190        5.66840
C         13.02100        2.16130        7.02460
C         14.15250        2.33480        7.79910
C         15.33010        2.82430        7.25060
C         16.54440        3.06000        8.09230
C         15.35700        3.09230        5.88340
C         14.23540        2.92540        5.09930
C         11.03490        1.24040        5.16950
C          9.66640        1.42470        5.33990
C          8.84670        0.33380        5.54890
C          9.36610       -0.95490        5.59680
C          8.46690       -2.13320        5.81560
C         10.73940       -1.12160        5.46110
C         11.57190       -0.03940        5.25010
C         10.74860        2.79990        2.80110
S          9.99130        1.30570        2.36000
C          9.39180        2.01590        0.86560
C          9.83870        3.32250        0.68730
N          9.60070        4.11000       -0.42460
C          9.38200        5.48330       -0.22250
C          8.57730        5.90740        0.83150
C          8.37430        7.25500        1.05210
C          8.95480        8.21100        0.22840
C          8.74870        9.67280        0.48190
C          9.75210        7.77800       -0.82500
C          9.97150        6.43420       -1.05050
C          9.71050        3.58370       -1.71700
C         10.57600        2.52790       -1.98910
C         10.65470        2.00280       -3.26440
C          9.88870        2.51620       -4.30180
C          9.96130        1.94260       -5.68400
C          9.03460        3.57860       -4.02470
C          8.93840        4.10570       -2.75440
C         10.59490        3.75250        1.80140
S         11.42880        5.21320        2.18040
C          8.46240        1.24510        0.12360
S          7.28220        1.98870       -0.95520
C          6.45300        0.48310       -1.09630
C          5.29860       -0.08320       -1.63450
S          3.90430        0.37590       -2.55630
C          3.27410       -1.22490       -2.33090
C          2.00400       -1.82740       -2.58600
C          0.85190       -1.30250       -3.16460
C         -0.29200       -2.06020       -3.08390
C         -1.69150       -1.69920       -3.55220
C         -1.87120       -1.85690       -5.05410
C         -0.87110       -2.36580       -5.87020
C         -1.09080       -2.52840       -7.22590
C         -2.31270       -2.20080       -7.79780
C         -2.55000       -2.42110       -9.26500
C         -2.75990       -3.90600       -9.56660
C         -3.31210       -1.70010       -6.97380
C         -3.09640       -1.52730       -5.62050
C         -2.05360       -0.30470       -3.09070
C         -1.76090        0.79310       -3.89000
C         -2.04900        2.07280       -3.45610
C         -2.63690        2.29100       -2.21690
C         -2.90680        3.68600       -1.73080
C         -1.67780        4.24650       -1.01220
C         -2.91840        1.19130       -1.41810
C         -2.62650       -0.09080       -1.84510
C         -2.49250       -2.79690       -2.90400
C         -1.65210       -3.73650       -2.33610
C         -0.29030       -3.30740       -2.41800
C          0.87530       -3.85410       -1.88720
C          2.02710       -3.11050       -1.99360
C          3.41850       -3.42430       -1.44540
C          3.34700       -3.79980        0.02250
C          3.95090       -4.93180        0.55060
C          3.87530       -5.20030        1.90650
C          3.20090       -4.34920        2.76960
C          3.17440       -4.61020        4.24790
C          4.34740       -3.90810        4.93590
C          2.59640       -3.21630        2.23690
C          2.66750       -2.94500        0.88480
C          4.05460       -4.49280       -2.31980
C          3.48140       -5.75770       -2.40430
C          4.03420       -6.73460       -3.20890
C          5.17730       -6.48270       -3.95710
C          5.74750       -7.53090       -4.86810
C          5.08890       -7.45490       -6.24710
C          5.74700       -5.22090       -3.87370
C          5.19640       -4.23970       -3.06820
C          4.09310       -2.08080       -1.61560
C          5.26730       -1.43660       -1.21000
N          6.38930       -1.70670       -0.47030
C          7.09900       -0.53920       -0.36870
C          8.23270       -0.10370        0.31460
C          6.71850       -2.92430        0.22390
C          6.43680       -2.81030        1.72020
S         -2.48670       -5.05070       -1.57030
C         -4.00430       -4.29860       -1.97160
C         -5.32970       -4.57640       -1.64620
C         -6.19190       -3.59890       -2.10460
S         -5.34920       -2.33800       -2.99590
C         -3.83500       -3.11060       -2.69900
C         -7.55910       -3.46930       -1.76080
C         -8.47320       -2.49040       -2.14100
N         -8.28080       -1.54230       -3.13310
C         -7.87890       -1.88890       -4.42500
C         -7.99320       -3.19340       -4.90300
C         -7.59930       -3.49960       -6.18920
C         -7.09660       -2.52420       -7.04250
C         -6.68540       -2.87820       -8.43910
C         -6.98150       -1.22740       -6.55820
C         -7.35440       -0.91010       -5.26790
C         -8.86400       -0.27940       -2.88710
C         -9.76940        0.28900       -3.77590
C        -10.39120        1.47950       -3.45710
C        -10.13290        2.12540       -2.25500
C        -10.87230        3.37040       -1.87620
C         -9.20450        1.56430       -1.38720
C         -8.57220        0.37700       -1.69570
C         -9.65290       -2.55970       -1.36290
S        -11.04070       -1.54120       -1.23070
C        -11.69230       -2.57780        0.04310
C        -10.79950       -3.63370        0.37660
N        -10.98130       -4.54460        1.38300
C        -10.43230       -5.83200        1.22870
C         -9.74960       -6.44440        2.27470
C         -9.21990       -7.70840        2.10680
C         -9.35200       -8.38910        0.90240
C         -8.75470       -9.74910        0.71380
C        -10.03970       -7.76970       -0.13520
C        -10.57840       -6.50910        0.02060
C        -11.57630       -4.20680        2.61310
C        -12.36470       -5.13830        3.28340
C        -12.95050       -4.80590        4.48890
C        -12.77860       -3.54590        5.04910
C        -13.46400       -3.18210        6.32960
C        -11.97290       -2.63020        4.38090
C        -11.36740       -2.95310        3.18360
C         -9.66600       -3.60610       -0.44760
S         -8.21060       -4.54920       -0.52940
C        -12.95500       -2.43970        0.60600
C        -13.88560       -1.42580        0.48420
C        -13.69650       -0.16040       -0.22200
O        -12.76400        0.17460       -0.93510
C        -14.86520        0.67430        0.11470
C        -15.14980        1.94770       -0.28040
C        -16.33690        2.56220        0.17960
C        -16.68000        3.87680       -0.19370
C        -17.83030        4.46110        0.25990
C        -18.67110        3.72960        1.10800
F        -19.79950        4.32120        1.54620
C        -18.38570        2.45110        1.49990
C        -17.20590        1.83410        1.04190
C        -16.88560        0.51010        1.42790
C        -15.73010       -0.06280        0.97130
C        -15.14800       -1.38830        1.17880
C        -15.73550       -2.40360        1.89850
C        -16.92950       -2.26170        2.63080
N        -17.88410       -2.20930        3.26840
C        -15.26040       -3.72460        1.98890
N        -14.96520       -4.83210        2.08760
H         13.08880        6.26590        4.11860
H         10.60380        3.98470        9.37260
H         11.72550        4.54490       11.52950
H         14.91720        6.46850        9.42630
H         12.10740        1.79470        7.46810
H         14.11050        2.10170        8.85330
H         17.35670        2.40550        7.77820
H         16.89040        4.08750        7.98500
H         16.33330        2.87200        9.14190
H         16.27090        3.44760        5.42960
H         14.27990        3.14550        4.04320
H          9.26710        2.42650        5.32170
H          7.78450        0.48460        5.67540
H          8.33030       -2.30610        6.88350
H          7.48690       -1.96010        5.37650
H          8.89510       -3.03360        5.38160
H         11.16330       -2.11430        5.50930
H         12.63660       -0.18040        5.13370
H          8.10820        5.17420        1.47180
H          7.74830        7.56840        1.87510
H          7.81060        9.84850        1.00320
H          8.74550       10.23190       -0.45110
H          9.55770       10.06000        1.10250
H         10.21730        8.50590       -1.47380
H         10.60420        6.11360       -1.86480
H         11.19080        2.11980       -1.20010
H         11.33190        1.18220       -3.45460
H          9.02910        1.43350       -5.92920
H         10.77610        1.22770       -5.76710
H         10.11140        2.73190       -6.41880
H          8.42630        3.99100       -4.81660
H          8.25610        4.91720       -2.55120
H          0.85660       -0.32220       -3.61600
H          0.08720       -2.63400       -5.45050
H         -0.29640       -2.91550       -7.84840
H         -1.69000       -2.06080       -9.83460
H         -3.42940       -1.85910       -9.58480
H         -1.87930       -4.47960       -9.28740
H         -3.60670       -4.29180       -9.00290
H         -2.95110       -4.05640      -10.62670
H         -4.27260       -1.44020       -7.39130
H         -3.88640       -1.12940       -4.99960
H         -1.31210        0.64340       -4.86160
H         -1.81640        2.91580       -4.09140
H         -3.75550        3.68150       -1.04390
H         -3.15470        4.33150       -2.57590
H         -1.41830        3.61920       -0.16220
H         -0.82510        4.27470       -1.68700
H         -1.87170        5.25510       -0.65440
H         -3.37250        1.33890       -0.44840
H         -2.84650       -0.93060       -1.20190
H          0.83930       -4.79760       -1.36510
H          4.48540       -5.61580       -0.09260
H          4.35120       -6.08870        2.29720
H          3.23730       -5.68360        4.43650
H          2.23770       -4.24270        4.67170
H          4.30040       -2.83510        4.76300
H          5.29290       -4.27610        4.54360
H          4.32280       -4.08870        6.00800
H          2.06340       -2.53930        2.88930
H          2.19110       -2.05980        0.48760
H          2.59840       -5.98770       -1.82940
H          3.57080       -7.71000       -3.25510
H          5.57830       -8.52270       -4.44350
H          6.82410       -7.38340       -4.97500
H          5.50280       -8.21210       -6.90890
H          5.25450       -6.47600       -6.69150
H          4.01620       -7.61460       -6.16340
H          6.63660       -4.99790       -4.44590
H          5.66730       -3.26880       -3.03180
H          8.86400       -0.71190        0.93720
H          7.78050       -3.13690        0.06020
H          6.12820       -3.73260       -0.21040
H          7.03550       -2.01680        2.16110
H          5.38570       -2.59050        1.88780
H          6.67810       -3.74810        2.21220
H         -5.65940       -5.42810       -1.07910
H         -8.40300       -3.96550       -4.26840
H         -7.69820       -4.51560       -6.54420
H         -7.44710       -3.48920       -8.92060
H         -6.52570       -1.98470       -9.03800
H         -5.75920       -3.45290       -8.42350
H         -6.59490       -0.44690       -7.19850
H         -7.24560        0.10020       -4.90320
H         -9.99900       -0.21810       -4.70150
H        -11.10960        1.90080       -4.14500
H        -10.23990        4.04290       -1.30040
H        -11.72780        3.09810       -1.25750
H        -11.23910        3.89260       -2.75660
H         -8.98240        2.05820       -0.45210
H         -7.85970       -0.06150       -1.01140
H         -9.63390       -5.92360        3.21350
H         -8.68900       -8.17180        2.92560
H         -8.57700      -10.23300        1.67080
H         -7.80070       -9.66690        0.19190
H         -9.40920      -10.37870        0.11500
H        -10.16170       -8.28630       -1.07600
H        -11.12500       -6.04460       -0.78710
H        -12.52700       -6.11210        2.84940
H        -13.57020       -5.53260        4.99170
H        -12.99020       -2.32200        6.79650
H        -14.50730       -2.93220        6.13340
H        -13.44880       -4.01720        7.02660
H        -11.80970       -1.65110        4.80810
H        -10.73770       -2.23370        2.68060
H        -13.23520       -3.25080        1.26550
H        -14.48040        2.48150       -0.93870
H        -16.01520        4.42030       -0.84860
H        -18.10730        5.46620       -0.01640
H        -19.05750        1.91760        2.15410
H        -17.56680       -0.01410        2.07870
