209

C         -3.59110        1.47420       10.00670
C         -4.65890        1.03270       10.75380
C         -5.55920        2.01320       11.39530
O         -5.40230        3.21130       11.48610
C         -6.73050        1.22380       11.84160
C         -7.91360        1.66170       12.40170
C         -8.88950        0.72470       12.70670
C         -8.64800       -0.61850       12.45870
Br       -10.01570       -1.88140       12.85010
C         -7.45510       -1.07980       11.91590
C         -6.49480       -0.13890       11.59340
C         -5.16560       -0.28330       10.99720
C         -4.44430       -1.45440       10.90460
C         -3.06120       -1.47880       10.66560
N         -1.92380       -1.54370       10.50870
C         -4.99160       -2.73390       11.09930
N         -5.40310       -3.80250       11.19530
C         -2.90030        0.86220        8.95800
C         -3.20760       -0.21640        8.09810
N         -4.40710       -0.87360        7.99990
C         -4.43360       -2.14660        7.36940
C         -3.62650       -3.18280        7.82860
C         -3.68500       -4.42120        7.22210
C         -4.53840       -4.65790        6.15000
C         -4.58910       -6.01050        5.51160
C         -5.33400       -3.61400        5.69580
C         -5.28650       -2.37020        6.29440
C         -5.65020       -0.26210        8.22970
C         -6.73390       -1.05100        8.61770
C         -7.96810       -0.47860        8.84960
C         -8.15870        0.89200        8.72470
C         -9.48640        1.52010        9.00890
C         -7.08260        1.66820        8.30760
C         -5.84900        1.10510        8.05040
C         -2.11130       -0.49740        7.25290
S         -1.83520       -1.64010        5.97880
C         -0.23310       -0.98060        5.70660
C          0.04250        0.11870        6.51120
N          1.16830        0.91770        6.43400
C          1.68610        1.48350        7.61110
C          1.66370        0.77170        8.80750
C          2.17050        1.33560        9.96050
C          2.71570        2.61350        9.95690
C          3.24800        3.22150       11.21810
C          2.73120        3.31800        8.75930
C          2.21990        2.76920        7.60040
C          1.76670        1.19230        5.19620
C          0.99470        1.34580        4.04770
C          1.60080        1.53960        2.82120
C          2.98220        1.59700        2.70010
C          3.65030        1.77450        1.37110
C          3.74320        1.50120        3.86030
C          3.15150        1.30670        5.09080
C         -1.02870        0.35970        7.40170
S         -1.32020        1.56780        8.58890
C          0.62320       -1.50410        4.68660
C          1.99030       -1.69770        4.77170
C          2.69900       -1.82300        6.04300
C          4.04220       -1.47560        6.16520
C          4.68000       -1.59460        7.38530
C          3.99910       -2.07000        8.49170
C          2.66910       -2.45800        8.38400
C          1.93450       -3.03730        9.55930
C          2.05930       -4.56190        9.56800
C          2.03760       -2.33890        7.15660
C          2.55700       -1.82870        3.48270
S          4.20300       -1.83000        2.89980
C          3.61320       -1.79050        1.27360
C          4.09550       -1.57970       -0.02930
C          5.35870       -1.15150       -0.49580
C          5.47500       -0.67850       -1.84840
N          6.67800       -0.19510       -2.11280
S          7.59100       -0.32950       -0.78170
N          6.48190       -1.00230        0.18830
C          4.37300       -0.82450       -2.71980
C          4.21790       -0.57240       -4.09250
S          5.08240        0.19130       -5.37950
C          3.76570       -0.19360       -6.45910
C          3.54360        0.07570       -7.82330
C          4.45790        0.81270       -8.69370
C          4.65650        0.43010      -10.01830
C          5.47580        1.18130      -10.83840
C          6.10490        2.31370      -10.35080
C          5.94350        2.69320       -9.02420
C          6.58840        3.94080       -8.49300
C          5.62800        5.12600       -8.61400
C          5.12330        1.93340       -8.20530
C          2.34490       -0.47250       -8.24680
S          1.51040       -1.35010       -6.97970
C          2.73750       -0.91480       -5.84260
C          2.97660       -1.09250       -4.47350
N          2.33380       -1.61040       -3.37620
C          3.15950       -1.41920       -2.28230
C          2.96750       -1.62540       -0.89260
N          1.82950       -1.80440       -0.12450
C          2.22150       -1.85870        1.18580
C          1.61860       -1.83760        2.45090
S          0.00920       -1.65800        3.04890
C          0.45760       -1.49930       -0.46090
C          0.29180       -0.02730       -0.82890
C          1.27320       -2.58400       -3.52600
C         -0.06530       -1.95780       -3.90980
C          1.74900       -0.36580       -9.53820
S          1.20450       -1.76630      -10.40760
C          0.78220       -0.81700      -11.82800
C          1.03180        0.53100      -11.55670
S          0.76330        1.96890      -12.47040
C          1.30040        2.96160      -11.11620
C          1.23700        4.38750      -11.22060
C          1.95790        5.32820      -10.51580
C          1.60030        6.63860      -10.83950
C          0.60980        6.70340      -11.78940
C         -0.05520        7.87920      -12.34710
O         -0.93680        7.83350      -13.17040
O          0.43830        9.01250      -11.82430
C         -0.17080       10.23040      -12.25470
C         -1.43000       10.53300      -11.45490
S          0.11140        5.13570      -12.31070
C          1.68790        2.19810      -10.04560
C          1.56560        0.80020      -10.28030
Cl         2.10390        2.84480       -8.51870
C          0.29790       -1.26640      -13.05630
C          0.03190       -2.54760      -13.48160
C          0.20340       -3.75100      -12.66950
O          0.55970       -3.81680      -11.50360
C         -0.14240       -4.88760      -13.54160
C         -0.12660       -6.23910      -13.25590
C         -0.49090       -7.12980      -14.25350
C         -0.85820       -6.64610      -15.50170
Br        -1.34930       -7.88590      -16.85510
C         -0.88060       -5.28890      -15.80440
C         -0.51740       -4.40100      -14.80660
C         -0.42860       -2.93760      -14.79590
C         -0.73440       -2.12080      -15.85350
C         -0.65000       -0.71230      -15.85400
N         -0.60650        0.43240      -15.93570
C         -1.18360       -2.58570      -17.10770
N         -1.55210       -2.90030      -18.14820
H         -3.27160        2.48670       10.23650
H         -8.07060        2.71220       12.59080
H         -9.83230        1.03110       13.13300
H         -7.30760       -2.13320       11.73890
H         -2.95670       -3.01790        8.65790
H         -3.06080       -5.22040        7.59270
H         -4.89790       -6.75900        6.23990
H         -5.28880       -6.02460        4.68020
H         -3.60340       -6.29220        5.14420
H         -5.99990       -3.77190        4.86010
H         -5.90900       -1.56570        5.93070
H         -6.60040       -2.11520        8.74630
H         -8.79310       -1.10830        9.14870
H        -10.11680        0.85100        9.58910
H        -10.00080        1.74980        8.07550
H         -9.35840        2.45130        9.55680
H         -7.21180        2.73260        8.18010
H         -5.03920        1.72820        7.70330
H          1.25630       -0.22650        8.83020
H          2.14460        0.76840       10.87920
H          3.74650        2.47140       11.82820
H          3.94960        4.02250       10.99880
H          2.42880        3.63870       11.80460
H          3.14260        4.31680        8.73310
H          2.22970        3.33570        6.68080
H         -0.08290        1.30680        4.11600
H          0.97950        1.65230        1.94380
H          4.51310        1.11600        1.28860
H          4.00250        2.80030        1.25930
H          2.96680        1.55850        0.55280
H          4.81960        1.56090        3.79220
H          3.75690        1.22120        5.98010
H          4.58080       -1.09880        5.31040
H          5.71840       -1.31070        7.47350
H          4.50370       -2.14960        9.44350
H          0.87770       -2.76550        9.51390
H          2.34890       -2.63690       10.48640
H          1.64870       -4.98060        8.65170
H          3.10400       -4.85690        9.63990
H          1.51970       -4.98110       10.41380
H          1.01160       -2.66510        7.06340
H          4.18630       -0.46510      -10.39680
H          5.62430        0.88190      -11.86540
H          6.73470        2.90210      -11.00210
H          6.85540        3.79970       -7.44400
H          7.49950        4.15610       -9.05380
H          4.71870        4.93280       -8.04820
H          6.08940        6.03150       -8.22740
H          5.36050        5.29070       -9.65610
H          4.97550        2.23350       -7.17830
H          0.10360       -2.14080       -1.26640
H         -0.13960       -1.72270        0.42650
H          0.90020        0.22840       -1.69370
H          0.60160        0.59730        0.00510
H         -0.75040        0.18670       -1.05070
H          1.20110       -3.15530       -2.59900
H          1.56900       -3.28130       -4.31910
H         -0.82820       -2.73090       -3.94570
H          0.00170       -1.50130       -4.89280
H         -0.37050       -1.19390       -3.20180
H          2.72540        5.07680       -9.80840
H          2.04040        7.51510      -10.40050
H          0.59050       10.99730      -12.09820
H         -0.40950       10.15060      -13.32030
H         -1.20300       10.56290      -10.39170
H         -2.17770        9.76470      -11.63580
H         -1.83280       11.49440      -11.76010
H          0.13930       -0.46110      -13.76430
H          0.16540       -6.58440      -12.27640
H         -0.49020       -8.19300      -14.06950
H         -1.17210       -4.96200      -16.78900
