
  xtb     02072205443D
 energy: -414.310825025000 gnorm: 0.000467772608 xtb: 6.4.1 (unknown)
249274  0     0  0            999 V2000
    3.6182   -4.6907    1.1381 C   0  0  0  0  0  0  0  0  0  0  0  0
    4.3795   -3.5530    0.9533 C   0  0  0  0  0  0  0  0  0  0  0  0
    3.9497   -2.4601    0.0746 C   0  0  0  0  0  0  0  0  0  0  0  0
    3.1093   -2.4955   -0.8058 O   0  0  0  0  0  0  0  0  0  0  0  0
    4.6880   -1.2648    0.5417 C   0  0  0  0  0  0  0  0  0  0  0  0
    4.5446    0.0536    0.1579 C   0  0  0  0  0  0  0  0  0  0  0  0
    5.3647    1.0062    0.7454 C   0  0  0  0  0  0  0  0  0  0  0  0
    6.2910    0.6158    1.6980 C   0  0  0  0  0  0  0  0  0  0  0  0
    7.4183    1.9370    2.4746 Br  0  0  0  0  0  0  0  0  0  0  0  0
    6.4272   -0.7016    2.1207 C   0  0  0  0  0  0  0  0  0  0  0  0
    5.6050   -1.6478    1.5356 C   0  0  0  0  0  0  0  0  0  0  0  0
    5.4497   -3.0817    1.7856 C   0  0  0  0  0  0  0  0  0  0  0  0
    6.2297   -3.8531    2.6086 C   0  0  0  0  0  0  0  0  0  0  0  0
    7.2741   -3.3415    3.3985 C   0  0  0  0  0  0  0  0  0  0  0  0
    8.1170   -2.9538    4.0765 N   0  0  0  0  0  0  0  0  0  0  0  0
    6.0801   -5.2488    2.7366 C   0  0  0  0  0  0  0  0  0  0  0  0
    6.0320   -6.3891    2.8595 N   0  0  0  0  0  0  0  0  0  0  0  0
    2.6693   -5.1685    0.2284 C   0  0  0  0  0  0  0  0  0  0  0  0
    2.6556   -5.1318   -1.1853 C   0  0  0  0  0  0  0  0  0  0  0  0
    3.7495   -4.9119   -1.9611 N   0  0  0  0  0  0  0  0  0  0  0  0
    3.6370   -4.5701   -3.3235 C   0  0  0  0  0  0  0  0  0  0  0  0
    2.7223   -3.6151   -3.7543 C   0  0  0  0  0  0  0  0  0  0  0  0
    2.6255   -3.3129   -5.0986 C   0  0  0  0  0  0  0  0  0  0  0  0
    3.4409   -3.9343   -6.0362 C   0  0  0  0  0  0  0  0  0  0  0  0
    3.3046   -3.6171   -7.4936 C   0  0  0  0  0  0  0  0  0  0  0  0
    4.3730   -4.8637   -5.5897 C   0  0  0  0  0  0  0  0  0  0  0  0
    4.4738   -5.1838   -4.2502 C   0  0  0  0  0  0  0  0  0  0  0  0
    5.0553   -5.0091   -1.4334 C   0  0  0  0  0  0  0  0  0  0  0  0
    5.9507   -3.9611   -1.6109 C   0  0  0  0  0  0  0  0  0  0  0  0
    7.2174   -4.0338   -1.0593 C   0  0  0  0  0  0  0  0  0  0  0  0
    7.6214   -5.1512   -0.3414 C   0  0  0  0  0  0  0  0  0  0  0  0
    8.9828   -5.2292    0.2755 C   0  0  0  0  0  0  0  0  0  0  0  0
    6.7319   -6.2152   -0.2131 C   0  0  0  0  0  0  0  0  0  0  0  0
    5.4608   -6.1473   -0.7433 C   0  0  0  0  0  0  0  0  0  0  0  0
    1.3687   -5.4570   -1.6686 C   0  0  0  0  0  0  0  0  0  0  0  0
    0.5958   -5.4454   -3.2237 S   0  0  0  0  0  0  0  0  0  0  0  0
   -0.9890   -5.6126   -2.4838 C   0  0  0  0  0  0  0  0  0  0  0  0
   -0.9023   -5.8162   -1.1173 C   0  0  0  0  0  0  0  0  0  0  0  0
   -1.9935   -5.8519   -0.2266 N   0  0  0  0  0  0  0  0  0  0  0  0
   -2.1500   -4.6515    0.5086 C   0  0  0  0  0  0  0  0  0  0  0  0
   -2.0760   -4.6231    1.8981 C   0  0  0  0  0  0  0  0  0  0  0  0
   -2.1964   -3.4258    2.5767 C   0  0  0  0  0  0  0  0  0  0  0  0
   -2.3870   -2.2270    1.8994 C   0  0  0  0  0  0  0  0  0  0  0  0
   -2.4806   -0.9257    2.6358 C   0  0  0  0  0  0  0  0  0  0  0  0
   -2.4545   -2.2628    0.5124 C   0  0  0  0  0  0  0  0  0  0  0  0
   -2.3307   -3.4533   -0.1761 C   0  0  0  0  0  0  0  0  0  0  0  0
   -2.4059   -7.0772    0.2944 C   0  0  0  0  0  0  0  0  0  0  0  0
   -3.5575   -7.1519    1.0777 C   0  0  0  0  0  0  0  0  0  0  0  0
   -3.9869   -8.3650    1.5704 C   0  0  0  0  0  0  0  0  0  0  0  0
   -3.2992   -9.5419    1.2958 C   0  0  0  0  0  0  0  0  0  0  0  0
   -3.7759  -10.8502    1.8508 C   0  0  0  0  0  0  0  0  0  0  0  0
   -2.1627   -9.4635    0.5057 C   0  0  0  0  0  0  0  0  0  0  0  0
   -1.7196   -8.2539    0.0069 C   0  0  0  0  0  0  0  0  0  0  0  0
    0.4383   -5.7437   -0.6758 C   0  0  0  0  0  0  0  0  0  0  0  0
    1.1461   -5.7803    0.8943 S   0  0  0  0  0  0  0  0  0  0  0  0
   -2.1145   -5.1160   -3.2139 C   0  0  0  0  0  0  0  0  0  0  0  0
   -3.4739   -5.2722   -2.9946 C   0  0  0  0  0  0  0  0  0  0  0  0
   -4.0694   -6.4613   -2.3992 C   0  0  0  0  0  0  0  0  0  0  0  0
   -5.2417   -6.3886   -1.6512 C   0  0  0  0  0  0  0  0  0  0  0  0
   -5.8255   -7.5440   -1.1709 C   0  0  0  0  0  0  0  0  0  0  0  0
   -5.2578   -8.7777   -1.4335 C   0  0  0  0  0  0  0  0  0  0  0  0
   -4.0835   -8.8709   -2.1696 C   0  0  0  0  0  0  0  0  0  0  0  0
   -3.4968  -10.2117   -2.5027 C   0  0  0  0  0  0  0  0  0  0  0  0
   -4.1190  -10.7617   -3.7877 C   0  0  0  0  0  0  0  0  0  0  0  0
   -3.4983   -7.7090   -2.6433 C   0  0  0  0  0  0  0  0  0  0  0  0
   -4.1931   -4.1508   -3.4791 C   0  0  0  0  0  0  0  0  0  0  0  0
   -5.8405   -3.5923   -3.2505 S   0  0  0  0  0  0  0  0  0  0  0  0
   -5.3872   -2.0289   -3.8545 C   0  0  0  0  0  0  0  0  0  0  0  0
   -5.8422   -0.6984   -3.8083 C   0  0  0  0  0  0  0  0  0  0  0  0
   -7.0146   -0.1479   -3.2449 C   0  0  0  0  0  0  0  0  0  0  0  0
   -7.0261    1.2470   -2.8994 C   0  0  0  0  0  0  0  0  0  0  0  0
   -8.1409    1.6046   -2.2823 N   0  0  0  0  0  0  0  0  0  0  0  0
   -9.1020    0.3056   -2.1602 S   0  0  0  0  0  0  0  0  0  0  0  0
   -8.1220   -0.7689   -2.8731 N   0  0  0  0  0  0  0  0  0  0  0  0
   -5.8778    2.0238   -3.1640 C   0  0  0  0  0  0  0  0  0  0  0  0
   -5.4424    3.2411   -2.6013 C   0  0  0  0  0  0  0  0  0  0  0  0
   -5.8519    4.2907   -1.2803 S   0  0  0  0  0  0  0  0  0  0  0  0
   -4.1988    4.8841   -1.2388 C   0  0  0  0  0  0  0  0  0  0  0  0
   -3.4177    5.4440   -0.1858 C   0  0  0  0  0  0  0  0  0  0  0  0
   -4.0140    5.9989    1.0261 C   0  0  0  0  0  0  0  0  0  0  0  0
   -5.3463    6.4120    0.9994 C   0  0  0  0  0  0  0  0  0  0  0  0
   -5.9493    6.9149    2.1357 C   0  0  0  0  0  0  0  0  0  0  0  0
   -5.2332    7.0344    3.3116 C   0  0  0  0  0  0  0  0  0  0  0  0
   -3.8940    6.6634    3.3549 C   0  0  0  0  0  0  0  0  0  0  0  0
   -3.0992    6.8717    4.6125 C   0  0  0  0  0  0  0  0  0  0  0  0
   -2.8228    8.3611    4.8227 C   0  0  0  0  0  0  0  0  0  0  0  0
   -3.3012    6.1463    2.2156 C   0  0  0  0  0  0  0  0  0  0  0  0
   -2.0690    5.3069   -0.4556 C   0  0  0  0  0  0  0  0  0  0  0  0
   -1.7693    4.6789   -2.0820 S   0  0  0  0  0  0  0  0  0  0  0  0
   -3.4495    4.3840   -2.2973 C   0  0  0  0  0  0  0  0  0  0  0  0
   -4.1540    3.4587   -3.0772 C   0  0  0  0  0  0  0  0  0  0  0  0
   -3.7817    2.4702   -3.9535 N   0  0  0  0  0  0  0  0  0  0  0  0
   -4.8007    1.5204   -3.9466 C   0  0  0  0  0  0  0  0  0  0  0  0
   -4.7597    0.1285   -4.2318 C   0  0  0  0  0  0  0  0  0  0  0  0
   -3.7145   -0.6968   -4.6049 N   0  0  0  0  0  0  0  0  0  0  0  0
   -4.0696   -1.9835   -4.3097 C   0  0  0  0  0  0  0  0  0  0  0  0
   -3.3933   -3.1908   -4.1007 C   0  0  0  0  0  0  0  0  0  0  0  0
   -1.7424   -3.6833   -4.1772 S   0  0  0  0  0  0  0  0  0  0  0  0
   -2.4061   -0.4329   -5.1529 C   0  0  0  0  0  0  0  0  0  0  0  0
   -1.3601   -0.1625   -4.0728 C   0  0  0  0  0  0  0  0  0  0  0  0
   -2.8289    2.8055   -4.9935 C   0  0  0  0  0  0  0  0  0  0  0  0
   -3.5138    2.9276   -6.3527 C   0  0  0  0  0  0  0  0  0  0  0  0
   -0.9106    5.1342    0.3965 C   0  0  0  0  0  0  0  0  0  0  0  0
   -0.4110    3.8588    0.5915 C   0  0  0  0  0  0  0  0  0  0  0  0
   -0.9136    2.6737    0.0541 N   0  0  0  0  0  0  0  0  0  0  0  0
    0.0100    1.9428   -0.7171 C   0  0  0  0  0  0  0  0  0  0  0  0
    0.0949    0.5550   -0.6509 C   0  0  0  0  0  0  0  0  0  0  0  0
    1.0127   -0.1204   -1.4309 C   0  0  0  0  0  0  0  0  0  0  0  0
    1.8783    0.5622   -2.2807 C   0  0  0  0  0  0  0  0  0  0  0  0
    2.8604   -0.1748   -3.1392 C   0  0  0  0  0  0  0  0  0  0  0  0
    1.8076    1.9481   -2.3178 C   0  0  0  0  0  0  0  0  0  0  0  0
    0.8883    2.6329   -1.5501 C   0  0  0  0  0  0  0  0  0  0  0  0
   -2.2391    2.2838    0.2244 C   0  0  0  0  0  0  0  0  0  0  0  0
   -2.9865    2.7657    1.2974 C   0  0  0  0  0  0  0  0  0  0  0  0
   -4.3115    2.4076    1.4465 C   0  0  0  0  0  0  0  0  0  0  0  0
   -4.9271    1.5327    0.5599 C   0  0  0  0  0  0  0  0  0  0  0  0
   -6.3670    1.1541    0.7126 C   0  0  0  0  0  0  0  0  0  0  0  0
   -4.1700    1.0341   -0.4937 C   0  0  0  0  0  0  0  0  0  0  0  0
   -2.8559    1.4144   -0.6737 C   0  0  0  0  0  0  0  0  0  0  0  0
    0.7795    3.8646    1.3458 C   0  0  0  0  0  0  0  0  0  0  0  0
    1.7874    2.5826    1.8895 S   0  0  0  0  0  0  0  0  0  0  0  0
    2.8672    3.7659    2.6341 C   0  0  0  0  0  0  0  0  0  0  0  0
    2.4734    5.1072    2.3411 C   0  0  0  0  0  0  0  0  0  0  0  0
    3.2261    6.2107    2.6121 N   0  0  0  0  0  0  0  0  0  0  0  0
    4.6299    6.1807    2.4852 C   0  0  0  0  0  0  0  0  0  0  0  0
    5.2234    5.4132    1.4835 C   0  0  0  0  0  0  0  0  0  0  0  0
    6.5958    5.3481    1.3875 C   0  0  0  0  0  0  0  0  0  0  0  0
    7.4116    6.0508    2.2712 C   0  0  0  0  0  0  0  0  0  0  0  0
    8.8986    5.9197    2.1791 C   0  0  0  0  0  0  0  0  0  0  0  0
    6.8095    6.8523    3.2300 C   0  0  0  0  0  0  0  0  0  0  0  0
    5.4328    6.9219    3.3445 C   0  0  0  0  0  0  0  0  0  0  0  0
    2.5831    7.4233    2.9178 C   0  0  0  0  0  0  0  0  0  0  0  0
    3.0214    8.6228    2.3645 C   0  0  0  0  0  0  0  0  0  0  0  0
    2.3838    9.8025    2.6881 C   0  0  0  0  0  0  0  0  0  0  0  0
    1.3048    9.8200    3.5667 C   0  0  0  0  0  0  0  0  0  0  0  0
    0.6376   11.1119    3.9226 C   0  0  0  0  0  0  0  0  0  0  0  0
    0.8806    8.6175    4.1166 C   0  0  0  0  0  0  0  0  0  0  0  0
    1.5053    7.4287    3.7972 C   0  0  0  0  0  0  0  0  0  0  0  0
    1.2268    5.1325    1.6863 C   0  0  0  0  0  0  0  0  0  0  0  0
    0.1202    6.3621    1.1254 S   0  0  0  0  0  0  0  0  0  0  0  0
    3.8785    3.4501    3.5319 C   0  0  0  0  0  0  0  0  0  0  0  0
    4.2639    2.2246    4.0491 C   0  0  0  0  0  0  0  0  0  0  0  0
    3.7655    0.9193    3.6373 C   0  0  0  0  0  0  0  0  0  0  0  0
    2.9938    0.6570    2.7280 O   0  0  0  0  0  0  0  0  0  0  0  0
    4.4376   -0.0696    4.5062 C   0  0  0  0  0  0  0  0  0  0  0  0
    5.3820    0.5916    5.3114 C   0  0  0  0  0  0  0  0  0  0  0  0
    6.1930   -0.1415    6.1620 C   0  0  0  0  0  0  0  0  0  0  0  0
    6.0066   -1.5147    6.2398 C   0  0  0  0  0  0  0  0  0  0  0  0
    5.0251   -2.1501    5.4950 C   0  0  0  0  0  0  0  0  0  0  0  0
    4.7469   -4.0080    5.7210 Br  0  0  0  0  0  0  0  0  0  0  0  0
    4.2309   -1.4347    4.5940 C   0  0  0  0  0  0  0  0  0  0  0  0
    3.0185   -2.2095    3.6529 Cl  0  0  0  0  0  0  0  0  0  0  0  0
    5.2534    2.0329    5.0814 C   0  0  0  0  0  0  0  0  0  0  0  0
    5.9170    2.9976    5.8003 C   0  0  0  0  0  0  0  0  0  0  0  0
    5.6722    4.3816    5.7344 C   0  0  0  0  0  0  0  0  0  0  0  0
    5.4979    5.5171    5.7842 N   0  0  0  0  0  0  0  0  0  0  0  0
    6.9048    2.7246    6.7681 C   0  0  0  0  0  0  0  0  0  0  0  0
    7.7151    2.5767    7.5682 N   0  0  0  0  0  0  0  0  0  0  0  0
    3.6418   -5.1709    2.1105 H   0  0  0  0  0  0  0  0  0  0  0  0
    3.7998    0.3383   -0.5673 H   0  0  0  0  0  0  0  0  0  0  0  0
    5.2785    2.0473    0.4744 H   0  0  0  0  0  0  0  0  0  0  0  0
    7.1437   -0.9557    2.8858 H   0  0  0  0  0  0  0  0  0  0  0  0
    2.1149   -3.1004   -3.0283 H   0  0  0  0  0  0  0  0  0  0  0  0
    1.9010   -2.5813   -5.4261 H   0  0  0  0  0  0  0  0  0  0  0  0
    4.1989   -3.9041   -8.0407 H   0  0  0  0  0  0  0  0  0  0  0  0
    3.1242   -2.5546   -7.6433 H   0  0  0  0  0  0  0  0  0  0  0  0
    2.4590   -4.1622   -7.9140 H   0  0  0  0  0  0  0  0  0  0  0  0
    5.0241   -5.3511   -6.3006 H   0  0  0  0  0  0  0  0  0  0  0  0
    5.1964   -5.9138   -3.9157 H   0  0  0  0  0  0  0  0  0  0  0  0
    5.6447   -3.0888   -2.1699 H   0  0  0  0  0  0  0  0  0  0  0  0
    7.8973   -3.2029   -1.1836 H   0  0  0  0  0  0  0  0  0  0  0  0
    9.6350   -5.8575   -0.3313 H   0  0  0  0  0  0  0  0  0  0  0  0
    9.4348   -4.2432    0.3533 H   0  0  0  0  0  0  0  0  0  0  0  0
    8.9262   -5.6714    1.2684 H   0  0  0  0  0  0  0  0  0  0  0  0
    7.0378   -7.1015    0.3210 H   0  0  0  0  0  0  0  0  0  0  0  0
    4.7762   -6.9733   -0.6210 H   0  0  0  0  0  0  0  0  0  0  0  0
   -1.9110   -5.5411    2.4425 H   0  0  0  0  0  0  0  0  0  0  0  0
   -2.1283   -3.4229    3.6552 H   0  0  0  0  0  0  0  0  0  0  0  0
   -1.4904   -0.4747    2.7215 H   0  0  0  0  0  0  0  0  0  0  0  0
   -3.1224   -0.2237    2.1074 H   0  0  0  0  0  0  0  0  0  0  0  0
   -2.8686   -1.0746    3.6408 H   0  0  0  0  0  0  0  0  0  0  0  0
   -2.6150   -1.3455   -0.0363 H   0  0  0  0  0  0  0  0  0  0  0  0
   -2.3797   -3.4540   -1.2529 H   0  0  0  0  0  0  0  0  0  0  0  0
   -4.1145   -6.2521    1.2901 H   0  0  0  0  0  0  0  0  0  0  0  0
   -4.8809   -8.4019    2.1764 H   0  0  0  0  0  0  0  0  0  0  0  0
   -3.5480  -10.9150    2.9152 H   0  0  0  0  0  0  0  0  0  0  0  0
   -4.8543  -10.9463    1.7365 H   0  0  0  0  0  0  0  0  0  0  0  0
   -3.2926  -11.6853    1.3492 H   0  0  0  0  0  0  0  0  0  0  0  0
   -1.6068  -10.3617    0.2770 H   0  0  0  0  0  0  0  0  0  0  0  0
   -0.8316   -8.2241   -0.6076 H   0  0  0  0  0  0  0  0  0  0  0  0
   -5.6830   -5.4290   -1.4319 H   0  0  0  0  0  0  0  0  0  0  0  0
   -6.7328   -7.4814   -0.5888 H   0  0  0  0  0  0  0  0  0  0  0  0
   -5.7259   -9.6777   -1.0628 H   0  0  0  0  0  0  0  0  0  0  0  0
   -3.6852  -10.9070   -1.6831 H   0  0  0  0  0  0  0  0  0  0  0  0
   -2.4171  -10.1206   -2.6334 H   0  0  0  0  0  0  0  0  0  0  0  0
   -3.6983  -11.7350   -4.0295 H   0  0  0  0  0  0  0  0  0  0  0  0
   -3.9308  -10.0853   -4.6186 H   0  0  0  0  0  0  0  0  0  0  0  0
   -5.1952  -10.8673   -3.6713 H   0  0  0  0  0  0  0  0  0  0  0  0
   -2.5947   -7.7698   -3.2339 H   0  0  0  0  0  0  0  0  0  0  0  0
   -5.9132    6.3554    0.0840 H   0  0  0  0  0  0  0  0  0  0  0  0
   -6.9852    7.2179    2.1000 H   0  0  0  0  0  0  0  0  0  0  0  0
   -5.7108    7.4213    4.2001 H   0  0  0  0  0  0  0  0  0  0  0  0
   -2.1522    6.3321    4.5494 H   0  0  0  0  0  0  0  0  0  0  0  0
   -3.6559    6.4850    5.4695 H   0  0  0  0  0  0  0  0  0  0  0  0
   -2.2615    8.7593    3.9797 H   0  0  0  0  0  0  0  0  0  0  0  0
   -3.7557    8.9143    4.9024 H   0  0  0  0  0  0  0  0  0  0  0  0
   -2.2532    8.5173    5.7366 H   0  0  0  0  0  0  0  0  0  0  0  0
   -2.2672    5.8452    2.2619 H   0  0  0  0  0  0  0  0  0  0  0  0
   -2.4712    0.3842   -5.8710 H   0  0  0  0  0  0  0  0  0  0  0  0
   -2.1135   -1.3311   -5.7062 H   0  0  0  0  0  0  0  0  0  0  0  0
   -0.3969    0.0476   -4.5298 H   0  0  0  0  0  0  0  0  0  0  0  0
   -1.2499   -1.0320   -3.4305 H   0  0  0  0  0  0  0  0  0  0  0  0
   -1.6400    0.6841   -3.4524 H   0  0  0  0  0  0  0  0  0  0  0  0
   -2.0057    2.0946   -5.0332 H   0  0  0  0  0  0  0  0  0  0  0  0
   -2.4004    3.7713   -4.7133 H   0  0  0  0  0  0  0  0  0  0  0  0
   -2.7851    3.1968   -7.1129 H   0  0  0  0  0  0  0  0  0  0  0  0
   -3.9875    1.9895   -6.6358 H   0  0  0  0  0  0  0  0  0  0  0  0
   -4.2821    3.6969   -6.3191 H   0  0  0  0  0  0  0  0  0  0  0  0
   -0.5495    0.0103    0.0221 H   0  0  0  0  0  0  0  0  0  0  0  0
    1.0829   -1.1948   -1.3556 H   0  0  0  0  0  0  0  0  0  0  0  0
    2.3816   -0.5046   -4.0614 H   0  0  0  0  0  0  0  0  0  0  0  0
    3.2279   -1.0572   -2.6228 H   0  0  0  0  0  0  0  0  0  0  0  0
    3.7014    0.4616   -3.4076 H   0  0  0  0  0  0  0  0  0  0  0  0
    2.4793    2.5023   -2.9588 H   0  0  0  0  0  0  0  0  0  0  0  0
    0.8462    3.7109   -1.6011 H   0  0  0  0  0  0  0  0  0  0  0  0
   -2.5248    3.4212    2.0197 H   0  0  0  0  0  0  0  0  0  0  0  0
   -4.8743    2.8127    2.2751 H   0  0  0  0  0  0  0  0  0  0  0  0
   -6.6928    1.2704    1.7433 H   0  0  0  0  0  0  0  0  0  0  0  0
   -6.5298    0.1234    0.4023 H   0  0  0  0  0  0  0  0  0  0  0  0
   -6.9883    1.7966    0.0866 H   0  0  0  0  0  0  0  0  0  0  0  0
   -4.6205    0.3421   -1.1918 H   0  0  0  0  0  0  0  0  0  0  0  0
   -2.2968    1.0354   -1.5146 H   0  0  0  0  0  0  0  0  0  0  0  0
    4.5992    4.8682    0.7895 H   0  0  0  0  0  0  0  0  0  0  0  0
    7.0509    4.7443    0.6164 H   0  0  0  0  0  0  0  0  0  0  0  0
    9.3939    6.5861    2.8795 H   0  0  0  0  0  0  0  0  0  0  0  0
    9.2432    6.1465    1.1714 H   0  0  0  0  0  0  0  0  0  0  0  0
    9.1893    4.8945    2.4076 H   0  0  0  0  0  0  0  0  0  0  0  0
    7.4205    7.4156    3.9185 H   0  0  0  0  0  0  0  0  0  0  0  0
    4.9801    7.5307    4.1106 H   0  0  0  0  0  0  0  0  0  0  0  0
    3.8571    8.6204    1.6807 H   0  0  0  0  0  0  0  0  0  0  0  0
    2.7268   10.7285    2.2502 H   0  0  0  0  0  0  0  0  0  0  0  0
    1.2800   11.6950    4.5825 H   0  0  0  0  0  0  0  0  0  0  0  0
    0.4521   11.7065    3.0301 H   0  0  0  0  0  0  0  0  0  0  0  0
   -0.3066   10.9367    4.4317 H   0  0  0  0  0  0  0  0  0  0  0  0
    0.0579    8.6100    4.8143 H   0  0  0  0  0  0  0  0  0  0  0  0
    1.1765    6.5009    4.2425 H   0  0  0  0  0  0  0  0  0  0  0  0
    4.4104    4.3066    3.9251 H   0  0  0  0  0  0  0  0  0  0  0  0
    6.9543    0.3248    6.7642 H   0  0  0  0  0  0  0  0  0  0  0  0
    6.6252   -2.1026    6.8995 H   0  0  0  0  0  0  0  0  0  0  0  0
  1  2  2  0  0  0  0
  2  3  1  0  0  0  0
  3  4  2  0  0  0  0
  3  5  1  0  0  0  0
  5  6  2  0  0  0  0
  6  7  1  0  0  0  0
  7  8  2  0  0  0  0
  8  9  1  0  0  0  0
  8 10  1  0  0  0  0
 10 11  2  0  0  0  0
 11 12  1  0  0  0  0
 12 13  2  0  0  0  0
 13 14  1  0  0  0  0
 14 15  3  0  0  0  0
 13 16  1  0  0  0  0
 16 17  3  0  0  0  0
  1 18  1  0  0  0  0
 18 19  2  0  0  0  0
 19 20  1  0  0  0  0
 20 21  1  0  0  0  0
 21 22  2  0  0  0  0
 22 23  1  0  0  0  0
 23 24  2  0  0  0  0
 24 25  1  0  0  0  0
 24 26  1  0  0  0  0
 26 27  2  0  0  0  0
 20 28  1  0  0  0  0
 28 29  2  0  0  0  0
 29 30  1  0  0  0  0
 30 31  2  0  0  0  0
 31 32  1  0  0  0  0
 31 33  1  0  0  0  0
 33 34  2  0  0  0  0
 19 35  1  0  0  0  0
 35 36  1  0  0  0  0
 36 37  1  0  0  0  0
 37 38  2  0  0  0  0
 38 39  1  0  0  0  0
 39 40  1  0  0  0  0
 40 41  2  0  0  0  0
 41 42  1  0  0  0  0
 42 43  2  0  0  0  0
 43 44  1  0  0  0  0
 43 45  1  0  0  0  0
 45 46  2  0  0  0  0
 39 47  1  0  0  0  0
 47 48  2  0  0  0  0
 48 49  1  0  0  0  0
 49 50  2  0  0  0  0
 50 51  1  0  0  0  0
 50 52  1  0  0  0  0
 52 53  2  0  0  0  0
 38 54  1  0  0  0  0
 54 55  1  0  0  0  0
 37 56  1  0  0  0  0
 56 57  2  0  0  0  0
 57 58  1  0  0  0  0
 58 59  2  0  0  0  0
 59 60  1  0  0  0  0
 60 61  2  0  0  0  0
 61 62  1  0  0  0  0
 62 63  1  0  0  0  0
 63 64  1  0  0  0  0
 62 65  2  0  0  0  0
 57 66  1  0  0  0  0
 66 67  1  0  0  0  0
 67 68  1  0  0  0  0
 68 69  1  0  0  0  0
 69 70  1  0  0  0  0
 70 71  1  0  0  0  0
 71 72  2  0  0  0  0
 72 73  1  0  0  0  0
 73 74  1  0  0  0  0
 71 75  1  0  0  0  0
 75 76  1  0  0  0  0
 76 77  1  0  0  0  0
 77 78  1  0  0  0  0
 78 79  1  0  0  0  0
 79 80  1  0  0  0  0
 80 81  2  0  0  0  0
 81 82  1  0  0  0  0
 82 83  2  0  0  0  0
 83 84  1  0  0  0  0
 84 85  1  0  0  0  0
 85 86  1  0  0  0  0
 84 87  2  0  0  0  0
 79 88  2  0  0  0  0
 88 89  1  0  0  0  0
 89 90  1  0  0  0  0
 90 91  1  0  0  0  0
 91 92  1  0  0  0  0
 92 93  1  0  0  0  0
 93 94  1  0  0  0  0
 94 95  1  0  0  0  0
 95 96  1  0  0  0  0
 96 97  1  0  0  0  0
 97 98  1  0  0  0  0
 95 99  1  0  0  0  0
 99100  1  0  0  0  0
 92101  1  0  0  0  0
101102  1  0  0  0  0
 88103  1  0  0  0  0
103104  2  0  0  0  0
104105  1  0  0  0  0
105106  1  0  0  0  0
106107  2  0  0  0  0
107108  1  0  0  0  0
108109  2  0  0  0  0
109110  1  0  0  0  0
109111  1  0  0  0  0
111112  2  0  0  0  0
105113  1  0  0  0  0
113114  2  0  0  0  0
114115  1  0  0  0  0
115116  2  0  0  0  0
116117  1  0  0  0  0
116118  1  0  0  0  0
118119  2  0  0  0  0
104120  1  0  0  0  0
120121  1  0  0  0  0
121122  1  0  0  0  0
122123  2  0  0  0  0
123124  1  0  0  0  0
124125  1  0  0  0  0
125126  2  0  0  0  0
126127  1  0  0  0  0
127128  2  0  0  0  0
128129  1  0  0  0  0
128130  1  0  0  0  0
130131  2  0  0  0  0
124132  1  0  0  0  0
132133  2  0  0  0  0
133134  1  0  0  0  0
134135  2  0  0  0  0
135136  1  0  0  0  0
135137  1  0  0  0  0
137138  2  0  0  0  0
123139  1  0  0  0  0
139140  1  0  0  0  0
122141  1  0  0  0  0
141142  2  0  0  0  0
142143  1  0  0  0  0
143144  2  0  0  0  0
143145  1  0  0  0  0
145146  2  0  0  0  0
146147  1  0  0  0  0
147148  2  0  0  0  0
148149  1  0  0  0  0
149150  1  0  0  0  0
149151  2  0  0  0  0
151152  1  0  0  0  0
146153  1  0  0  0  0
153154  2  0  0  0  0
154155  1  0  0  0  0
155156  3  0  0  0  0
154157  1  0  0  0  0
157158  3  0  0  0  0
 12  2  1  0  0  0  0
 55 18  1  0  0  0  0
 98 56  1  0  0  0  0
140103  1  0  0  0  0
153142  1  0  0  0  0
 11  5  1  0  0  0  0
 27 21  1  0  0  0  0
 34 28  1  0  0  0  0
 54 35  2  0  0  0  0
 65 58  1  0  0  0  0
 97 66  2  0  0  0  0
112106  1  0  0  0  0
119113  1  0  0  0  0
139120  2  0  0  0  0
151145  1  0  0  0  0
 46 40  1  0  0  0  0
 53 47  1  0  0  0  0
 96 68  2  0  0  0  0
131125  1  0  0  0  0
138132  1  0  0  0  0
 94 69  2  0  0  0  0
 74 70  2  0  0  0  0
 93 75  2  0  0  0  0
 91 76  2  0  0  0  0
 90 78  2  0  0  0  0
 87 80  1  0  0  0  0
  1159  1  0  0  0  0
  6160  1  0  0  0  0
  7161  1  0  0  0  0
 10162  1  0  0  0  0
 22163  1  0  0  0  0
 23164  1  0  0  0  0
 25165  1  0  0  0  0
 25166  1  0  0  0  0
 25167  1  0  0  0  0
 26168  1  0  0  0  0
 27169  1  0  0  0  0
 29170  1  0  0  0  0
 30171  1  0  0  0  0
 32172  1  0  0  0  0
 32173  1  0  0  0  0
 32174  1  0  0  0  0
 33175  1  0  0  0  0
 34176  1  0  0  0  0
 41177  1  0  0  0  0
 42178  1  0  0  0  0
 44179  1  0  0  0  0
 44180  1  0  0  0  0
 44181  1  0  0  0  0
 45182  1  0  0  0  0
 46183  1  0  0  0  0
 48184  1  0  0  0  0
 49185  1  0  0  0  0
 51186  1  0  0  0  0
 51187  1  0  0  0  0
 51188  1  0  0  0  0
 52189  1  0  0  0  0
 53190  1  0  0  0  0
 59191  1  0  0  0  0
 60192  1  0  0  0  0
 61193  1  0  0  0  0
 63194  1  0  0  0  0
 63195  1  0  0  0  0
 64196  1  0  0  0  0
 64197  1  0  0  0  0
 64198  1  0  0  0  0
 65199  1  0  0  0  0
 81200  1  0  0  0  0
 82201  1  0  0  0  0
 83202  1  0  0  0  0
 85203  1  0  0  0  0
 85204  1  0  0  0  0
 86205  1  0  0  0  0
 86206  1  0  0  0  0
 86207  1  0  0  0  0
 87208  1  0  0  0  0
 99209  1  0  0  0  0
 99210  1  0  0  0  0
100211  1  0  0  0  0
100212  1  0  0  0  0
100213  1  0  0  0  0
101214  1  0  0  0  0
101215  1  0  0  0  0
102216  1  0  0  0  0
102217  1  0  0  0  0
102218  1  0  0  0  0
107219  1  0  0  0  0
108220  1  0  0  0  0
110221  1  0  0  0  0
110222  1  0  0  0  0
110223  1  0  0  0  0
111224  1  0  0  0  0
112225  1  0  0  0  0
114226  1  0  0  0  0
115227  1  0  0  0  0
117228  1  0  0  0  0
117229  1  0  0  0  0
117230  1  0  0  0  0
118231  1  0  0  0  0
119232  1  0  0  0  0
126233  1  0  0  0  0
127234  1  0  0  0  0
129235  1  0  0  0  0
129236  1  0  0  0  0
129237  1  0  0  0  0
130238  1  0  0  0  0
131239  1  0  0  0  0
133240  1  0  0  0  0
134241  1  0  0  0  0
136242  1  0  0  0  0
136243  1  0  0  0  0
136244  1  0  0  0  0
137245  1  0  0  0  0
138246  1  0  0  0  0
141247  1  0  0  0  0
147248  1  0  0  0  0
148249  1  0  0  0  0
M  END
