201

C          5.65050        0.91270        9.05920
C          6.43430        1.93770        9.56230
C          6.56730        3.24920        8.91830
O          6.06860        3.62070        7.87080
C          7.33260        4.08250        9.87390
C          7.72230        5.40080        9.75940
C          8.45730        5.96670       10.79140
C          8.76890        5.20410       11.90630
Br         9.77840        6.00080       13.30820
C          8.37470        3.87740       12.04250
C          7.65050        3.31610       11.00730
C          7.11380        1.96650       10.82180
C          7.36660        0.88340       11.62960
C          8.14380        0.93740       12.80010
N          8.78670        0.92480       13.75240
C          6.94860       -0.42840       11.33320
N          6.66770       -1.52440       11.13340
C          5.33050        0.71850        7.72020
C          5.96880        1.15250        6.53340
N          7.21200        1.69040        6.42090
C          8.21400        1.54900        7.39180
C          9.04450        2.62920        7.68170
C         10.00780        2.52200        8.66760
C         10.17680        1.34300        9.38060
C         11.18110        1.23510       10.48400
C          9.37780        0.25120        9.04600
C          8.41000        0.34580        8.06870
C          7.55050        2.40770        5.24710
C          6.77650        3.48510        4.83390
C          7.13010        4.18590        3.69640
C          8.24700        3.82740        2.95190
C          8.63110        4.58120        1.71620
C          9.01280        2.74720        3.37900
C          8.67710        2.04360        4.51750
C          5.18100        0.82430        5.40710
S          5.38370        1.06140        3.70520
C          3.90330        0.17400        3.38580
C          3.31390       -0.32730        4.54330
N          2.20790       -1.15790        4.61100
C          1.94560       -2.09720        3.60670
C          2.98980       -2.73670        2.94140
C          2.73530       -3.52850        1.84080
C          1.43620       -3.73180        1.38800
C          1.17910       -4.51950        0.14000
C          0.39390       -3.16420        2.10990
C          0.63650       -2.35620        3.20320
C          1.33590       -1.03610        5.70680
C          0.79380       -2.17190        6.30160
C         -0.05830       -2.04760        7.37970
C         -0.38600       -0.79920        7.89750
C         -1.28610       -0.67890        9.08820
C          0.15910        0.32800        7.29650
C          1.00540        0.21830        6.21060
C          4.04540        0.07590        5.68580
S          3.87920       -0.24050        7.37300
C          3.46720        0.02000        2.03540
C          4.24950       -0.17600        0.91400
C          5.72170       -0.18970        0.94940
C          6.37690       -1.22980        1.59850
C          7.75490       -1.24910        1.69160
C          8.49090       -0.22230        1.12790
C          7.84310        0.80400        0.46610
C          6.45950        0.84140        0.36180
C          5.78920        1.99510       -0.32930
C          5.18620        2.97680        0.67670
C          3.45900       -0.40280       -0.22740
S          3.84430       -0.86140       -1.87130
C          2.14770       -0.97590       -2.21320
C          1.28740       -1.27550       -3.28200
C          1.54910       -1.52080       -4.64800
C          0.44470       -1.64380       -5.55620
N          0.83650       -1.80460       -6.81030
S          2.45560       -1.80910       -6.84530
N          2.71920       -1.60180       -5.26160
C         -0.86980       -1.62710       -5.04090
C         -2.11400       -1.80010       -5.66680
S         -2.77400       -2.00370       -7.25370
C         -4.37930       -2.05580       -6.55880
C         -5.66270       -2.18630       -7.11500
C         -5.94090       -2.43430       -8.53720
C         -5.64040       -1.51070       -9.54010
C         -5.05040       -0.16050       -9.24320
C         -3.70980        0.05780       -9.94470
C         -5.96150       -1.83630      -10.85260
C         -6.54960       -3.04410      -11.17740
C         -6.83810       -3.95840      -10.17870
C         -6.53810       -3.64890       -8.86740
C         -6.63650       -2.20770       -6.12610
S         -5.96190       -2.07220       -4.51090
C         -4.37330       -1.95970       -5.16150
C         -3.07950       -1.80220       -4.65640
N         -2.48790       -1.61870       -3.43520
C         -1.12560       -1.48260       -3.64690
C         -0.04270       -1.18940       -2.77920
N          0.01950       -0.81250       -1.44710
C          1.33780       -0.67450       -1.11600
C          2.08640       -0.33860        0.01710
S          1.75300        0.08000        1.65470
C         -0.99430       -0.24810       -0.58530
C         -1.62210        1.00070       -1.19870
C         -3.20640       -1.98710       -2.23420
C         -2.60940       -3.23190       -1.58290
C         -8.05930       -2.28010       -6.27220
C         -8.75490       -1.72910       -7.37440
N         -8.29280       -1.07820       -8.44790
N         -9.35220       -0.78650       -9.13720
C         -9.25810       -0.08130      -10.38330
C         -8.92900        1.38930      -10.14890
N        -10.49960       -1.15740       -8.63430
C        -10.17720       -1.76240       -7.48270
C        -10.99530       -2.35150       -6.48830
C        -10.27930       -2.92600       -5.43800
C         -8.89060       -2.86510       -5.31890
F         -8.34770       -3.44010       -4.22780
F        -10.95380       -3.53760       -4.45350
C        -12.41950       -2.43080       -6.51820
C        -13.31500       -1.64780       -7.17520
C        -14.70490       -2.14360       -7.38620
O        -15.22780       -3.09480       -6.85610
C        -15.27740       -1.25240       -8.41830
C        -16.50160       -1.33050       -9.05500
C        -16.80920       -0.38290      -10.01900
C        -15.88830        0.61120      -10.32290
Br       -16.32390        1.88490      -11.66390
C        -14.65730        0.71170       -9.68590
C        -14.35580       -0.23270       -8.71990
C        -13.18910       -0.37830       -7.85060
C        -12.28580        0.61070       -7.56810
C        -12.20330        1.82880       -8.26920
N        -12.04660        2.81470       -8.83710
C        -11.36000        0.55470       -6.50620
N        -10.61220        0.58580       -5.63600
H          5.19810        0.21960        9.75830
H          7.46430        5.97180        8.88090
H          8.78710        6.99260       10.73340
H          8.63020        3.32510       12.93220
H          8.91650        3.55550        7.14190
H         10.62780        3.37740        8.89420
H         11.77910        2.13970       10.55740
H         11.84370        0.38770       10.31650
H         10.67970        1.07480       11.43870
H          9.51190       -0.68500        9.56800
H          7.79980       -0.51250        7.83100
H          5.92510        3.77710        5.42830
H          6.53120        5.03140        3.39010
H          7.99100        5.44740        1.57120
H          8.54480        3.93800        0.84160
H          9.66500        4.91640        1.77990
H          9.88400        2.45640        2.81100
H          9.27870        1.20870        4.84590
H          4.00220       -2.59050        3.28750
H          3.55930       -3.99090        1.31650
H          1.83870       -5.38260        0.08360
H          1.37070       -3.89870       -0.73740
H          0.14760       -4.86160        0.09860
H         -0.62660       -3.33450        1.79710
H         -0.18330       -1.88790        3.72700
H          1.04830       -3.14770        5.91500
H         -0.47000       -2.93680        7.83470
H         -1.77020        0.29440        9.11370
H         -2.04910       -1.45400        9.07800
H         -0.70590       -0.79200       10.00460
H         -0.08640        1.30820        7.67850
H          1.40970        1.10510        5.74410
H          5.79320       -2.02960        2.02940
H          8.25080       -2.06190        2.20090
H          9.56850       -0.22530        1.19750
H          8.42420        1.59510        0.01390
H          5.00370        1.63050       -0.99340
H          6.52540        2.51920       -0.94200
H          4.79170        3.84890        0.16020
H          5.94090        3.29890        1.38950
H          4.37640        2.51060        1.23180
H         -4.92480       -0.03680       -8.16800
H         -5.75410        0.60500       -9.58140
H         -3.82720        0.04010      -11.02500
H         -3.00190       -0.71820       -9.66610
H         -3.29390        1.02190       -9.66180
H         -5.75460       -1.12040      -11.63550
H         -6.78930       -3.27050      -12.20620
H         -7.29940       -4.90450      -10.41960
H         -6.76390       -4.35460       -8.08030
H         -0.49150        0.02050        0.34700
H         -1.74710       -0.99590       -0.33560
H         -2.38720        1.39480       -0.53540
H         -2.07100        0.78330       -2.16490
H         -0.86180        1.76490       -1.34270
H         -3.25060       -1.14980       -1.53670
H         -4.23320       -2.20090       -2.54080
H         -2.65930       -4.07140       -2.27270
H         -3.17350       -3.48560       -0.68920
H         -1.56760       -3.07690       -1.31220
H        -10.21750       -0.19370      -10.89040
H         -8.46450       -0.55710      -10.96580
H         -9.74350        1.89400       -9.63540
H         -8.02880        1.47340       -9.54560
H         -8.76400        1.88320      -11.10190
H        -12.85260       -3.26570       -5.97490
H        -17.19760       -2.11470       -8.80110
H        -17.75570       -0.41240      -10.53620
H        -13.97010        1.49840       -9.95300
