
  xtb     02062209483D
 energy: -410.289145770346 gnorm: 0.000443719895 xtb: 6.4.1 (unknown)
249274  0     0  0            999 V2000
   -0.4187   -2.4224  -12.8276 C   0  0  0  0  0  0  0  0  0  0  0  0
   -1.0929   -1.5186  -13.6279 C   0  0  0  0  0  0  0  0  0  0  0  0
   -1.1844   -0.0760  -13.4177 C   0  0  0  0  0  0  0  0  0  0  0  0
   -0.7696    0.5802  -12.4768 O   0  0  0  0  0  0  0  0  0  0  0  0
   -1.8769    0.4643  -14.6067 C   0  0  0  0  0  0  0  0  0  0  0  0
   -2.2018    1.7730  -14.9022 C   0  0  0  0  0  0  0  0  0  0  0  0
   -2.8548    2.0393  -16.0964 C   0  0  0  0  0  0  0  0  0  0  0  0
   -3.1607    0.9931  -16.9544 C   0  0  0  0  0  0  0  0  0  0  0  0
   -4.0540    1.3820  -18.5874 Br  0  0  0  0  0  0  0  0  0  0  0  0
   -2.8423   -0.3303  -16.6706 C   0  0  0  0  0  0  0  0  0  0  0  0
   -2.1906   -0.5923  -15.4783 C   0  0  0  0  0  0  0  0  0  0  0  0
   -1.7365   -1.8479  -14.8729 C   0  0  0  0  0  0  0  0  0  0  0  0
   -1.9386   -3.0981  -15.4094 C   0  0  0  0  0  0  0  0  0  0  0  0
   -2.5179   -3.3320  -16.6719 C   0  0  0  0  0  0  0  0  0  0  0  0
   -2.9647   -3.5909  -17.6981 N   0  0  0  0  0  0  0  0  0  0  0  0
   -1.6397   -4.3197  -14.7776 C   0  0  0  0  0  0  0  0  0  0  0  0
   -1.4664   -5.3611  -14.3208 N   0  0  0  0  0  0  0  0  0  0  0  0
    0.2113   -2.2492  -11.6037 C   0  0  0  0  0  0  0  0  0  0  0  0
    0.8535   -3.3097  -10.9035 C   0  0  0  0  0  0  0  0  0  0  0  0
    1.1654   -4.5336  -11.4184 N   0  0  0  0  0  0  0  0  0  0  0  0
    1.2655   -5.6324  -10.5376 C   0  0  0  0  0  0  0  0  0  0  0  0
    2.3819   -6.4600  -10.5646 C   0  0  0  0  0  0  0  0  0  0  0  0
    2.4671   -7.5306   -9.6961 C   0  0  0  0  0  0  0  0  0  0  0  0
    1.4505   -7.8015   -8.7892 C   0  0  0  0  0  0  0  0  0  0  0  0
    1.5306   -8.9696   -7.8563 C   0  0  0  0  0  0  0  0  0  0  0  0
    0.3349   -6.9707   -8.7764 C   0  0  0  0  0  0  0  0  0  0  0  0
    0.2364   -5.8981   -9.6384 C   0  0  0  0  0  0  0  0  0  0  0  0
    1.5344   -4.7323  -12.7628 C   0  0  0  0  0  0  0  0  0  0  0  0
    2.2785   -3.7770  -13.4507 C   0  0  0  0  0  0  0  0  0  0  0  0
    2.6193   -3.9886  -14.7716 C   0  0  0  0  0  0  0  0  0  0  0  0
    2.2494   -5.1551  -15.4315 C   0  0  0  0  0  0  0  0  0  0  0  0
    2.5908   -5.3745  -16.8726 C   0  0  0  0  0  0  0  0  0  0  0  0
    1.5386   -6.1174  -14.7239 C   0  0  0  0  0  0  0  0  0  0  0  0
    1.1780   -5.9143  -13.4069 C   0  0  0  0  0  0  0  0  0  0  0  0
    1.1437   -2.9279   -9.5840 C   0  0  0  0  0  0  0  0  0  0  0  0
    1.8898   -3.7325   -8.2413 S   0  0  0  0  0  0  0  0  0  0  0  0
    1.7801   -2.2590   -7.2878 C   0  0  0  0  0  0  0  0  0  0  0  0
    1.2249   -1.1968   -7.9932 C   0  0  0  0  0  0  0  0  0  0  0  0
    1.0846    0.1042   -7.5454 N   0  0  0  0  0  0  0  0  0  0  0  0
    1.9520    0.6652   -6.6024 C   0  0  0  0  0  0  0  0  0  0  0  0
    1.4610    1.5327   -5.6283 C   0  0  0  0  0  0  0  0  0  0  0  0
    2.2848    1.9716   -4.6099 C   0  0  0  0  0  0  0  0  0  0  0  0
    3.6078    1.5565   -4.5234 C   0  0  0  0  0  0  0  0  0  0  0  0
    4.4724    1.9371   -3.3608 C   0  0  0  0  0  0  0  0  0  0  0  0
    4.1109    0.7539   -5.5420 C   0  0  0  0  0  0  0  0  0  0  0  0
    3.3044    0.3283   -6.5765 C   0  0  0  0  0  0  0  0  0  0  0  0
    0.0330    0.8813   -8.0696 C   0  0  0  0  0  0  0  0  0  0  0  0
   -1.2444    0.3446   -8.1987 C   0  0  0  0  0  0  0  0  0  0  0  0
   -2.2551    1.0945   -8.7659 C   0  0  0  0  0  0  0  0  0  0  0  0
   -2.0236    2.3917   -9.2056 C   0  0  0  0  0  0  0  0  0  0  0  0
   -3.1112    3.1750   -9.8729 C   0  0  0  0  0  0  0  0  0  0  0  0
   -0.7534    2.9300   -9.0401 C   0  0  0  0  0  0  0  0  0  0  0  0
    0.2676    2.1889   -8.4805 C   0  0  0  0  0  0  0  0  0  0  0  0
    0.8445   -1.6018   -9.2972 C   0  0  0  0  0  0  0  0  0  0  0  0
    0.1539   -0.7661  -10.6423 S   0  0  0  0  0  0  0  0  0  0  0  0
    2.2425   -2.2739   -5.9361 C   0  0  0  0  0  0  0  0  0  0  0  0
    3.3770   -2.8709   -5.4232 C   0  0  0  0  0  0  0  0  0  0  0  0
    4.3442   -3.6548   -6.1954 C   0  0  0  0  0  0  0  0  0  0  0  0
    4.8513   -3.2106   -7.4124 C   0  0  0  0  0  0  0  0  0  0  0  0
    5.7468   -3.9924   -8.1159 C   0  0  0  0  0  0  0  0  0  0  0  0
    6.1421   -5.2209   -7.6177 C   0  0  0  0  0  0  0  0  0  0  0  0
    5.6580   -5.6752   -6.3979 C   0  0  0  0  0  0  0  0  0  0  0  0
    6.0422   -7.0296   -5.8767 C   0  0  0  0  0  0  0  0  0  0  0  0
    5.0702   -8.0866   -6.4044 C   0  0  0  0  0  0  0  0  0  0  0  0
    4.7643   -4.8826   -5.6948 C   0  0  0  0  0  0  0  0  0  0  0  0
    3.5076   -2.6143   -4.0429 C   0  0  0  0  0  0  0  0  0  0  0  0
    4.7770   -2.9638   -2.8940 S   0  0  0  0  0  0  0  0  0  0  0  0
    3.9095   -2.0611   -1.6966 C   0  0  0  0  0  0  0  0  0  0  0  0
    4.0661   -1.6220   -0.3715 C   0  0  0  0  0  0  0  0  0  0  0  0
    5.1432   -1.7673    0.5287 C   0  0  0  0  0  0  0  0  0  0  0  0
    5.0765   -1.1095    1.8019 C   0  0  0  0  0  0  0  0  0  0  0  0
    6.1667   -1.3004    2.5285 N   0  0  0  0  0  0  0  0  0  0  0  0
    7.1910   -2.2271    1.6813 S   0  0  0  0  0  0  0  0  0  0  0  0
    6.2805   -2.4225    0.3562 N   0  0  0  0  0  0  0  0  0  0  0  0
    3.8951   -0.4224    2.1532 C   0  0  0  0  0  0  0  0  0  0  0  0
    3.5036    0.1667    3.3667 C   0  0  0  0  0  0  0  0  0  0  0  0
    4.1239    0.4342    4.9608 S   0  0  0  0  0  0  0  0  0  0  0  0
    2.5518    1.0076    5.4620 C   0  0  0  0  0  0  0  0  0  0  0  0
    2.0163    1.3976    6.7107 C   0  0  0  0  0  0  0  0  0  0  0  0
    2.7713    1.5829    7.9475 C   0  0  0  0  0  0  0  0  0  0  0  0
    3.9014    0.8181    8.2245 C   0  0  0  0  0  0  0  0  0  0  0  0
    4.5827    0.9944    9.4139 C   0  0  0  0  0  0  0  0  0  0  0  0
    4.1603    1.9387   10.3319 C   0  0  0  0  0  0  0  0  0  0  0  0
    3.0579    2.7392   10.0580 C   0  0  0  0  0  0  0  0  0  0  0  0
    2.6345    3.8161   11.0163 C   0  0  0  0  0  0  0  0  0  0  0  0
    3.4003    5.1104   10.7370 C   0  0  0  0  0  0  0  0  0  0  0  0
    2.3791    2.5565    8.8645 C   0  0  0  0  0  0  0  0  0  0  0  0
    0.6597    1.6407    6.6082 C   0  0  0  0  0  0  0  0  0  0  0  0
    0.0636    1.5186    4.9624 S   0  0  0  0  0  0  0  0  0  0  0  0
    1.6221    1.0130    4.4227 C   0  0  0  0  0  0  0  0  0  0  0  0
    2.1700    0.5453    3.2214 C   0  0  0  0  0  0  0  0  0  0  0  0
    1.7327    0.2448    1.9607 N   0  0  0  0  0  0  0  0  0  0  0  0
    2.7790   -0.3423    1.2717 C   0  0  0  0  0  0  0  0  0  0  0  0
    2.9082   -0.8590   -0.0467 C   0  0  0  0  0  0  0  0  0  0  0  0
    2.0982   -0.8082   -1.1688 N   0  0  0  0  0  0  0  0  0  0  0  0
    2.7010   -1.5380   -2.1575 C   0  0  0  0  0  0  0  0  0  0  0  0
    2.4750   -1.8468   -3.5050 C   0  0  0  0  0  0  0  0  0  0  0  0
    1.2779   -1.4889   -4.6936 S   0  0  0  0  0  0  0  0  0  0  0  0
    1.0117    0.0792   -1.5158 C   0  0  0  0  0  0  0  0  0  0  0  0
   -0.3120   -0.6633   -1.6961 C   0  0  0  0  0  0  0  0  0  0  0  0
    0.3227    0.3340    1.6668 C   0  0  0  0  0  0  0  0  0  0  0  0
   -0.1263    1.7759    1.4316 C   0  0  0  0  0  0  0  0  0  0  0  0
   -0.2882    1.7497    7.6768 C   0  0  0  0  0  0  0  0  0  0  0  0
   -0.4192    0.8695    8.7435 C   0  0  0  0  0  0  0  0  0  0  0  0
    0.3247   -0.2811    8.9311 N   0  0  0  0  0  0  0  0  0  0  0  0
    0.6473   -0.6826   10.2365 C   0  0  0  0  0  0  0  0  0  0  0  0
    0.6750   -2.0341   10.5717 C   0  0  0  0  0  0  0  0  0  0  0  0
    0.9893   -2.4226   11.8575 C   0  0  0  0  0  0  0  0  0  0  0  0
    1.2742   -1.4851   12.8443 C   0  0  0  0  0  0  0  0  0  0  0  0
    1.5856   -1.9208   14.2432 C   0  0  0  0  0  0  0  0  0  0  0  0
    1.2393   -0.1401   12.5022 C   0  0  0  0  0  0  0  0  0  0  0  0
    0.9338    0.2624   11.2171 C   0  0  0  0  0  0  0  0  0  0  0  0
    0.7516   -1.0378    7.8295 C   0  0  0  0  0  0  0  0  0  0  0  0
   -0.0622   -1.1865    6.7095 C   0  0  0  0  0  0  0  0  0  0  0  0
    0.4075   -1.8437    5.5881 C   0  0  0  0  0  0  0  0  0  0  0  0
    1.6861   -2.3825    5.5533 C   0  0  0  0  0  0  0  0  0  0  0  0
    2.2197   -3.0545    4.3254 C   0  0  0  0  0  0  0  0  0  0  0  0
    2.4655   -2.2920    6.7018 C   0  0  0  0  0  0  0  0  0  0  0  0
    2.0103   -1.6353    7.8262 C   0  0  0  0  0  0  0  0  0  0  0  0
   -1.4782    1.2722    9.5910 C   0  0  0  0  0  0  0  0  0  0  0  0
   -2.1863    0.5879   11.0050 S   0  0  0  0  0  0  0  0  0  0  0  0
   -3.4037    1.8766   11.0492 C   0  0  0  0  0  0  0  0  0  0  0  0
   -3.2936    2.7424    9.9355 C   0  0  0  0  0  0  0  0  0  0  0  0
   -4.1849    3.6992    9.5503 N   0  0  0  0  0  0  0  0  0  0  0  0
   -5.5453    3.6578    9.8836 C   0  0  0  0  0  0  0  0  0  0  0  0
   -6.2195    4.8387   10.1869 C   0  0  0  0  0  0  0  0  0  0  0  0
   -7.5519    4.8053   10.5546 C   0  0  0  0  0  0  0  0  0  0  0  0
   -8.2475    3.6061   10.6256 C   0  0  0  0  0  0  0  0  0  0  0  0
   -9.6762    3.5562   11.0661 C   0  0  0  0  0  0  0  0  0  0  0  0
   -7.5781    2.4353   10.2736 C   0  0  0  0  0  0  0  0  0  0  0  0
   -6.2495    2.4540    9.9070 C   0  0  0  0  0  0  0  0  0  0  0  0
   -3.7374    4.7625    8.7344 C   0  0  0  0  0  0  0  0  0  0  0  0
   -2.5885    5.4708    9.0732 C   0  0  0  0  0  0  0  0  0  0  0  0
   -2.1567    6.5034    8.2663 C   0  0  0  0  0  0  0  0  0  0  0  0
   -2.8536    6.8545    7.1145 C   0  0  0  0  0  0  0  0  0  0  0  0
   -2.3561    7.9604    6.2361 C   0  0  0  0  0  0  0  0  0  0  0  0
   -4.0081    6.1501    6.7970 C   0  0  0  0  0  0  0  0  0  0  0  0
   -4.4522    5.1132    7.5951 C   0  0  0  0  0  0  0  0  0  0  0  0
   -2.1655    2.3984    9.1575 C   0  0  0  0  0  0  0  0  0  0  0  0
   -1.5157    3.0022    7.6687 S   0  0  0  0  0  0  0  0  0  0  0  0
   -4.3034    1.8533   12.1108 C   0  0  0  0  0  0  0  0  0  0  0  0
   -5.0460    2.9272   12.5702 C   0  0  0  0  0  0  0  0  0  0  0  0
   -4.6149    4.3250   12.4504 C   0  0  0  0  0  0  0  0  0  0  0  0
   -3.6012    4.7493   11.9256 O   0  0  0  0  0  0  0  0  0  0  0  0
   -5.6097    5.1117   13.2152 C   0  0  0  0  0  0  0  0  0  0  0  0
   -5.6668    6.4743   13.4226 C   0  0  0  0  0  0  0  0  0  0  0  0
   -6.7245    6.9889   14.1588 C   0  0  0  0  0  0  0  0  0  0  0  0
   -7.6820    6.1281   14.6725 C   0  0  0  0  0  0  0  0  0  0  0  0
   -9.1269    6.8570   15.6729 Br  0  0  0  0  0  0  0  0  0  0  0  0
   -7.6326    4.7512   14.4837 C   0  0  0  0  0  0  0  0  0  0  0  0
   -6.5814    4.2449   13.7423 C   0  0  0  0  0  0  0  0  0  0  0  0
   -6.2545    2.8768   13.3362 C   0  0  0  0  0  0  0  0  0  0  0  0
   -7.0572    1.7744   13.5078 C   0  0  0  0  0  0  0  0  0  0  0  0
   -6.7707    0.5055   12.9676 C   0  0  0  0  0  0  0  0  0  0  0  0
   -6.6168   -0.5440   12.5264 N   0  0  0  0  0  0  0  0  0  0  0  0
   -8.3004    1.7979   14.1644 C   0  0  0  0  0  0  0  0  0  0  0  0
   -9.3301    1.7658   14.6734 N   0  0  0  0  0  0  0  0  0  0  0  0
   -0.3795   -3.4362  -13.2044 H   0  0  0  0  0  0  0  0  0  0  0  0
   -1.9487    2.5647  -14.2142 H   0  0  0  0  0  0  0  0  0  0  0  0
   -3.1257    3.0491  -16.3631 H   0  0  0  0  0  0  0  0  0  0  0  0
   -3.1013   -1.1092  -17.3691 H   0  0  0  0  0  0  0  0  0  0  0  0
    3.1802   -6.2553  -11.2624 H   0  0  0  0  0  0  0  0  0  0  0  0
    3.3415   -8.1642   -9.7228 H   0  0  0  0  0  0  0  0  0  0  0  0
    1.3032   -8.6610   -6.8376 H   0  0  0  0  0  0  0  0  0  0  0  0
    0.8023   -9.7281   -8.1428 H   0  0  0  0  0  0  0  0  0  0  0  0
    2.5200   -9.4183   -7.8751 H   0  0  0  0  0  0  0  0  0  0  0  0
   -0.4696   -7.1720   -8.0844 H   0  0  0  0  0  0  0  0  0  0  0  0
   -0.6378   -5.2638   -9.6283 H   0  0  0  0  0  0  0  0  0  0  0  0
    2.5800   -2.8687  -12.9499 H   0  0  0  0  0  0  0  0  0  0  0  0
    3.1898   -3.2355  -15.2960 H   0  0  0  0  0  0  0  0  0  0  0  0
    3.0315   -6.3592  -17.0169 H   0  0  0  0  0  0  0  0  0  0  0  0
    1.6874   -5.3242  -17.4806 H   0  0  0  0  0  0  0  0  0  0  0  0
    3.2879   -4.6207  -17.2296 H   0  0  0  0  0  0  0  0  0  0  0  0
    1.2443   -7.0314  -15.2168 H   0  0  0  0  0  0  0  0  0  0  0  0
    0.6077   -6.6604  -12.8766 H   0  0  0  0  0  0  0  0  0  0  0  0
    0.4230    1.8292   -5.6565 H   0  0  0  0  0  0  0  0  0  0  0  0
    1.8825    2.6336   -3.8553 H   0  0  0  0  0  0  0  0  0  0  0  0
    4.0067    2.7184   -2.7649 H   0  0  0  0  0  0  0  0  0  0  0  0
    4.6397    1.0695   -2.7200 H   0  0  0  0  0  0  0  0  0  0  0  0
    5.4450    2.2873   -3.7009 H   0  0  0  0  0  0  0  0  0  0  0  0
    5.1478    0.4512   -5.5184 H   0  0  0  0  0  0  0  0  0  0  0  0
    3.7136   -0.2832   -7.3657 H   0  0  0  0  0  0  0  0  0  0  0  0
   -1.4357   -0.6630   -7.8583 H   0  0  0  0  0  0  0  0  0  0  0  0
   -3.2401    0.6634   -8.8727 H   0  0  0  0  0  0  0  0  0  0  0  0
   -4.0805    2.9517   -9.4321 H   0  0  0  0  0  0  0  0  0  0  0  0
   -2.9257    4.2439   -9.8001 H   0  0  0  0  0  0  0  0  0  0  0  0
   -3.1532    2.9078  -10.9293 H   0  0  0  0  0  0  0  0  0  0  0  0
   -0.5550    3.9393   -9.3704 H   0  0  0  0  0  0  0  0  0  0  0  0
    1.2558    2.6111   -8.3709 H   0  0  0  0  0  0  0  0  0  0  0  0
    4.5532   -2.2495   -7.8024 H   0  0  0  0  0  0  0  0  0  0  0  0
    6.1387   -3.6412   -9.0594 H   0  0  0  0  0  0  0  0  0  0  0  0
    6.8384   -5.8298   -8.1763 H   0  0  0  0  0  0  0  0  0  0  0  0
    7.0559   -7.2781   -6.1971 H   0  0  0  0  0  0  0  0  0  0  0  0
    6.0185   -7.0278   -4.7855 H   0  0  0  0  0  0  0  0  0  0  0  0
    4.0556   -7.8548   -6.0888 H   0  0  0  0  0  0  0  0  0  0  0  0
    5.0915   -8.1058   -7.4919 H   0  0  0  0  0  0  0  0  0  0  0  0
    5.3374   -9.0726   -6.0312 H   0  0  0  0  0  0  0  0  0  0  0  0
    4.3748   -5.2286   -4.7482 H   0  0  0  0  0  0  0  0  0  0  0  0
    4.2349    0.0762    7.5167 H   0  0  0  0  0  0  0  0  0  0  0  0
    5.4499    0.3869    9.6270 H   0  0  0  0  0  0  0  0  0  0  0  0
    4.6928    2.0633   11.2636 H   0  0  0  0  0  0  0  0  0  0  0  0
    1.5632    4.0053   10.9161 H   0  0  0  0  0  0  0  0  0  0  0  0
    2.8307    3.4954   12.0416 H   0  0  0  0  0  0  0  0  0  0  0  0
    3.0927    5.8914   11.4285 H   0  0  0  0  0  0  0  0  0  0  0  0
    4.4701    4.9486   10.8481 H   0  0  0  0  0  0  0  0  0  0  0  0
    3.2100    5.4497    9.7211 H   0  0  0  0  0  0  0  0  0  0  0  0
    1.5352    3.1922    8.6366 H   0  0  0  0  0  0  0  0  0  0  0  0
    1.2700    0.5570   -2.4684 H   0  0  0  0  0  0  0  0  0  0  0  0
    0.9362    0.8584   -0.7620 H   0  0  0  0  0  0  0  0  0  0  0  0
   -0.2625   -1.3096   -2.5678 H   0  0  0  0  0  0  0  0  0  0  0  0
   -1.1148    0.0531   -1.8457 H   0  0  0  0  0  0  0  0  0  0  0  0
   -0.5497   -1.2833   -0.8343 H   0  0  0  0  0  0  0  0  0  0  0  0
   -0.2193   -0.0567    2.5360 H   0  0  0  0  0  0  0  0  0  0  0  0
    0.0934   -0.3026    0.8173 H   0  0  0  0  0  0  0  0  0  0  0  0
    0.4747    2.2635    0.6670 H   0  0  0  0  0  0  0  0  0  0  0  0
   -1.1676    1.7904    1.1224 H   0  0  0  0  0  0  0  0  0  0  0  0
   -0.0322    2.3507    2.3489 H   0  0  0  0  0  0  0  0  0  0  0  0
    0.4452   -2.7743    9.8196 H   0  0  0  0  0  0  0  0  0  0  0  0
    1.0051   -3.4746   12.1035 H   0  0  0  0  0  0  0  0  0  0  0  0
    2.1823   -2.8304   14.2418 H   0  0  0  0  0  0  0  0  0  0  0  0
    0.6609   -2.1283   14.7828 H   0  0  0  0  0  0  0  0  0  0  0  0
    2.1246   -1.1451   14.7816 H   0  0  0  0  0  0  0  0  0  0  0  0
    1.4597    0.6078   13.2501 H   0  0  0  0  0  0  0  0  0  0  0  0
    0.9285    1.3117   10.9658 H   0  0  0  0  0  0  0  0  0  0  0  0
   -1.0608   -0.7738    6.7150 H   0  0  0  0  0  0  0  0  0  0  0  0
   -0.2344   -1.9328    4.7226 H   0  0  0  0  0  0  0  0  0  0  0  0
    2.2592   -4.1341    4.4709 H   0  0  0  0  0  0  0  0  0  0  0  0
    1.5914   -2.8485    3.4617 H   0  0  0  0  0  0  0  0  0  0  0  0
    3.2306   -2.7112    4.1113 H   0  0  0  0  0  0  0  0  0  0  0  0
    3.4553   -2.7249    6.7038 H   0  0  0  0  0  0  0  0  0  0  0  0
    2.6339   -1.5567    8.7037 H   0  0  0  0  0  0  0  0  0  0  0  0
   -5.6887    5.7780   10.1457 H   0  0  0  0  0  0  0  0  0  0  0  0
   -8.0528    5.7294   10.8048 H   0  0  0  0  0  0  0  0  0  0  0  0
  -10.2973    3.1062   10.2932 H   0  0  0  0  0  0  0  0  0  0  0  0
   -9.7768    2.9462   11.9635 H   0  0  0  0  0  0  0  0  0  0  0  0
  -10.0533    4.5523   11.2815 H   0  0  0  0  0  0  0  0  0  0  0  0
   -8.1072    1.4938   10.2952 H   0  0  0  0  0  0  0  0  0  0  0  0
   -5.7520    1.5333    9.6414 H   0  0  0  0  0  0  0  0  0  0  0  0
   -2.0672    5.2188    9.9834 H   0  0  0  0  0  0  0  0  0  0  0  0
   -1.2671    7.0533    8.5368 H   0  0  0  0  0  0  0  0  0  0  0  0
   -1.5028    7.6148    5.6520 H   0  0  0  0  0  0  0  0  0  0  0  0
   -3.1295    8.2906    5.5474 H   0  0  0  0  0  0  0  0  0  0  0  0
   -2.0284    8.8092    6.8328 H   0  0  0  0  0  0  0  0  0  0  0  0
   -4.5669    6.4114    5.9102 H   0  0  0  0  0  0  0  0  0  0  0  0
   -5.3491    4.5687    7.3380 H   0  0  0  0  0  0  0  0  0  0  0  0
   -4.3878    0.9082   12.6339 H   0  0  0  0  0  0  0  0  0  0  0  0
   -4.9075    7.1212   13.0111 H   0  0  0  0  0  0  0  0  0  0  0  0
   -6.8082    8.0506   14.3330 H   0  0  0  0  0  0  0  0  0  0  0  0
   -8.3941    4.1183   14.9097 H   0  0  0  0  0  0  0  0  0  0  0  0
  1  2  2  0  0  0  0
  2  3  1  0  0  0  0
  3  4  2  0  0  0  0
  3  5  1  0  0  0  0
  5  6  2  0  0  0  0
  6  7  1  0  0  0  0
  7  8  2  0  0  0  0
  8  9  1  0  0  0  0
  8 10  1  0  0  0  0
 10 11  2  0  0  0  0
 11 12  1  0  0  0  0
 12 13  2  0  0  0  0
 13 14  1  0  0  0  0
 14 15  3  0  0  0  0
 13 16  1  0  0  0  0
 16 17  3  0  0  0  0
  1 18  1  0  0  0  0
 18 19  2  0  0  0  0
 19 20  1  0  0  0  0
 20 21  1  0  0  0  0
 21 22  2  0  0  0  0
 22 23  1  0  0  0  0
 23 24  2  0  0  0  0
 24 25  1  0  0  0  0
 24 26  1  0  0  0  0
 26 27  2  0  0  0  0
 20 28  1  0  0  0  0
 28 29  2  0  0  0  0
 29 30  1  0  0  0  0
 30 31  2  0  0  0  0
 31 32  1  0  0  0  0
 31 33  1  0  0  0  0
 33 34  2  0  0  0  0
 19 35  1  0  0  0  0
 35 36  1  0  0  0  0
 36 37  1  0  0  0  0
 37 38  2  0  0  0  0
 38 39  1  0  0  0  0
 39 40  1  0  0  0  0
 40 41  2  0  0  0  0
 41 42  1  0  0  0  0
 42 43  2  0  0  0  0
 43 44  1  0  0  0  0
 43 45  1  0  0  0  0
 45 46  2  0  0  0  0
 39 47  1  0  0  0  0
 47 48  2  0  0  0  0
 48 49  1  0  0  0  0
 49 50  2  0  0  0  0
 50 51  1  0  0  0  0
 50 52  1  0  0  0  0
 52 53  2  0  0  0  0
 38 54  1  0  0  0  0
 54 55  1  0  0  0  0
 37 56  1  0  0  0  0
 56 57  2  0  0  0  0
 57 58  1  0  0  0  0
 58 59  2  0  0  0  0
 59 60  1  0  0  0  0
 60 61  2  0  0  0  0
 61 62  1  0  0  0  0
 62 63  1  0  0  0  0
 63 64  1  0  0  0  0
 62 65  2  0  0  0  0
 57 66  1  0  0  0  0
 66 67  1  0  0  0  0
 67 68  1  0  0  0  0
 68 69  1  0  0  0  0
 69 70  1  0  0  0  0
 70 71  1  0  0  0  0
 71 72  2  0  0  0  0
 72 73  1  0  0  0  0
 73 74  1  0  0  0  0
 71 75  1  0  0  0  0
 75 76  1  0  0  0  0
 76 77  1  0  0  0  0
 77 78  1  0  0  0  0
 78 79  1  0  0  0  0
 79 80  1  0  0  0  0
 80 81  2  0  0  0  0
 81 82  1  0  0  0  0
 82 83  2  0  0  0  0
 83 84  1  0  0  0  0
 84 85  1  0  0  0  0
 85 86  1  0  0  0  0
 84 87  2  0  0  0  0
 79 88  2  0  0  0  0
 88 89  1  0  0  0  0
 89 90  1  0  0  0  0
 90 91  1  0  0  0  0
 91 92  1  0  0  0  0
 92 93  1  0  0  0  0
 93 94  1  0  0  0  0
 94 95  1  0  0  0  0
 95 96  1  0  0  0  0
 96 97  1  0  0  0  0
 97 98  1  0  0  0  0
 95 99  1  0  0  0  0
 99100  1  0  0  0  0
 92101  1  0  0  0  0
101102  1  0  0  0  0
 88103  1  0  0  0  0
103104  2  0  0  0  0
104105  1  0  0  0  0
105106  1  0  0  0  0
106107  2  0  0  0  0
107108  1  0  0  0  0
108109  2  0  0  0  0
109110  1  0  0  0  0
109111  1  0  0  0  0
111112  2  0  0  0  0
105113  1  0  0  0  0
113114  2  0  0  0  0
114115  1  0  0  0  0
115116  2  0  0  0  0
116117  1  0  0  0  0
116118  1  0  0  0  0
118119  2  0  0  0  0
104120  1  0  0  0  0
120121  1  0  0  0  0
121122  1  0  0  0  0
122123  2  0  0  0  0
123124  1  0  0  0  0
124125  1  0  0  0  0
125126  2  0  0  0  0
126127  1  0  0  0  0
127128  2  0  0  0  0
128129  1  0  0  0  0
128130  1  0  0  0  0
130131  2  0  0  0  0
124132  1  0  0  0  0
132133  2  0  0  0  0
133134  1  0  0  0  0
134135  2  0  0  0  0
135136  1  0  0  0  0
135137  1  0  0  0  0
137138  2  0  0  0  0
123139  1  0  0  0  0
139140  1  0  0  0  0
122141  1  0  0  0  0
141142  2  0  0  0  0
142143  1  0  0  0  0
143144  2  0  0  0  0
143145  1  0  0  0  0
145146  2  0  0  0  0
146147  1  0  0  0  0
147148  2  0  0  0  0
148149  1  0  0  0  0
148150  1  0  0  0  0
150151  2  0  0  0  0
151152  1  0  0  0  0
152153  2  0  0  0  0
153154  1  0  0  0  0
154155  3  0  0  0  0
153156  1  0  0  0  0
156157  3  0  0  0  0
 12  2  1  0  0  0  0
 55 18  1  0  0  0  0
 98 56  1  0  0  0  0
140103  1  0  0  0  0
152142  1  0  0  0  0
 11  5  1  0  0  0  0
 27 21  1  0  0  0  0
 34 28  1  0  0  0  0
 54 35  2  0  0  0  0
 65 58  1  0  0  0  0
 97 66  2  0  0  0  0
112106  1  0  0  0  0
119113  1  0  0  0  0
139120  2  0  0  0  0
151145  1  0  0  0  0
 46 40  1  0  0  0  0
 53 47  1  0  0  0  0
 96 68  2  0  0  0  0
131125  1  0  0  0  0
138132  1  0  0  0  0
 94 69  2  0  0  0  0
 74 70  2  0  0  0  0
 93 75  2  0  0  0  0
 91 76  2  0  0  0  0
 90 78  2  0  0  0  0
 87 80  1  0  0  0  0
  1158  1  0  0  0  0
  6159  1  0  0  0  0
  7160  1  0  0  0  0
 10161  1  0  0  0  0
 22162  1  0  0  0  0
 23163  1  0  0  0  0
 25164  1  0  0  0  0
 25165  1  0  0  0  0
 25166  1  0  0  0  0
 26167  1  0  0  0  0
 27168  1  0  0  0  0
 29169  1  0  0  0  0
 30170  1  0  0  0  0
 32171  1  0  0  0  0
 32172  1  0  0  0  0
 32173  1  0  0  0  0
 33174  1  0  0  0  0
 34175  1  0  0  0  0
 41176  1  0  0  0  0
 42177  1  0  0  0  0
 44178  1  0  0  0  0
 44179  1  0  0  0  0
 44180  1  0  0  0  0
 45181  1  0  0  0  0
 46182  1  0  0  0  0
 48183  1  0  0  0  0
 49184  1  0  0  0  0
 51185  1  0  0  0  0
 51186  1  0  0  0  0
 51187  1  0  0  0  0
 52188  1  0  0  0  0
 53189  1  0  0  0  0
 59190  1  0  0  0  0
 60191  1  0  0  0  0
 61192  1  0  0  0  0
 63193  1  0  0  0  0
 63194  1  0  0  0  0
 64195  1  0  0  0  0
 64196  1  0  0  0  0
 64197  1  0  0  0  0
 65198  1  0  0  0  0
 81199  1  0  0  0  0
 82200  1  0  0  0  0
 83201  1  0  0  0  0
 85202  1  0  0  0  0
 85203  1  0  0  0  0
 86204  1  0  0  0  0
 86205  1  0  0  0  0
 86206  1  0  0  0  0
 87207  1  0  0  0  0
 99208  1  0  0  0  0
 99209  1  0  0  0  0
100210  1  0  0  0  0
100211  1  0  0  0  0
100212  1  0  0  0  0
101213  1  0  0  0  0
101214  1  0  0  0  0
102215  1  0  0  0  0
102216  1  0  0  0  0
102217  1  0  0  0  0
107218  1  0  0  0  0
108219  1  0  0  0  0
110220  1  0  0  0  0
110221  1  0  0  0  0
110222  1  0  0  0  0
111223  1  0  0  0  0
112224  1  0  0  0  0
114225  1  0  0  0  0
115226  1  0  0  0  0
117227  1  0  0  0  0
117228  1  0  0  0  0
117229  1  0  0  0  0
118230  1  0  0  0  0
119231  1  0  0  0  0
126232  1  0  0  0  0
127233  1  0  0  0  0
129234  1  0  0  0  0
129235  1  0  0  0  0
129236  1  0  0  0  0
130237  1  0  0  0  0
131238  1  0  0  0  0
133239  1  0  0  0  0
134240  1  0  0  0  0
136241  1  0  0  0  0
136242  1  0  0  0  0
136243  1  0  0  0  0
137244  1  0  0  0  0
138245  1  0  0  0  0
141246  1  0  0  0  0
146247  1  0  0  0  0
147248  1  0  0  0  0
150249  1  0  0  0  0
M  END
