
  xtb     02072217273D
 energy: -410.262543441474 gnorm: 0.000481960583 xtb: 6.4.1 (unknown)
249274  0     0  0            999 V2000
    4.3077   10.4184    6.9392 C   0  0  0  0  0  0  0  0  0  0  0  0
    3.6606   11.5692    6.5255 C   0  0  0  0  0  0  0  0  0  0  0  0
    3.4009   11.8952    5.1177 C   0  0  0  0  0  0  0  0  0  0  0  0
    3.6655   11.2240    4.1369 O   0  0  0  0  0  0  0  0  0  0  0  0
    2.8597   13.2736    5.1256 C   0  0  0  0  0  0  0  0  0  0  0  0
    2.4560   14.0546    4.0625 C   0  0  0  0  0  0  0  0  0  0  0  0
    1.9479   15.3189    4.3243 C   0  0  0  0  0  0  0  0  0  0  0  0
    1.8702   15.7664    5.6342 C   0  0  0  0  0  0  0  0  0  0  0  0
    1.1624   17.5001    5.9696 Br  0  0  0  0  0  0  0  0  0  0  0  0
    2.2851   14.9974    6.7160 C   0  0  0  0  0  0  0  0  0  0  0  0
    2.7822   13.7351    6.4501 C   0  0  0  0  0  0  0  0  0  0  0  0
    3.2629   12.6773    7.3408 C   0  0  0  0  0  0  0  0  0  0  0  0
    3.1776   12.6805    8.7123 C   0  0  0  0  0  0  0  0  0  0  0  0
    3.5115   11.5754    9.5194 C   0  0  0  0  0  0  0  0  0  0  0  0
    3.7321   10.7007   10.2307 N   0  0  0  0  0  0  0  0  0  0  0  0
    2.6635   13.7489    9.4685 C   0  0  0  0  0  0  0  0  0  0  0  0
    2.2335   14.5840   10.1303 N   0  0  0  0  0  0  0  0  0  0  0  0
    4.3226    9.2035    6.2597 C   0  0  0  0  0  0  0  0  0  0  0  0
    3.4320    8.6550    5.3068 C   0  0  0  0  0  0  0  0  0  0  0  0
    2.2139    9.1471    4.9428 N   0  0  0  0  0  0  0  0  0  0  0  0
    1.4461    9.9817    5.7662 C   0  0  0  0  0  0  0  0  0  0  0  0
    1.3838    9.7814    7.1450 C   0  0  0  0  0  0  0  0  0  0  0  0
    0.6525   10.6399    7.9375 C   0  0  0  0  0  0  0  0  0  0  0  0
   -0.0378   11.7193    7.3889 C   0  0  0  0  0  0  0  0  0  0  0  0
   -0.7808   12.6700    8.2730 C   0  0  0  0  0  0  0  0  0  0  0  0
   -0.0086   11.8836    6.0107 C   0  0  0  0  0  0  0  0  0  0  0  0
    0.7189   11.0286    5.2037 C   0  0  0  0  0  0  0  0  0  0  0  0
    1.6714    8.7709    3.6936 C   0  0  0  0  0  0  0  0  0  0  0  0
    0.3562    8.3292    3.6129 C   0  0  0  0  0  0  0  0  0  0  0  0
   -0.1687    7.9510    2.3917 C   0  0  0  0  0  0  0  0  0  0  0  0
    0.5984    8.0050    1.2353 C   0  0  0  0  0  0  0  0  0  0  0  0
    0.0397    7.5839   -0.0889 C   0  0  0  0  0  0  0  0  0  0  0  0
    1.9081    8.4661    1.3275 C   0  0  0  0  0  0  0  0  0  0  0  0
    2.4454    8.8483    2.5393 C   0  0  0  0  0  0  0  0  0  0  0  0
    3.9189    7.4137    4.8409 C   0  0  0  0  0  0  0  0  0  0  0  0
    3.3209    6.2275    3.7300 S   0  0  0  0  0  0  0  0  0  0  0  0
    4.6825    5.1751    4.0780 C   0  0  0  0  0  0  0  0  0  0  0  0
    5.5309    5.7016    5.0333 C   0  0  0  0  0  0  0  0  0  0  0  0
    6.6082    5.0157    5.6208 N   0  0  0  0  0  0  0  0  0  0  0  0
    7.8659    5.6185    5.6631 C   0  0  0  0  0  0  0  0  0  0  0  0
    8.8934    5.0440    6.4114 C   0  0  0  0  0  0  0  0  0  0  0  0
   10.1586    5.5925    6.4024 C   0  0  0  0  0  0  0  0  0  0  0  0
   10.4535    6.7184    5.6440 C   0  0  0  0  0  0  0  0  0  0  0  0
   11.8275    7.3172    5.6538 C   0  0  0  0  0  0  0  0  0  0  0  0
    9.4334    7.2741    4.8861 C   0  0  0  0  0  0  0  0  0  0  0  0
    8.1616    6.7369    4.8882 C   0  0  0  0  0  0  0  0  0  0  0  0
    6.1922    4.1890    6.7073 C   0  0  0  0  0  0  0  0  0  0  0  0
    5.6088    2.9541    6.4672 C   0  0  0  0  0  0  0  0  0  0  0  0
    5.1767    2.1732    7.5250 C   0  0  0  0  0  0  0  0  0  0  0  0
    5.3149    2.6032    8.8370 C   0  0  0  0  0  0  0  0  0  0  0  0
    4.8688    1.7531    9.9867 C   0  0  0  0  0  0  0  0  0  0  0  0
    5.8918    3.8483    9.0670 C   0  0  0  0  0  0  0  0  0  0  0  0
    6.3195    4.6375    8.0192 C   0  0  0  0  0  0  0  0  0  0  0  0
    5.0869    6.9771    5.4526 C   0  0  0  0  0  0  0  0  0  0  0  0
    5.6455    8.0883    6.6436 S   0  0  0  0  0  0  0  0  0  0  0  0
    4.7632    3.9420    3.3623 C   0  0  0  0  0  0  0  0  0  0  0  0
    5.8697    3.2791    2.8775 C   0  0  0  0  0  0  0  0  0  0  0  0
    7.2632    3.7519    2.9302 C   0  0  0  0  0  0  0  0  0  0  0  0
    8.1674    3.0825    3.7469 C   0  0  0  0  0  0  0  0  0  0  0  0
    9.4947    3.4602    3.7822 C   0  0  0  0  0  0  0  0  0  0  0  0
    9.9300    4.5065    2.9879 C   0  0  0  0  0  0  0  0  0  0  0  0
    9.0382    5.1536    2.1551 C   0  0  0  0  0  0  0  0  0  0  0  0
    7.6983    4.7893    2.1042 C   0  0  0  0  0  0  0  0  0  0  0  0
    6.7873    5.4745    1.1198 C   0  0  0  0  0  0  0  0  0  0  0  0
    6.4797    6.9217    1.5028 C   0  0  0  0  0  0  0  0  0  0  0  0
    5.5028    2.0897    2.2181 C   0  0  0  0  0  0  0  0  0  0  0  0
    6.4473    0.8675    1.4055 S   0  0  0  0  0  0  0  0  0  0  0  0
    4.9767    0.0564    0.9829 C   0  0  0  0  0  0  0  0  0  0  0  0
    4.5594   -1.1095    0.3202 C   0  0  0  0  0  0  0  0  0  0  0  0
    5.2916   -2.1928   -0.2118 C   0  0  0  0  0  0  0  0  0  0  0  0
    4.5775   -3.3269   -0.7257 C   0  0  0  0  0  0  0  0  0  0  0  0
    5.3872   -4.2912   -1.1346 N   0  0  0  0  0  0  0  0  0  0  0  0
    6.9152   -3.8124   -0.8988 S   0  0  0  0  0  0  0  0  0  0  0  0
    6.6044   -2.3558   -0.2647 N   0  0  0  0  0  0  0  0  0  0  0  0
    3.1688   -3.2696   -0.8022 C   0  0  0  0  0  0  0  0  0  0  0  0
    2.2405   -4.1373   -1.4026 C   0  0  0  0  0  0  0  0  0  0  0  0
    2.2082   -5.6576   -2.2325 S   0  0  0  0  0  0  0  0  0  0  0  0
    0.4975   -5.4368   -2.5092 C   0  0  0  0  0  0  0  0  0  0  0  0
   -0.4495   -6.2081   -3.2133 C   0  0  0  0  0  0  0  0  0  0  0  0
   -0.0386   -7.4435   -3.8999 C   0  0  0  0  0  0  0  0  0  0  0  0
    0.0326   -7.5032   -5.2958 C   0  0  0  0  0  0  0  0  0  0  0  0
   -0.4055   -6.3093   -6.1057 C   0  0  0  0  0  0  0  0  0  0  0  0
   -0.2192   -6.4372   -7.6115 C   0  0  0  0  0  0  0  0  0  0  0  0
    0.5510   -8.6520   -5.8743 C   0  0  0  0  0  0  0  0  0  0  0  0
    0.9864   -9.7125   -5.0999 C   0  0  0  0  0  0  0  0  0  0  0  0
    0.9144   -9.6435   -3.7212 C   0  0  0  0  0  0  0  0  0  0  0  0
    0.4103   -8.5046   -3.1242 C   0  0  0  0  0  0  0  0  0  0  0  0
   -1.6923   -5.6103   -3.1897 C   0  0  0  0  0  0  0  0  0  0  0  0
   -1.6857   -4.0751   -2.3193 S   0  0  0  0  0  0  0  0  0  0  0  0
   -0.0030   -4.2483   -1.9748 C   0  0  0  0  0  0  0  0  0  0  0  0
    0.9963   -3.5078   -1.3331 C   0  0  0  0  0  0  0  0  0  0  0  0
    1.1036   -2.3079   -0.6774 N   0  0  0  0  0  0  0  0  0  0  0  0
    2.4396   -2.1392   -0.3398 C   0  0  0  0  0  0  0  0  0  0  0  0
    3.1367   -1.1101    0.3448 C   0  0  0  0  0  0  0  0  0  0  0  0
    2.7121   -0.0034    1.0589 N   0  0  0  0  0  0  0  0  0  0  0  0
    3.8239    0.7026    1.4368 C   0  0  0  0  0  0  0  0  0  0  0  0
    4.1254    1.8636    2.1603 C   0  0  0  0  0  0  0  0  0  0  0  0
    3.2564    3.1206    2.9691 S   0  0  0  0  0  0  0  0  0  0  0  0
    1.4456    0.2506    1.7069 C   0  0  0  0  0  0  0  0  0  0  0  0
    0.7264    1.4656    1.1222 C   0  0  0  0  0  0  0  0  0  0  0  0
    0.0908   -1.3049   -0.9256 C   0  0  0  0  0  0  0  0  0  0  0  0
    0.4676   -0.4307   -2.1201 C   0  0  0  0  0  0  0  0  0  0  0  0
   -2.9483   -6.0140   -3.7341 C   0  0  0  0  0  0  0  0  0  0  0  0
   -3.4655   -7.2687   -3.9968 C   0  0  0  0  0  0  0  0  0  0  0  0
   -2.8307   -8.4968   -3.7271 N   0  0  0  0  0  0  0  0  0  0  0  0
   -3.1419   -9.0079   -2.4394 C   0  0  0  0  0  0  0  0  0  0  0  0
   -3.9488  -10.1325   -2.2868 C   0  0  0  0  0  0  0  0  0  0  0  0
   -4.2538  -10.6021   -1.0258 C   0  0  0  0  0  0  0  0  0  0  0  0
   -3.7827   -9.9592    0.1144 C   0  0  0  0  0  0  0  0  0  0  0  0
   -4.1128  -10.4928    1.4748 C   0  0  0  0  0  0  0  0  0  0  0  0
   -3.0041   -8.8221   -0.0470 C   0  0  0  0  0  0  0  0  0  0  0  0
   -2.6868   -8.3463   -1.3064 C   0  0  0  0  0  0  0  0  0  0  0  0
   -2.5605   -9.3622   -4.7879 C   0  0  0  0  0  0  0  0  0  0  0  0
   -2.7385   -8.9664   -6.1119 C   0  0  0  0  0  0  0  0  0  0  0  0
   -2.4088   -9.8148   -7.1503 C   0  0  0  0  0  0  0  0  0  0  0  0
   -1.8875  -11.0780   -6.9125 C   0  0  0  0  0  0  0  0  0  0  0  0
   -1.5102  -11.9855   -8.0440 C   0  0  0  0  0  0  0  0  0  0  0  0
   -1.6935  -11.4610   -5.5914 C   0  0  0  0  0  0  0  0  0  0  0  0
   -2.0158  -10.6226   -4.5450 C   0  0  0  0  0  0  0  0  0  0  0  0
   -4.7899   -7.1790   -4.4829 C   0  0  0  0  0  0  0  0  0  0  0  0
   -5.9336   -8.3523   -5.0125 S   0  0  0  0  0  0  0  0  0  0  0  0
   -7.1299   -7.0817   -5.3256 C   0  0  0  0  0  0  0  0  0  0  0  0
   -6.5974   -5.7897   -5.1024 C   0  0  0  0  0  0  0  0  0  0  0  0
   -7.1690   -4.5948   -5.4266 N   0  0  0  0  0  0  0  0  0  0  0  0
   -6.7447   -3.4343   -4.7405 C   0  0  0  0  0  0  0  0  0  0  0  0
   -6.6789   -3.4271   -3.3501 C   0  0  0  0  0  0  0  0  0  0  0  0
   -6.2357   -2.2991   -2.6908 C   0  0  0  0  0  0  0  0  0  0  0  0
   -5.8542   -1.1604   -3.3932 C   0  0  0  0  0  0  0  0  0  0  0  0
   -5.3467    0.0422   -2.6588 C   0  0  0  0  0  0  0  0  0  0  0  0
   -5.9503   -1.1717   -4.7787 C   0  0  0  0  0  0  0  0  0  0  0  0
   -6.3912   -2.2946   -5.4529 C   0  0  0  0  0  0  0  0  0  0  0  0
   -8.1270   -4.4452   -6.4378 C   0  0  0  0  0  0  0  0  0  0  0  0
   -8.0446   -5.1651   -7.6295 C   0  0  0  0  0  0  0  0  0  0  0  0
   -9.0227   -5.0274   -8.5911 C   0  0  0  0  0  0  0  0  0  0  0  0
  -10.1089   -4.1751   -8.4008 C   0  0  0  0  0  0  0  0  0  0  0  0
  -11.1842   -4.0779   -9.4360 C   0  0  0  0  0  0  0  0  0  0  0  0
  -10.1579   -3.4267   -7.2326 C   0  0  0  0  0  0  0  0  0  0  0  0
   -9.1822   -3.5525   -6.2613 C   0  0  0  0  0  0  0  0  0  0  0  0
   -5.2858   -5.8862   -4.5876 C   0  0  0  0  0  0  0  0  0  0  0  0
   -4.0966   -4.7321   -4.0893 S   0  0  0  0  0  0  0  0  0  0  0  0
   -8.3848   -7.4944   -5.7653 C   0  0  0  0  0  0  0  0  0  0  0  0
   -9.5562   -6.7639   -5.6713 C   0  0  0  0  0  0  0  0  0  0  0  0
   -9.8109   -5.7666   -4.6242 C   0  0  0  0  0  0  0  0  0  0  0  0
   -9.0572   -5.4092   -3.7372 O   0  0  0  0  0  0  0  0  0  0  0  0
  -11.2285   -5.3722   -4.7920 C   0  0  0  0  0  0  0  0  0  0  0  0
  -11.9716   -4.4683   -4.0614 C   0  0  0  0  0  0  0  0  0  0  0  0
  -13.2898   -4.2419   -4.4308 C   0  0  0  0  0  0  0  0  0  0  0  0
  -13.8261   -4.9316   -5.5073 C   0  0  0  0  0  0  0  0  0  0  0  0
  -15.6334   -4.5991   -5.9999 Br  0  0  0  0  0  0  0  0  0  0  0  0
  -13.0952   -5.8555   -6.2461 C   0  0  0  0  0  0  0  0  0  0  0  0
  -11.7799   -6.0705   -5.8791 C   0  0  0  0  0  0  0  0  0  0  0  0
  -10.7446   -6.9319   -6.4527 C   0  0  0  0  0  0  0  0  0  0  0  0
  -10.8429   -7.6305   -7.6319 C   0  0  0  0  0  0  0  0  0  0  0  0
   -9.7673   -8.3218   -8.2232 C   0  0  0  0  0  0  0  0  0  0  0  0
   -8.9213   -8.8677   -8.7762 N   0  0  0  0  0  0  0  0  0  0  0  0
  -11.9963   -7.6640   -8.4358 C   0  0  0  0  0  0  0  0  0  0  0  0
  -12.9042   -7.7093   -9.1385 N   0  0  0  0  0  0  0  0  0  0  0  0
    4.8937   10.4563    7.8497 H   0  0  0  0  0  0  0  0  0  0  0  0
    2.5282   13.6811    3.0527 H   0  0  0  0  0  0  0  0  0  0  0  0
    1.6123   15.9542    3.5192 H   0  0  0  0  0  0  0  0  0  0  0  0
    2.2162   15.3898    7.7177 H   0  0  0  0  0  0  0  0  0  0  0  0
    1.9126    8.9539    7.5939 H   0  0  0  0  0  0  0  0  0  0  0  0
    0.6210   10.4763    9.0049 H   0  0  0  0  0  0  0  0  0  0  0  0
   -1.3444   13.3902    7.6858 H   0  0  0  0  0  0  0  0  0  0  0  0
   -1.4677   12.1304    8.9229 H   0  0  0  0  0  0  0  0  0  0  0  0
   -0.0859   13.2151    8.9121 H   0  0  0  0  0  0  0  0  0  0  0  0
   -0.5505   12.7015    5.5583 H   0  0  0  0  0  0  0  0  0  0  0  0
    0.7400   11.1743    4.1340 H   0  0  0  0  0  0  0  0  0  0  0  0
   -0.2466    8.2786    4.5080 H   0  0  0  0  0  0  0  0  0  0  0  0
   -1.1902    7.6030    2.3408 H   0  0  0  0  0  0  0  0  0  0  0  0
    0.6098    6.7462   -0.4887 H   0  0  0  0  0  0  0  0  0  0  0  0
    0.1044    8.4010   -0.8060 H   0  0  0  0  0  0  0  0  0  0  0  0
   -1.0007    7.2835    0.0035 H   0  0  0  0  0  0  0  0  0  0  0  0
    2.5114    8.5315    0.4340 H   0  0  0  0  0  0  0  0  0  0  0  0
    3.4504    9.2346    2.6057 H   0  0  0  0  0  0  0  0  0  0  0  0
    8.6989    4.1566    6.9944 H   0  0  0  0  0  0  0  0  0  0  0  0
   10.9367    5.1297    6.9929 H   0  0  0  0  0  0  0  0  0  0  0  0
   11.9191    8.0360    6.4692 H   0  0  0  0  0  0  0  0  0  0  0  0
   12.0292    7.8398    4.7214 H   0  0  0  0  0  0  0  0  0  0  0  0
   12.5836    6.5487    5.7987 H   0  0  0  0  0  0  0  0  0  0  0  0
    9.6340    8.1443    4.2772 H   0  0  0  0  0  0  0  0  0  0  0  0
    7.4010    7.1859    4.2701 H   0  0  0  0  0  0  0  0  0  0  0  0
    5.4955    2.6031    5.4542 H   0  0  0  0  0  0  0  0  0  0  0  0
    4.7281    1.2109    7.3226 H   0  0  0  0  0  0  0  0  0  0  0  0
    4.3021    2.3443   10.7036 H   0  0  0  0  0  0  0  0  0  0  0  0
    5.7347    1.3424   10.5061 H   0  0  0  0  0  0  0  0  0  0  0  0
    4.2512    0.9263    9.6451 H   0  0  0  0  0  0  0  0  0  0  0  0
    5.9976    4.2066   10.0807 H   0  0  0  0  0  0  0  0  0  0  0  0
    6.7576    5.6070    8.2080 H   0  0  0  0  0  0  0  0  0  0  0  0
    7.8202    2.2648    4.3612 H   0  0  0  0  0  0  0  0  0  0  0  0
   10.1881    2.9356    4.4212 H   0  0  0  0  0  0  0  0  0  0  0  0
   10.9660    4.8089    3.0087 H   0  0  0  0  0  0  0  0  0  0  0  0
    9.3879    5.9502    1.5139 H   0  0  0  0  0  0  0  0  0  0  0  0
    5.8506    4.9226    1.0245 H   0  0  0  0  0  0  0  0  0  0  0  0
    7.2765    5.4699    0.1418 H   0  0  0  0  0  0  0  0  0  0  0  0
    5.8777    7.3948    0.7299 H   0  0  0  0  0  0  0  0  0  0  0  0
    7.3987    7.4902    1.6230 H   0  0  0  0  0  0  0  0  0  0  0  0
    5.9249    6.9608    2.4364 H   0  0  0  0  0  0  0  0  0  0  0  0
    0.1494   -5.4341   -5.7504 H   0  0  0  0  0  0  0  0  0  0  0  0
   -1.4621   -6.1176   -5.8992 H   0  0  0  0  0  0  0  0  0  0  0  0
   -0.5586   -5.5256   -8.0995 H   0  0  0  0  0  0  0  0  0  0  0  0
    0.8282   -6.5866   -7.8627 H   0  0  0  0  0  0  0  0  0  0  0  0
   -0.8000   -7.2693   -8.0015 H   0  0  0  0  0  0  0  0  0  0  0  0
    0.6251   -8.7285   -6.9466 H   0  0  0  0  0  0  0  0  0  0  0  0
    1.3878  -10.5932   -5.5784 H   0  0  0  0  0  0  0  0  0  0  0  0
    1.2582  -10.4657   -3.1121 H   0  0  0  0  0  0  0  0  0  0  0  0
    0.3582   -8.4329   -2.0476 H   0  0  0  0  0  0  0  0  0  0  0  0
    1.6492    0.4468    2.7661 H   0  0  0  0  0  0  0  0  0  0  0  0
    0.8381   -0.6539    1.6547 H   0  0  0  0  0  0  0  0  0  0  0  0
    0.6138    1.3834    0.0451 H   0  0  0  0  0  0  0  0  0  0  0  0
    1.2917    2.3687    1.3353 H   0  0  0  0  0  0  0  0  0  0  0  0
   -0.2562    1.5644    1.5759 H   0  0  0  0  0  0  0  0  0  0  0  0
   -0.0811   -0.6915   -0.0462 H   0  0  0  0  0  0  0  0  0  0  0  0
   -0.8351   -1.8440   -1.1425 H   0  0  0  0  0  0  0  0  0  0  0  0
    0.5833   -1.0433   -3.0112 H   0  0  0  0  0  0  0  0  0  0  0  0
   -0.3109    0.3049   -2.3046 H   0  0  0  0  0  0  0  0  0  0  0  0
    1.4076    0.0851   -1.9348 H   0  0  0  0  0  0  0  0  0  0  0  0
   -4.3375  -10.6312   -3.1626 H   0  0  0  0  0  0  0  0  0  0  0  0
   -4.8791  -11.4772   -0.9221 H   0  0  0  0  0  0  0  0  0  0  0  0
   -3.5874  -11.4321    1.6473 H   0  0  0  0  0  0  0  0  0  0  0  0
   -3.8219   -9.7896    2.2511 H   0  0  0  0  0  0  0  0  0  0  0  0
   -5.1801  -10.6895    1.5604 H   0  0  0  0  0  0  0  0  0  0  0  0
   -2.6354   -8.2985    0.8237 H   0  0  0  0  0  0  0  0  0  0  0  0
   -2.0829   -7.4591   -1.4121 H   0  0  0  0  0  0  0  0  0  0  0  0
   -3.1326   -7.9875   -6.3396 H   0  0  0  0  0  0  0  0  0  0  0  0
   -2.5666   -9.4861   -8.1681 H   0  0  0  0  0  0  0  0  0  0  0  0
   -1.6256  -13.0287   -7.7589 H   0  0  0  0  0  0  0  0  0  0  0  0
   -2.1244  -11.7896   -8.9199 H   0  0  0  0  0  0  0  0  0  0  0  0
   -0.4669  -11.8264   -8.3209 H   0  0  0  0  0  0  0  0  0  0  0  0
   -1.2772  -12.4346   -5.3750 H   0  0  0  0  0  0  0  0  0  0  0  0
   -1.8344  -10.9396   -3.5296 H   0  0  0  0  0  0  0  0  0  0  0  0
   -7.0003   -4.3012   -2.8055 H   0  0  0  0  0  0  0  0  0  0  0  0
   -6.1861   -2.2993   -1.6118 H   0  0  0  0  0  0  0  0  0  0  0  0
   -6.0432    0.3337   -1.8744 H   0  0  0  0  0  0  0  0  0  0  0  0
   -4.3911   -0.1860   -2.1870 H   0  0  0  0  0  0  0  0  0  0  0  0
   -5.2074    0.8826   -3.3337 H   0  0  0  0  0  0  0  0  0  0  0  0
   -5.6689   -0.2938   -5.3419 H   0  0  0  0  0  0  0  0  0  0  0  0
   -6.4553   -2.2969   -6.5313 H   0  0  0  0  0  0  0  0  0  0  0  0
   -7.2155   -5.8359   -7.7982 H   0  0  0  0  0  0  0  0  0  0  0  0
   -8.9494   -5.5985   -9.5051 H   0  0  0  0  0  0  0  0  0  0  0  0
  -11.6249   -5.0571   -9.6221 H   0  0  0  0  0  0  0  0  0  0  0  0
  -10.7726   -3.7193  -10.3788 H   0  0  0  0  0  0  0  0  0  0  0  0
  -11.9710   -3.3984   -9.1186 H   0  0  0  0  0  0  0  0  0  0  0  0
  -10.9797   -2.7447   -7.0688 H   0  0  0  0  0  0  0  0  0  0  0  0
   -9.2393   -2.9726   -5.3523 H   0  0  0  0  0  0  0  0  0  0  0  0
   -8.4336   -8.4943   -6.1799 H   0  0  0  0  0  0  0  0  0  0  0  0
  -11.5290   -3.9456   -3.2276 H   0  0  0  0  0  0  0  0  0  0  0  0
  -13.8988   -3.5345   -3.8894 H   0  0  0  0  0  0  0  0  0  0  0  0
  -13.5556   -6.3767   -7.0697 H   0  0  0  0  0  0  0  0  0  0  0  0
  1  2  2  0  0  0  0
  2  3  1  0  0  0  0
  3  4  2  0  0  0  0
  3  5  1  0  0  0  0
  5  6  2  0  0  0  0
  6  7  1  0  0  0  0
  7  8  2  0  0  0  0
  8  9  1  0  0  0  0
  8 10  1  0  0  0  0
 10 11  2  0  0  0  0
 11 12  1  0  0  0  0
 12 13  2  0  0  0  0
 13 14  1  0  0  0  0
 14 15  3  0  0  0  0
 13 16  1  0  0  0  0
 16 17  3  0  0  0  0
  1 18  1  0  0  0  0
 18 19  2  0  0  0  0
 19 20  1  0  0  0  0
 20 21  1  0  0  0  0
 21 22  2  0  0  0  0
 22 23  1  0  0  0  0
 23 24  2  0  0  0  0
 24 25  1  0  0  0  0
 24 26  1  0  0  0  0
 26 27  2  0  0  0  0
 20 28  1  0  0  0  0
 28 29  2  0  0  0  0
 29 30  1  0  0  0  0
 30 31  2  0  0  0  0
 31 32  1  0  0  0  0
 31 33  1  0  0  0  0
 33 34  2  0  0  0  0
 19 35  1  0  0  0  0
 35 36  1  0  0  0  0
 36 37  1  0  0  0  0
 37 38  2  0  0  0  0
 38 39  1  0  0  0  0
 39 40  1  0  0  0  0
 40 41  2  0  0  0  0
 41 42  1  0  0  0  0
 42 43  2  0  0  0  0
 43 44  1  0  0  0  0
 43 45  1  0  0  0  0
 45 46  2  0  0  0  0
 39 47  1  0  0  0  0
 47 48  2  0  0  0  0
 48 49  1  0  0  0  0
 49 50  2  0  0  0  0
 50 51  1  0  0  0  0
 50 52  1  0  0  0  0
 52 53  2  0  0  0  0
 38 54  1  0  0  0  0
 54 55  1  0  0  0  0
 37 56  1  0  0  0  0
 56 57  2  0  0  0  0
 57 58  1  0  0  0  0
 58 59  2  0  0  0  0
 59 60  1  0  0  0  0
 60 61  2  0  0  0  0
 61 62  1  0  0  0  0
 62 63  2  0  0  0  0
 63 64  1  0  0  0  0
 64 65  1  0  0  0  0
 57 66  1  0  0  0  0
 66 67  1  0  0  0  0
 67 68  1  0  0  0  0
 68 69  1  0  0  0  0
 69 70  1  0  0  0  0
 70 71  1  0  0  0  0
 71 72  2  0  0  0  0
 72 73  1  0  0  0  0
 73 74  1  0  0  0  0
 71 75  1  0  0  0  0
 75 76  1  0  0  0  0
 76 77  1  0  0  0  0
 77 78  1  0  0  0  0
 78 79  1  0  0  0  0
 79 80  1  0  0  0  0
 80 81  2  0  0  0  0
 81 82  1  0  0  0  0
 82 83  1  0  0  0  0
 81 84  1  0  0  0  0
 84 85  2  0  0  0  0
 85 86  1  0  0  0  0
 86 87  2  0  0  0  0
 79 88  2  0  0  0  0
 88 89  1  0  0  0  0
 89 90  1  0  0  0  0
 90 91  1  0  0  0  0
 91 92  1  0  0  0  0
 92 93  1  0  0  0  0
 93 94  1  0  0  0  0
 94 95  1  0  0  0  0
 95 96  1  0  0  0  0
 96 97  1  0  0  0  0
 97 98  1  0  0  0  0
 95 99  1  0  0  0  0
 99100  1  0  0  0  0
 92101  1  0  0  0  0
101102  1  0  0  0  0
 88103  1  0  0  0  0
103104  2  0  0  0  0
104105  1  0  0  0  0
105106  1  0  0  0  0
106107  2  0  0  0  0
107108  1  0  0  0  0
108109  2  0  0  0  0
109110  1  0  0  0  0
109111  1  0  0  0  0
111112  2  0  0  0  0
105113  1  0  0  0  0
113114  2  0  0  0  0
114115  1  0  0  0  0
115116  2  0  0  0  0
116117  1  0  0  0  0
116118  1  0  0  0  0
118119  2  0  0  0  0
104120  1  0  0  0  0
120121  1  0  0  0  0
121122  1  0  0  0  0
122123  2  0  0  0  0
123124  1  0  0  0  0
124125  1  0  0  0  0
125126  2  0  0  0  0
126127  1  0  0  0  0
127128  2  0  0  0  0
128129  1  0  0  0  0
128130  1  0  0  0  0
130131  2  0  0  0  0
124132  1  0  0  0  0
132133  2  0  0  0  0
133134  1  0  0  0  0
134135  2  0  0  0  0
135136  1  0  0  0  0
135137  1  0  0  0  0
137138  2  0  0  0  0
123139  1  0  0  0  0
139140  1  0  0  0  0
122141  1  0  0  0  0
141142  2  0  0  0  0
142143  1  0  0  0  0
143144  2  0  0  0  0
143145  1  0  0  0  0
145146  2  0  0  0  0
146147  1  0  0  0  0
147148  2  0  0  0  0
148149  1  0  0  0  0
148150  1  0  0  0  0
150151  2  0  0  0  0
151152  1  0  0  0  0
152153  2  0  0  0  0
153154  1  0  0  0  0
154155  3  0  0  0  0
153156  1  0  0  0  0
156157  3  0  0  0  0
 12  2  1  0  0  0  0
 55 18  1  0  0  0  0
 98 56  1  0  0  0  0
140103  1  0  0  0  0
152142  1  0  0  0  0
 11  5  1  0  0  0  0
 27 21  1  0  0  0  0
 34 28  1  0  0  0  0
 54 35  2  0  0  0  0
 63 58  1  0  0  0  0
 97 66  2  0  0  0  0
112106  1  0  0  0  0
119113  1  0  0  0  0
139120  2  0  0  0  0
151145  1  0  0  0  0
 46 40  1  0  0  0  0
 53 47  1  0  0  0  0
 96 68  2  0  0  0  0
131125  1  0  0  0  0
138132  1  0  0  0  0
 94 69  2  0  0  0  0
 74 70  2  0  0  0  0
 93 75  2  0  0  0  0
 91 76  2  0  0  0  0
 90 78  2  0  0  0  0
 87 80  1  0  0  0  0
  1158  1  0  0  0  0
  6159  1  0  0  0  0
  7160  1  0  0  0  0
 10161  1  0  0  0  0
 22162  1  0  0  0  0
 23163  1  0  0  0  0
 25164  1  0  0  0  0
 25165  1  0  0  0  0
 25166  1  0  0  0  0
 26167  1  0  0  0  0
 27168  1  0  0  0  0
 29169  1  0  0  0  0
 30170  1  0  0  0  0
 32171  1  0  0  0  0
 32172  1  0  0  0  0
 32173  1  0  0  0  0
 33174  1  0  0  0  0
 34175  1  0  0  0  0
 41176  1  0  0  0  0
 42177  1  0  0  0  0
 44178  1  0  0  0  0
 44179  1  0  0  0  0
 44180  1  0  0  0  0
 45181  1  0  0  0  0
 46182  1  0  0  0  0
 48183  1  0  0  0  0
 49184  1  0  0  0  0
 51185  1  0  0  0  0
 51186  1  0  0  0  0
 51187  1  0  0  0  0
 52188  1  0  0  0  0
 53189  1  0  0  0  0
 59190  1  0  0  0  0
 60191  1  0  0  0  0
 61192  1  0  0  0  0
 62193  1  0  0  0  0
 64194  1  0  0  0  0
 64195  1  0  0  0  0
 65196  1  0  0  0  0
 65197  1  0  0  0  0
 65198  1  0  0  0  0
 82199  1  0  0  0  0
 82200  1  0  0  0  0
 83201  1  0  0  0  0
 83202  1  0  0  0  0
 83203  1  0  0  0  0
 84204  1  0  0  0  0
 85205  1  0  0  0  0
 86206  1  0  0  0  0
 87207  1  0  0  0  0
 99208  1  0  0  0  0
 99209  1  0  0  0  0
100210  1  0  0  0  0
100211  1  0  0  0  0
100212  1  0  0  0  0
101213  1  0  0  0  0
101214  1  0  0  0  0
102215  1  0  0  0  0
102216  1  0  0  0  0
102217  1  0  0  0  0
107218  1  0  0  0  0
108219  1  0  0  0  0
110220  1  0  0  0  0
110221  1  0  0  0  0
110222  1  0  0  0  0
111223  1  0  0  0  0
112224  1  0  0  0  0
114225  1  0  0  0  0
115226  1  0  0  0  0
117227  1  0  0  0  0
117228  1  0  0  0  0
117229  1  0  0  0  0
118230  1  0  0  0  0
119231  1  0  0  0  0
126232  1  0  0  0  0
127233  1  0  0  0  0
129234  1  0  0  0  0
129235  1  0  0  0  0
129236  1  0  0  0  0
130237  1  0  0  0  0
131238  1  0  0  0  0
133239  1  0  0  0  0
134240  1  0  0  0  0
136241  1  0  0  0  0
136242  1  0  0  0  0
136243  1  0  0  0  0
137244  1  0  0  0  0
138245  1  0  0  0  0
141246  1  0  0  0  0
146247  1  0  0  0  0
147248  1  0  0  0  0
150249  1  0  0  0  0
M  END
