222

C          1.98550       12.05480        2.97290
C          2.73550       12.85970        3.80780
C          3.32400       12.46710        5.08700
O          3.34500       11.36140        5.60050
C          3.88640       13.70270        5.67070
C          4.53890       13.87520        6.87510
C          4.97860       15.14620        7.21320
C          4.75300       16.20100        6.34090
Br         5.36250       17.93530        6.82640
C          4.09920       16.04380        5.12380
C          3.66160       14.77410        4.78970
C          2.96950       14.26610        3.60170
C          2.65160       15.01650        2.49460
C          2.11320       14.51740        1.29360
N          1.71100       14.18830        0.26760
C          2.85960       16.40650        2.39450
N          2.98490       17.53920        2.25120
C          1.71460       10.69380        3.03510
C          0.91520       10.02060        2.06990
N          0.13430       10.62050        1.12450
C         -0.55420       11.82730        1.35360
C         -0.72980       12.73250        0.31000
C         -1.40930       13.91390        0.52990
C         -1.92000       14.22750        1.78400
C         -2.61840       15.53210        2.01170
C         -1.75590       13.30740        2.81340
C         -1.09050       12.11580        2.60610
C         -0.09390        9.94310       -0.09160
C         -1.37840        9.83590       -0.61290
C         -1.58550        9.16360       -1.80130
C         -0.52810        8.58630       -2.49370
C         -0.75690        7.82990       -3.76510
C          0.75390        8.71060       -1.96930
C          0.97550        9.38220       -0.78460
C          1.03350        8.62770        2.21240
S          0.33470        7.27340        1.38360
C          1.16790        6.17360        2.46750
C          1.87690        6.82830        3.46880
N          2.48810        6.21250        4.53910
C          1.98360        4.99870        5.03900
C          2.85090        3.96140        5.36890
C          2.34900        2.72300        5.71940
C          0.98040        2.48620        5.74880
C          0.43870        1.12440        6.05670
C          0.12080        3.54780        5.48960
C          0.61070        4.79100        5.14570
C          3.61310        6.80480        5.13540
C          4.58740        7.42020        4.35390
C          5.67110        8.03050        4.95240
C          5.82010        8.03230        6.33370
C          6.97970        8.73260        6.97200
C          4.85750        7.39040        7.10290
C          3.76420        6.78400        6.51810
C          1.81930        8.23370        3.28890
S          2.45930        9.56880        4.17750
C          1.05340        4.76130        2.28650
C          2.04970        3.82610        2.42890
C          1.55700        2.52420        2.29980
S          2.30510        0.95930        2.36180
C          0.77010        0.20260        1.99130
C          0.58850       -1.15370        1.77240
C          1.69630       -2.10010        1.83870
S          1.77390       -3.34830        3.04060
C          3.26330       -3.97070        2.41740
C          3.95040       -5.13660        3.03960
C          4.40640       -4.82430        4.46500
C          3.66530       -3.23120        1.34710
F          4.78630       -3.48630        0.65610
C          2.78310       -2.17220        1.01850
F          2.97390       -1.35120       -0.02230
C         -0.69640       -1.58600        1.42160
C         -1.76810       -0.66220        1.35420
C         -1.59400        0.69080        1.60200
C         -2.70530        1.62990        1.54490
S         -3.65560        1.86460        0.11220
C         -4.66420        3.04770        0.87090
C         -5.79720        3.69260        0.15100
C         -6.86570        2.66920       -0.23480
C         -4.27360        3.23170        2.16200
C         -3.16580        2.43640        2.54410
F         -2.65110        2.44320        3.78070
F         -4.87670        4.08850        2.99920
C         -0.29470        1.13430        1.88630
C          0.19340        2.45290        2.05350
S         -0.50080        4.02790        1.95040
S         -3.27440       -1.40440        0.85500
C         -2.45440       -2.91400        0.60540
C         -2.82580       -4.10820       -0.02110
C         -1.76410       -4.97000       -0.14030
S         -0.30900       -4.33750        0.60720
C         -1.12110       -2.86300        0.98120
C         -1.71700       -6.12720       -0.97970
C         -2.18520       -6.16560       -2.28750
N         -2.69640       -5.09120       -2.98640
C         -2.19590       -3.79410       -2.78450
C         -0.84010       -3.57760       -2.54740
C         -0.37790       -2.30910       -2.25920
C         -1.24290       -1.22190       -2.21730
C         -0.73270        0.14750       -1.89050
C         -2.58510       -1.43660       -2.50710
C         -3.06120       -2.70310       -2.78540
C         -3.62450       -5.33670       -4.01430
C         -4.64550       -6.26460       -3.82640
C         -5.51520       -6.55610       -4.85760
C         -5.40000       -5.92700       -6.09120
C         -6.31270       -6.29490       -7.21930
C         -4.40160       -4.97510       -6.25610
C         -3.52030       -4.67930       -5.23550
C         -1.98960       -7.44880       -2.85460
S         -2.31210       -8.09720       -4.41820
C         -1.56950       -9.62920       -3.94130
C         -1.02220       -9.56810       -2.62750
N         -0.28810      -10.54810       -2.02540
C          0.60390      -11.37900       -2.73150
C          0.77890      -12.70200       -2.33390
C          1.65730      -13.51700       -3.01960
C          2.36990      -13.04520       -4.11580
C          3.28530      -13.95730       -4.87150
C          2.20260      -11.71680       -4.49100
C          1.33990      -10.88510       -3.80580
C         -0.31280      -10.64520       -0.61850
C          0.86850      -10.77940        0.10230
C          0.82820      -10.87980        1.47910
C         -0.37910      -10.84920        2.16600
C         -0.42400      -10.94030        3.65950
C         -1.55490      -10.71970        1.43420
C         -1.52930      -10.62070        0.05840
C         -1.32180       -8.33620       -2.02020
S         -0.93390       -7.61700       -0.48630
C         -1.61210      -10.79300       -4.69710
C         -2.08340      -11.01740       -5.97770
C         -2.58020      -10.00440       -6.90400
O         -2.76240       -8.81810       -6.69760
C         -2.80980      -10.70620       -8.18690
C         -2.47140      -12.06330       -8.03960
C         -2.59160      -12.92480       -9.11710
C         -3.04760      -12.41750      -10.32620
C         -3.38520      -11.08070      -10.46320
Br        -4.00800      -10.45310      -12.13430
C         -3.27270      -10.19440       -9.38640
Cl        -3.69280       -8.54170       -9.54450
C         -2.05130      -12.28750       -6.65480
C         -1.72320      -13.51320       -6.12280
C         -1.62410      -14.70060       -6.87360
N         -1.50270      -15.69940       -7.42820
C         -1.47960      -13.77360       -4.76150
N         -1.30930      -14.08330       -3.66700
H          1.53880       12.55470        2.12320
H          4.69840       13.03440        7.53210
H          5.49280       15.32130        8.14550
H          3.94730       16.89400        4.47910
H         -0.32160       12.51210       -0.66360
H         -1.52770       14.61360       -0.28340
H         -1.90300       16.35260        1.95620
H         -3.09480       15.55640        2.98840
H         -3.37420       15.70090        1.24670
H         -2.16190       13.52110        3.79160
H         -0.97880       11.40750        3.41390
H         -2.20860       10.27490       -0.07980
H         -2.58860        9.08120       -2.19370
H          0.02590        8.04590       -4.48910
H         -1.72040        8.08070       -4.20100
H         -0.74070        6.75790       -3.56610
H          1.59010        8.27960       -2.49990
H          1.97640        9.48420       -0.39150
H          3.91780        4.12430        5.31850
H          3.03430        1.91780        5.94190
H          1.12060        0.34980        5.71160
H          0.30740        1.00390        7.13250
H         -0.52900        0.98310        5.58070
H         -0.94630        3.39180        5.53710
H         -0.07050        5.60150        4.93100
H          4.49140        7.41490        3.27760
H          6.41590        8.51240        4.33570
H          7.88880        8.58710        6.39190
H          7.14460        8.37280        7.98460
H          6.78000        9.80350        7.01820
H          4.95710        7.37570        8.17860
H          3.01500        6.29930        7.12680
H          3.08060        4.07410        2.59580
H          4.81120       -5.39710        2.42070
H          3.26740       -5.98970        3.05770
H          4.90010       -5.69050        4.89690
H          3.55150       -4.56340        5.08460
H          5.10400       -3.99030        4.46640
H         -6.22730        4.45550        0.80270
H         -5.42310        4.18150       -0.75210
H         -7.68120        3.16050       -0.75830
H         -6.44050        1.90770       -0.88450
H         -7.26470        2.18380        0.65260
H         -3.81030       -4.32300       -0.39170
H         -0.15260       -4.41040       -2.57840
H          0.67320       -2.15940       -2.05850
H         -0.39550        0.64690       -2.79920
H         -1.51550        0.75650       -1.44260
H          0.11190        0.09280       -1.20660
H         -3.27170       -0.60250       -2.48840
H         -4.11050       -2.85930       -2.98850
H         -4.74610       -6.76060       -2.87120
H         -6.29490       -7.28810       -4.70370
H         -7.32950       -6.45090       -6.86410
H         -5.97170       -7.22520       -7.67430
H         -6.31920       -5.52420       -7.98610
H         -4.29860       -4.46970       -7.20530
H         -2.73580       -3.95160       -5.38270
H          0.21600      -13.08830       -1.49900
H          1.77510      -14.54420       -2.71020
H          3.85210      -13.41090       -5.62100
H          2.70770      -14.73410       -5.37250
H          3.98110      -14.44860       -4.19360
H          2.76180      -11.32270       -5.32710
H          1.22800       -9.85290       -4.10380
H          1.81300      -10.79930       -0.42080
H          1.75280      -10.97930        2.02850
H         -1.20100      -11.63210        3.97880
H         -0.65260       -9.96340        4.08580
H          0.53010      -11.27350        4.05930
H         -2.50340      -10.70390        1.95060
H         -2.44870      -10.53490       -0.50210
H         -1.20510      -11.66150       -4.19580
H         -2.33970      -13.96920       -9.04180
H         -3.14510      -13.07190      -11.17880
