229

C          5.88320       11.34410        0.19830
C          6.44030       11.52250        1.45170
C          6.19900       10.61990        2.58430
O          5.53210        9.60140        2.59520
C          6.82850       11.27720        3.75280
C          6.88290       10.85220        5.06410
C          7.55810       11.63730        5.98780
C          8.14550       12.82380        5.57660
Br         9.06890       13.88190        6.85990
C          8.08940       13.27290        4.26180
C          7.42330       12.48230        3.34390
C          7.20650       12.64410        1.90510
C          7.78380       13.60280        1.10720
C          7.66010       13.63280       -0.29550
N          7.62960       13.69730       -1.44210
C          8.63730       14.61440        1.58220
N          9.35550       15.44570        1.91890
C          5.51050       10.12650       -0.36560
C          5.94240        8.80420       -0.11150
N          6.97780        8.41940        0.68810
C          8.06330        9.25110        0.99260
C          8.61230       10.10560        0.03660
C          9.65770       10.93970        0.37070
C         10.19010       10.95170        1.65870
C         11.29010       11.90120        2.01390
C          9.66760       10.06660        2.59170
C          8.62030        9.22340        2.26970
C          6.97660        7.11240        1.22520
C          5.83470        6.60770        1.83920
C          5.84250        5.32850        2.35720
C          6.97870        4.53030        2.28130
C          6.96450        3.13380        2.82160
C          8.11770        5.05260        1.68050
C          8.12380        6.33030        1.15510
C          5.21910        7.89030       -0.91290
S          5.23600        6.16570       -1.07580
C          4.03130        6.25300       -2.34790
C          3.59860        7.54910       -2.58940
N          2.56130        7.89410       -3.43890
C          2.63220        9.09660       -4.15920
C          3.85280        9.54990       -4.65600
C          3.92180       10.74410       -5.34370
C          2.78380       11.51040       -5.56750
C          2.88240       12.81120       -6.30270
C          1.56870       11.04170       -5.08420
C          1.48690        9.85360       -4.38470
C          1.45380        7.03940       -3.57170
C          0.93880        6.37450       -2.46310
C         -0.06950        5.44260       -2.61640
C         -0.59750        5.15560       -3.86730
C         -1.64050        4.09630       -4.04950
C         -0.12460        5.87420       -4.96030
C          0.88290        6.80620       -4.82110
C          4.31360        8.47280       -1.78990
S          4.31510       10.19150       -1.67270
C          3.50150        5.05340       -2.92780
C          3.29140        4.76580       -4.25870
C          3.90910        5.58490       -5.35400
C          3.46800        5.20120       -6.75870
C          2.53560        3.58400       -4.40340
S          1.85090        2.74860       -5.78100
C          1.13760        1.58870       -4.71610
C          0.38760        0.40130       -4.77510
C         -0.02550       -0.37220       -5.88470
C         -0.61340       -1.66480       -5.63810
N         -0.90950       -2.35710       -6.72110
Se        -0.46680       -1.40520       -8.13860
N          0.12430       -0.06260       -7.15820
C         -0.86140       -2.04930       -4.29960
C         -1.48580       -3.19560       -3.77580
S         -2.15280       -4.69310       -4.32690
C         -2.55690       -5.09360       -2.67480
C         -3.18380       -6.21440       -2.09940
C         -3.66670       -7.37410       -2.90920
C         -2.52010       -8.32650       -3.25010
C         -3.30970       -6.06790       -0.73730
S         -2.62230       -4.55290       -0.15310
C         -2.19910       -4.10110       -1.76350
C         -1.58050       -3.01480       -2.39580
N         -1.02090       -1.81440       -2.03380
C         -0.55340       -1.21140       -3.19480
C          0.19050       -0.02590       -3.43260
N          0.84010        0.85950       -2.59540
C          1.40990        1.83340       -3.37010
C          2.20800        2.97020       -3.19180
S          2.86330        3.82410       -1.84670
C          1.20840        0.74340       -1.20480
C          0.42540        1.71630       -0.32420
C         -1.50800       -1.18010       -0.82630
C         -2.69220       -0.26780       -1.13730
C         -3.89820       -6.97090        0.20300
C         -4.76000       -6.67420        1.25050
N         -5.29810       -5.43000        1.52010
C         -5.59910       -4.52130        0.50100
C         -5.99200       -4.95710       -0.76410
C         -6.19490       -4.04790       -1.78110
C         -6.04240       -2.68220       -1.56770
C         -6.23260       -1.71490       -2.69650
C         -5.70650       -2.25180       -0.29080
C         -5.47870       -3.15270        0.73080
C         -5.61150       -5.12400        2.85850
C         -6.83450       -4.54980        3.18620
C         -7.15050       -4.30770        4.50830
C         -6.26610       -4.63230        5.52900
C         -6.63220       -4.42900        6.96620
C         -5.03630       -5.18250        5.18950
C         -4.70520       -5.42330        3.87180
C         -5.08440       -7.83830        1.99120
S         -6.01650       -8.12240        3.41700
C         -5.68160       -9.85520        3.30330
C         -4.80150      -10.15660        2.22830
N         -4.29150      -11.38840        1.92730
C         -3.96340      -11.66180        0.58260
C         -4.87510      -11.36990       -0.42700
C         -4.54600      -11.60830       -1.74730
C         -3.31290      -12.14610       -2.09050
C         -2.94470      -12.40170       -3.51890
C         -2.41650      -12.45270       -1.07110
C         -2.73070      -12.21600        0.25110
C         -3.94360      -12.33860        2.90570
C         -3.41430      -11.94150        4.13120
C         -3.09060      -12.88850        5.08190
C         -3.26360      -14.24540        4.83290
C         -2.94110      -15.27350        5.87230
C         -3.75860      -14.63150        3.59270
C         -4.10150      -13.69580        2.63750
C         -4.50220       -8.99800        1.49400
S         -3.52410       -8.68440        0.09970
C         -6.28250      -10.82970        4.08980
C         -7.09400      -10.71360        5.20140
C         -7.41800       -9.47820        5.91270
O         -7.14130       -8.33150        5.60340
C         -8.14560       -9.89180        7.13120
C         -8.66060       -9.10710        8.14350
C         -9.30650       -9.72990        9.20090
C         -9.41880      -11.11240        9.21260
Br       -10.30690      -11.94490       10.67340
C         -8.91010      -11.91690        8.19900
C         -8.26400      -11.29200        7.14670
C         -7.64040      -11.82750        5.93340
C         -7.62100      -13.15530        5.57710
C         -7.15450      -13.66750        4.35180
N         -6.83090      -14.16610        3.36720
C         -8.10220      -14.19910        6.39160
N         -8.45530      -15.09750        7.01420
H          5.67100       12.22240       -0.39990
H          6.41580        9.92450        5.35670
H          7.63030       11.33230        7.02040
H          8.55120       14.20780        3.98850
H          8.21500       10.11670       -0.96730
H         10.06640       11.60140       -0.37910
H         12.11600       11.81000        1.31030
H         10.93270       12.93030        1.96780
H         11.66090       11.71080        3.01770
H         10.07380       10.04340        3.59260
H          8.21810        8.54730        3.00910
H          4.96440        7.23880        1.92870
H          4.95350        4.94440        2.83550
H          6.36520        3.07540        3.72750
H          7.97210        2.78950        3.04070
H          6.52670        2.45790        2.08630
H          9.01230        4.45040        1.61770
H          9.01310        6.72620        0.68670
H          4.74550        8.95950       -4.50540
H          4.87550       11.08630       -5.71790
H          3.42110       12.68210       -7.24010
H          3.42970       13.53850       -5.70340
H          1.89620       13.21440       -6.51770
H          0.67070       11.61990       -5.24720
H          0.53720        9.50750       -4.00440
H          1.34400        6.57800       -1.48230
H         -0.44510        4.92460       -1.74510
H         -2.52620        4.50810       -4.53100
H         -1.93070        3.66740       -3.09310
H         -1.25870        3.29800       -4.68640
H         -0.53820        5.68110       -5.93950
H          1.24850        7.34560       -5.68220
H          3.68490        6.63870       -5.18470
H          4.99660        5.47680       -5.27530
H          3.92420        5.87600       -7.47960
H          2.38800        5.27200       -6.85560
H          3.77300        4.18670       -7.00150
H         -4.44090       -7.91700       -2.36530
H         -4.09600       -6.98670       -3.83620
H         -1.73950       -7.79710       -3.79100
H         -2.88550       -9.13990       -3.87080
H         -2.09490       -8.74930       -2.34250
H          1.08520       -0.29380       -0.89100
H          2.27400        0.98640       -1.12610
H          0.68850        2.73760       -0.58630
H         -0.64650        1.59500       -0.45320
H          0.67740        1.55510        0.72040
H         -1.82910       -1.98370       -0.15870
H         -0.72210       -0.62370       -0.32360
H         -3.49830       -0.84580       -1.58230
H         -3.05660        0.19270       -0.22280
H         -2.40000        0.51270       -1.83750
H         -6.13540       -6.01140       -0.94750
H         -6.48000       -4.40370       -2.76060
H         -6.20440       -0.68740       -2.34090
H         -7.18800       -1.88630       -3.19030
H         -5.44790       -1.84620       -3.44330
H         -5.60820       -1.19430       -0.09100
H         -5.18930       -2.80330        1.71070
H         -7.53710       -4.30980        2.40150
H         -8.11040       -3.87520        4.75110
H         -5.79450       -4.01890        7.52730
H         -7.48470       -3.76150        7.06380
H         -6.89430       -5.38940        7.41010
H         -4.33100       -5.43080        5.96910
H         -3.74540       -5.85010        3.61730
H         -5.84040      -10.95900       -0.16920
H         -5.26250      -11.37520       -2.52130
H         -3.73140      -12.06890       -4.19090
H         -2.77780      -13.46580       -3.68170
H         -2.02300      -11.87960       -3.77180
H         -1.45400      -12.87430       -1.32100
H         -2.02320      -12.44790        1.03330
H         -3.26700      -10.89120        4.33690
H         -2.68860      -12.56620        6.03170
H         -2.40940      -14.83010        6.71050
H         -3.85990      -15.72500        6.24670
H         -2.33090      -16.06910        5.44870
H         -3.89790      -15.68020        3.37850
H         -4.50580      -14.00900        1.68790
H         -6.06300      -11.84300        3.77930
H         -8.56050       -8.03350        8.10410
H         -9.72150       -9.15060       10.01110
H         -9.02400      -12.98730        8.25110
