249

C          4.17740       12.50900        2.43830
C          4.42050       12.79890        3.76770
C          4.25800       11.88700        4.89870
O          3.79070       10.76060        4.90410
C          4.81180       12.59380        6.07300
C          4.90210       12.16390        7.38160
C          5.47200       13.01200        8.31940
C          5.93140       14.25860        7.92090
Br         6.71280       15.40330        9.22280
C          5.84320       14.70870        6.60830
C          5.27450       13.85940        5.67530
C          5.01200       14.02340        4.24260
C          5.26610       15.16710        3.52280
C          4.88860       15.39380        2.18620
N          4.58650       15.67860        1.11360
C          5.92440       16.29840        4.04340
N          6.47180       17.24400        4.39790
C          3.60840       11.38740        1.84890
C          3.47480       11.22480        0.44150
N          4.04290       12.02900       -0.50810
C          3.36470       12.24090       -1.72360
C          1.99240       12.47270       -1.72860
C          1.33600       12.72700       -2.91690
C          2.02660       12.76790       -4.12110
C          1.33370       13.10660       -5.40520
C          3.39490       12.51630       -4.10810
C          4.06070       12.25130       -2.92950
C          5.32390       12.59010       -0.34260
C          6.33040       11.87270        0.29940
C          7.57810       12.43700        0.47300
C          7.86160       13.71270       -0.00120
C          9.20620       14.33860        0.20410
C          6.85970       14.40600       -0.67060
C          5.60260       13.86120       -0.83930
C          2.68730       10.10200        0.14290
S          2.14180        9.36730       -1.32990
C          1.37620        8.07320       -0.42210
C          1.49600        8.24540        0.95150
N          0.90840        7.45260        1.92160
C         -0.36000        6.88880        1.75930
C         -0.66450        5.68140        2.38580
C         -1.89060        5.08080        2.18380
C         -2.83860        5.64410        1.33900
C         -4.12810        4.94430        1.03630
C         -2.54680        6.87250        0.75930
C         -1.33450        7.49770        0.96950
C          1.58070        7.33750        3.15480
C          2.94510        7.06320        3.17620
C          3.62430        7.02560        4.37680
C          2.96470        7.25070        5.57860
C          3.72690        7.27460        6.86670
C          1.59650        7.48790        5.54890
C          0.90590        7.53370        4.35430
C          2.26320        9.39430        1.26100
S          2.83480       10.07300        2.74080
C          0.70040        6.98320       -1.06210
C         -0.32770        7.00790       -1.97920
C         -0.80620        8.17820       -2.71970
C          0.05790        8.90460       -3.53200
C         -0.42220        9.97250       -4.26580
C         -1.76090       10.31630       -4.20500
C         -2.64220        9.58720       -3.41630
C         -4.11210        9.89310       -3.40700
C         -4.84350        8.98110       -4.39440
C         -2.15290        8.51870       -2.68090
C         -0.90950        5.73200       -2.12960
S         -2.30590        5.18190       -3.01960
C         -2.02080        3.58170       -2.42490
C         -2.60090        2.30270       -2.49160
C         -3.83510        1.85860       -3.01460
C         -4.24530        0.50250       -2.77240
N         -5.45390        0.24810       -3.24820
S         -6.02530        1.59310       -3.94620
N         -4.75320        2.55590       -3.66490
C         -3.33820       -0.38480       -2.15320
C         -3.38030       -1.77510       -1.95230
S         -4.47320       -3.09900       -2.17400
C         -3.21820       -4.19450       -1.64740
C         -3.15510       -5.60120       -1.54310
C         -4.26210       -6.49390       -1.88710
C         -5.56960       -6.15950       -1.54560
C         -6.61010       -6.99650       -1.90030
C         -6.36180       -8.17420       -2.58430
C         -5.06300       -8.53050       -2.92550
C         -4.77310       -9.79450       -3.68360
C         -4.57920       -9.50240       -5.17250
C         -4.02860       -7.67500       -2.58380
C         -1.89670       -6.01830       -1.15310
S         -0.79290       -4.67930       -0.89130
C         -2.02550       -3.54980       -1.32480
C         -2.12390       -2.15960       -1.48040
N         -1.31890       -1.05960       -1.34270
C         -2.05230        0.04750       -1.72880
C         -1.75000        1.43310       -1.75880
N         -0.71810        2.17850       -1.20770
C         -0.89770        3.47970       -1.60160
C         -0.28050        4.72260       -1.40390
S          1.03130        5.35240       -0.47520
C          0.03690        1.89500       -0.00580
C         -0.89820        1.63070        1.17060
C          0.11480       -1.21490       -1.23980
C          0.56420       -1.58960        0.17060
C         -1.52290       -7.37630       -0.86410
C         -0.48640       -8.14420       -1.36150
N          0.49050       -7.71320       -2.25530
C          0.76250       -8.52000       -3.36870
C         -0.27290       -9.20680       -3.99910
C         -0.01630      -10.01660       -5.08670
C          1.27210      -10.15960       -5.58530
C          1.55010      -11.05500       -6.75370
C          2.30020       -9.47040       -4.95310
C          2.05820       -8.66630       -3.85770
C          1.31640       -6.63710       -1.91480
C          1.77600       -5.76110       -2.89670
C          2.57990       -4.69540       -2.55110
C          2.94860       -4.46950       -1.22860
C          3.85440       -3.32820       -0.87730
C          2.48530       -5.34470       -0.25630
C          1.68090       -6.41780       -0.58810
C         -0.58980       -9.48500       -0.91660
S          0.37350      -10.89030       -1.16980
C         -0.73120      -11.85230       -0.17420
C         -1.74800      -11.06360        0.39930
N         -2.63740      -11.43710        1.36570
C         -2.40720      -12.48570        2.26400
C         -3.46380      -13.30820        2.65090
C         -3.24110      -14.37500        3.50110
C         -1.97100      -14.65250        3.98900
C         -1.71130      -15.84570        4.85390
C         -0.93080      -13.79500        3.63900
C         -1.13950      -12.72610        2.79330
C         -3.84370      -10.70990        1.49030
C         -4.63430      -10.46570        0.37190
C         -5.79540       -9.73270        0.50100
C         -6.19160       -9.22620        1.73420
C         -7.43260       -8.39550        1.83960
C         -5.40710       -9.49910        2.84740
C         -4.24320      -10.23560        2.73400
C         -1.66420       -9.73190       -0.07660
S         -2.57140       -8.28670        0.21630
C         -0.43810      -13.21600       -0.05060
C         -1.33490      -14.21030        0.26060
C         -2.79190      -14.11890        0.00860
O         -3.39860      -13.19270       -0.49520
C         -3.29520      -15.44070        0.37610
S         -4.81810      -16.21450        0.42920
C         -4.07650      -17.66890        1.04630
C         -4.91510      -18.85800        1.34280
C         -2.72420      -17.54320        1.19370
C         -2.27190      -16.26730        0.80820
C         -1.02610      -15.52580        0.76160
C          0.17280      -15.96730        1.26400
C          0.30870      -17.24740        1.83160
N          0.42330      -18.28260        2.31620
C          1.34290      -15.19020        1.33930
N          2.32300      -14.60160        1.45210
H          4.48050       13.27300        1.73400
H          4.53100       11.19030        7.66140
H          5.55940       12.71240        9.35220
H          6.21290       15.68690        6.34750
H          1.44720       12.47290       -0.79620
H          0.27170       12.91000       -2.90280
H          1.61760       14.10930       -5.72560
H          1.62170       12.41550       -6.19580
H          0.25370       13.08080       -5.28530
H          3.94640       12.53010       -5.03700
H          5.12280       12.05660       -2.93400
H          6.12740       10.87750        0.66740
H          8.34700       11.87160        0.97970
H          9.90250       13.63330        0.65060
H          9.61580       14.68430       -0.74350
H          9.11970       15.20330        0.86180
H          7.05970       15.39730       -1.04810
H          4.82960       14.42160       -1.34030
H          0.07310        5.21310        3.02040
H         -2.11240        4.15310        2.69220
H         -4.95410        5.65140        0.99750
H         -4.34820        4.18650        1.78470
H         -4.06520        4.45390        0.06300
H         -3.28890        7.35160        0.13750
H         -1.13940        8.46070        0.52060
H          3.46620        6.89210        2.24490
H          4.68630        6.82720        4.38140
H          4.47010        6.48000        6.89580
H          3.06090        7.16930        7.71970
H          4.25020        8.22690        6.95390
H          1.06460        7.66090        6.47330
H         -0.15450        7.73950        4.34100
H          1.09370        8.61190       -3.61420
H          0.25410       10.52860       -4.89560
H         -2.13130       11.14910       -4.78620
H         -4.27930       10.93590       -3.68380
H         -4.51780        9.73610       -2.40520
H         -4.68840        7.93700       -4.13190
H         -5.91100        9.18860       -4.38600
H         -4.46670        9.13790       -5.40270
H         -2.82630        7.93950       -2.06710
H         -5.76580       -5.25090       -0.99730
H         -7.62390       -6.72990       -1.63890
H         -7.18260       -8.82260       -2.85810
H         -5.59720      -10.49910       -3.55740
H         -3.86750      -10.26140       -3.28820
H         -4.37480      -10.42200       -5.71610
H         -3.74680       -8.81800       -5.32220
H         -5.47480       -9.04530       -5.58770
H         -3.01840       -7.92120       -2.87610
H          0.71730        1.05760       -0.15380
H          0.64140        2.78230        0.19870
H         -0.32180        1.47950        2.07940
H         -1.51280        0.75220        0.98720
H         -1.55500        2.48490        1.31080
H          0.58790       -0.29630       -1.58930
H          0.41270       -2.02160       -1.92040
H          1.64900       -1.61260        0.21280
H          0.19400       -2.57840        0.42660
H          0.19590       -0.88340        0.90850
H         -1.28420       -9.10650       -3.63340
H         -0.83400      -10.54180       -5.55920
H          2.40640      -10.69830       -7.32150
H          0.68710      -11.11200       -7.41330
H          1.77440      -12.06370       -6.40450
H          3.31220       -9.57360       -5.31760
H          2.87460       -8.15490       -3.37000
H          1.49090       -5.92130       -3.92590
H          2.92700       -4.02130       -3.32150
H          3.60450       -2.44100       -1.45640
H          4.88830       -3.59110       -1.10350
H          3.79210       -3.09350        0.18270
H          2.76210       -5.19140        0.77680
H          1.33330       -7.09440        0.17880
H         -4.45390      -13.11390        2.26580
H         -4.06900      -15.01310        3.77510
H         -2.64120      -16.26820        5.22580
H         -1.07960      -15.57890        5.69900
H         -1.19010      -16.61580        4.28330
H          0.06070      -13.97400        4.02920
H         -0.31650      -12.07640        2.53580
H         -4.33920      -10.87510       -0.58110
H         -6.40360       -9.54420       -0.37020
H         -7.69970       -8.21810        2.87800
H         -8.26580       -8.88570        1.33970
H         -7.27310       -7.43340        1.35280
H         -5.70320       -9.12440        3.81650
H         -3.63490      -10.43840        3.60360
H          0.59200      -13.49340       -0.24240
H         -5.70350      -18.60600        2.05130
H         -5.39160      -19.22750        0.43500
H         -4.30130      -19.65020        1.76380
H         -2.09480      -18.33470        1.55700
