
  xtb     02062217073D
 energy: -455.692239458193 gnorm: 0.000298166470 xtb: 6.4.1 (unknown)
286314  0     0  0            999 V2000
   12.6247    5.4111    4.5961 C   0  0  0  0  0  0  0  0  0  0  0  0
   12.7352    5.2866    5.9716 C   0  0  0  0  0  0  0  0  0  0  0  0
   11.7088    4.6636    6.8147 C   0  0  0  0  0  0  0  0  0  0  0  0
   10.6616    4.1528    6.4598 O   0  0  0  0  0  0  0  0  0  0  0  0
   12.1477    4.8997    8.2099 C   0  0  0  0  0  0  0  0  0  0  0  0
   11.5401    4.5208    9.3889 C   0  0  0  0  0  0  0  0  0  0  0  0
   12.1655    4.8340   10.5875 C   0  0  0  0  0  0  0  0  0  0  0  0
   13.3678    5.5235   10.5705 C   0  0  0  0  0  0  0  0  0  0  0  0
   14.2110    5.9349   12.2260 Br  0  0  0  0  0  0  0  0  0  0  0  0
   13.9869    5.9251    9.3921 C   0  0  0  0  0  0  0  0  0  0  0  0
   13.3636    5.6028    8.2010 C   0  0  0  0  0  0  0  0  0  0  0  0
   13.7527    5.8423    6.8099 C   0  0  0  0  0  0  0  0  0  0  0  0
   14.9592    6.3512    6.3898 C   0  0  0  0  0  0  0  0  0  0  0  0
   15.3487    6.4266    5.0388 C   0  0  0  0  0  0  0  0  0  0  0  0
   15.7423    6.4842    3.9608 N   0  0  0  0  0  0  0  0  0  0  0  0
   15.9821    6.7745    7.2562 C   0  0  0  0  0  0  0  0  0  0  0  0
   16.8575    7.1155    7.9183 N   0  0  0  0  0  0  0  0  0  0  0  0
   11.9193    4.5579    3.7546 C   0  0  0  0  0  0  0  0  0  0  0  0
   11.5215    3.2074    3.9074 C   0  0  0  0  0  0  0  0  0  0  0  0
   11.8748    2.3477    4.9073 N   0  0  0  0  0  0  0  0  0  0  0  0
   13.0417    2.4819    5.6684 C   0  0  0  0  0  0  0  0  0  0  0  0
   13.0210    2.1613    7.0246 C   0  0  0  0  0  0  0  0  0  0  0  0
   14.1525    2.3348    7.7991 C   0  0  0  0  0  0  0  0  0  0  0  0
   15.3301    2.8243    7.2506 C   0  0  0  0  0  0  0  0  0  0  0  0
   16.5444    3.0600    8.0923 C   0  0  0  0  0  0  0  0  0  0  0  0
   15.3570    3.0923    5.8834 C   0  0  0  0  0  0  0  0  0  0  0  0
   14.2354    2.9254    5.0993 C   0  0  0  0  0  0  0  0  0  0  0  0
   11.0349    1.2404    5.1695 C   0  0  0  0  0  0  0  0  0  0  0  0
    9.6664    1.4247    5.3399 C   0  0  0  0  0  0  0  0  0  0  0  0
    8.8467    0.3338    5.5489 C   0  0  0  0  0  0  0  0  0  0  0  0
    9.3661   -0.9549    5.5968 C   0  0  0  0  0  0  0  0  0  0  0  0
    8.4669   -2.1332    5.8156 C   0  0  0  0  0  0  0  0  0  0  0  0
   10.7394   -1.1216    5.4611 C   0  0  0  0  0  0  0  0  0  0  0  0
   11.5719   -0.0394    5.2501 C   0  0  0  0  0  0  0  0  0  0  0  0
   10.7486    2.7999    2.8011 C   0  0  0  0  0  0  0  0  0  0  0  0
    9.9913    1.3057    2.3600 S   0  0  0  0  0  0  0  0  0  0  0  0
    9.3918    2.0159    0.8656 C   0  0  0  0  0  0  0  0  0  0  0  0
    9.8387    3.3225    0.6873 C   0  0  0  0  0  0  0  0  0  0  0  0
    9.6007    4.1100   -0.4246 N   0  0  0  0  0  0  0  0  0  0  0  0
    9.3820    5.4833   -0.2225 C   0  0  0  0  0  0  0  0  0  0  0  0
    8.5773    5.9074    0.8315 C   0  0  0  0  0  0  0  0  0  0  0  0
    8.3743    7.2550    1.0521 C   0  0  0  0  0  0  0  0  0  0  0  0
    8.9548    8.2110    0.2284 C   0  0  0  0  0  0  0  0  0  0  0  0
    8.7487    9.6728    0.4819 C   0  0  0  0  0  0  0  0  0  0  0  0
    9.7521    7.7780   -0.8250 C   0  0  0  0  0  0  0  0  0  0  0  0
    9.9715    6.4342   -1.0505 C   0  0  0  0  0  0  0  0  0  0  0  0
    9.7105    3.5837   -1.7170 C   0  0  0  0  0  0  0  0  0  0  0  0
   10.5760    2.5279   -1.9891 C   0  0  0  0  0  0  0  0  0  0  0  0
   10.6547    2.0028   -3.2644 C   0  0  0  0  0  0  0  0  0  0  0  0
    9.8887    2.5162   -4.3018 C   0  0  0  0  0  0  0  0  0  0  0  0
    9.9613    1.9426   -5.6840 C   0  0  0  0  0  0  0  0  0  0  0  0
    9.0346    3.5786   -4.0247 C   0  0  0  0  0  0  0  0  0  0  0  0
    8.9384    4.1057   -2.7544 C   0  0  0  0  0  0  0  0  0  0  0  0
   10.5949    3.7525    1.8014 C   0  0  0  0  0  0  0  0  0  0  0  0
   11.4288    5.2132    2.1804 S   0  0  0  0  0  0  0  0  0  0  0  0
    8.4624    1.2451    0.1236 C   0  0  0  0  0  0  0  0  0  0  0  0
    7.2822    1.9887   -0.9552 S   0  0  0  0  0  0  0  0  0  0  0  0
    6.4530    0.4831   -1.0963 C   0  0  0  0  0  0  0  0  0  0  0  0
    5.2986   -0.0832   -1.6345 C   0  0  0  0  0  0  0  0  0  0  0  0
    3.9043    0.3759   -2.5563 S   0  0  0  0  0  0  0  0  0  0  0  0
    3.2741   -1.2249   -2.3309 C   0  0  0  0  0  0  0  0  0  0  0  0
    2.0040   -1.8274   -2.5860 C   0  0  0  0  0  0  0  0  0  0  0  0
    0.8519   -1.3025   -3.1646 C   0  0  0  0  0  0  0  0  0  0  0  0
   -0.2920   -2.0602   -3.0839 C   0  0  0  0  0  0  0  0  0  0  0  0
   -1.6915   -1.6992   -3.5522 C   0  0  0  0  0  0  0  0  0  0  0  0
   -1.8712   -1.8569   -5.0541 C   0  0  0  0  0  0  0  0  0  0  0  0
   -0.8711   -2.3658   -5.8702 C   0  0  0  0  0  0  0  0  0  0  0  0
   -1.0908   -2.5284   -7.2259 C   0  0  0  0  0  0  0  0  0  0  0  0
   -2.3127   -2.2008   -7.7978 C   0  0  0  0  0  0  0  0  0  0  0  0
   -2.5500   -2.4211   -9.2650 C   0  0  0  0  0  0  0  0  0  0  0  0
   -2.7599   -3.9060   -9.5666 C   0  0  0  0  0  0  0  0  0  0  0  0
   -3.3121   -1.7001   -6.9738 C   0  0  0  0  0  0  0  0  0  0  0  0
   -3.0964   -1.5273   -5.6205 C   0  0  0  0  0  0  0  0  0  0  0  0
   -2.0536   -0.3047   -3.0907 C   0  0  0  0  0  0  0  0  0  0  0  0
   -1.7609    0.7931   -3.8900 C   0  0  0  0  0  0  0  0  0  0  0  0
   -2.0490    2.0728   -3.4561 C   0  0  0  0  0  0  0  0  0  0  0  0
   -2.6369    2.2910   -2.2169 C   0  0  0  0  0  0  0  0  0  0  0  0
   -2.9068    3.6860   -1.7308 C   0  0  0  0  0  0  0  0  0  0  0  0
   -1.6778    4.2465   -1.0122 C   0  0  0  0  0  0  0  0  0  0  0  0
   -2.9184    1.1913   -1.4181 C   0  0  0  0  0  0  0  0  0  0  0  0
   -2.6265   -0.0908   -1.8451 C   0  0  0  0  0  0  0  0  0  0  0  0
   -2.4925   -2.7969   -2.9040 C   0  0  0  0  0  0  0  0  0  0  0  0
   -1.6521   -3.7365   -2.3361 C   0  0  0  0  0  0  0  0  0  0  0  0
   -0.2903   -3.3074   -2.4180 C   0  0  0  0  0  0  0  0  0  0  0  0
    0.8753   -3.8541   -1.8872 C   0  0  0  0  0  0  0  0  0  0  0  0
    2.0271   -3.1105   -1.9936 C   0  0  0  0  0  0  0  0  0  0  0  0
    3.4185   -3.4243   -1.4454 C   0  0  0  0  0  0  0  0  0  0  0  0
    3.3470   -3.7998    0.0225 C   0  0  0  0  0  0  0  0  0  0  0  0
    3.9509   -4.9318    0.5506 C   0  0  0  0  0  0  0  0  0  0  0  0
    3.8753   -5.2003    1.9065 C   0  0  0  0  0  0  0  0  0  0  0  0
    3.2009   -4.3492    2.7696 C   0  0  0  0  0  0  0  0  0  0  0  0
    3.1744   -4.6102    4.2479 C   0  0  0  0  0  0  0  0  0  0  0  0
    4.3474   -3.9081    4.9359 C   0  0  0  0  0  0  0  0  0  0  0  0
    2.5964   -3.2163    2.2369 C   0  0  0  0  0  0  0  0  0  0  0  0
    2.6675   -2.9450    0.8848 C   0  0  0  0  0  0  0  0  0  0  0  0
    4.0546   -4.4928   -2.3198 C   0  0  0  0  0  0  0  0  0  0  0  0
    3.4814   -5.7577   -2.4043 C   0  0  0  0  0  0  0  0  0  0  0  0
    4.0342   -6.7346   -3.2089 C   0  0  0  0  0  0  0  0  0  0  0  0
    5.1773   -6.4827   -3.9571 C   0  0  0  0  0  0  0  0  0  0  0  0
    5.7475   -7.5309   -4.8681 C   0  0  0  0  0  0  0  0  0  0  0  0
    5.0889   -7.4549   -6.2471 C   0  0  0  0  0  0  0  0  0  0  0  0
    5.7470   -5.2209   -3.8737 C   0  0  0  0  0  0  0  0  0  0  0  0
    5.1964   -4.2397   -3.0682 C   0  0  0  0  0  0  0  0  0  0  0  0
    4.0931   -2.0808   -1.6156 C   0  0  0  0  0  0  0  0  0  0  0  0
    5.2673   -1.4366   -1.2100 C   0  0  0  0  0  0  0  0  0  0  0  0
    6.3893   -1.7067   -0.4703 N   0  0  0  0  0  0  0  0  0  0  0  0
    7.0990   -0.5392   -0.3687 C   0  0  0  0  0  0  0  0  0  0  0  0
    8.2327   -0.1037    0.3146 C   0  0  0  0  0  0  0  0  0  0  0  0
    6.7185   -2.9243    0.2239 C   0  0  0  0  0  0  0  0  0  0  0  0
    6.4368   -2.8103    1.7202 C   0  0  0  0  0  0  0  0  0  0  0  0
   -2.4867   -5.0507   -1.5703 S   0  0  0  0  0  0  0  0  0  0  0  0
   -4.0043   -4.2986   -1.9716 C   0  0  0  0  0  0  0  0  0  0  0  0
   -5.3297   -4.5764   -1.6462 C   0  0  0  0  0  0  0  0  0  0  0  0
   -6.1919   -3.5989   -2.1046 C   0  0  0  0  0  0  0  0  0  0  0  0
   -5.3492   -2.3380   -2.9959 S   0  0  0  0  0  0  0  0  0  0  0  0
   -3.8350   -3.1106   -2.6990 C   0  0  0  0  0  0  0  0  0  0  0  0
   -7.5591   -3.4693   -1.7608 C   0  0  0  0  0  0  0  0  0  0  0  0
   -8.4732   -2.4904   -2.1410 C   0  0  0  0  0  0  0  0  0  0  0  0
   -8.2808   -1.5423   -3.1331 N   0  0  0  0  0  0  0  0  0  0  0  0
   -7.8789   -1.8889   -4.4250 C   0  0  0  0  0  0  0  0  0  0  0  0
   -7.9932   -3.1934   -4.9030 C   0  0  0  0  0  0  0  0  0  0  0  0
   -7.5993   -3.4996   -6.1892 C   0  0  0  0  0  0  0  0  0  0  0  0
   -7.0966   -2.5242   -7.0425 C   0  0  0  0  0  0  0  0  0  0  0  0
   -6.6854   -2.8782   -8.4391 C   0  0  0  0  0  0  0  0  0  0  0  0
   -6.9815   -1.2274   -6.5582 C   0  0  0  0  0  0  0  0  0  0  0  0
   -7.3544   -0.9101   -5.2679 C   0  0  0  0  0  0  0  0  0  0  0  0
   -8.8640   -0.2794   -2.8871 C   0  0  0  0  0  0  0  0  0  0  0  0
   -9.7694    0.2890   -3.7759 C   0  0  0  0  0  0  0  0  0  0  0  0
  -10.3912    1.4795   -3.4571 C   0  0  0  0  0  0  0  0  0  0  0  0
  -10.1329    2.1254   -2.2550 C   0  0  0  0  0  0  0  0  0  0  0  0
  -10.8723    3.3704   -1.8762 C   0  0  0  0  0  0  0  0  0  0  0  0
   -9.2045    1.5643   -1.3872 C   0  0  0  0  0  0  0  0  0  0  0  0
   -8.5722    0.3770   -1.6957 C   0  0  0  0  0  0  0  0  0  0  0  0
   -9.6529   -2.5597   -1.3629 C   0  0  0  0  0  0  0  0  0  0  0  0
  -11.0407   -1.5412   -1.2307 S   0  0  0  0  0  0  0  0  0  0  0  0
  -11.6923   -2.5778    0.0431 C   0  0  0  0  0  0  0  0  0  0  0  0
  -10.7995   -3.6337    0.3766 C   0  0  0  0  0  0  0  0  0  0  0  0
  -10.9813   -4.5446    1.3830 N   0  0  0  0  0  0  0  0  0  0  0  0
  -10.4323   -5.8320    1.2287 C   0  0  0  0  0  0  0  0  0  0  0  0
   -9.7496   -6.4444    2.2747 C   0  0  0  0  0  0  0  0  0  0  0  0
   -9.2199   -7.7084    2.1068 C   0  0  0  0  0  0  0  0  0  0  0  0
   -9.3520   -8.3891    0.9024 C   0  0  0  0  0  0  0  0  0  0  0  0
   -8.7547   -9.7491    0.7138 C   0  0  0  0  0  0  0  0  0  0  0  0
  -10.0397   -7.7697   -0.1352 C   0  0  0  0  0  0  0  0  0  0  0  0
  -10.5784   -6.5091    0.0206 C   0  0  0  0  0  0  0  0  0  0  0  0
  -11.5763   -4.2068    2.6131 C   0  0  0  0  0  0  0  0  0  0  0  0
  -12.3647   -5.1383    3.2834 C   0  0  0  0  0  0  0  0  0  0  0  0
  -12.9505   -4.8059    4.4889 C   0  0  0  0  0  0  0  0  0  0  0  0
  -12.7786   -3.5459    5.0491 C   0  0  0  0  0  0  0  0  0  0  0  0
  -13.4640   -3.1821    6.3296 C   0  0  0  0  0  0  0  0  0  0  0  0
  -11.9729   -2.6302    4.3809 C   0  0  0  0  0  0  0  0  0  0  0  0
  -11.3674   -2.9531    3.1836 C   0  0  0  0  0  0  0  0  0  0  0  0
   -9.6660   -3.6061   -0.4476 C   0  0  0  0  0  0  0  0  0  0  0  0
   -8.2106   -4.5492   -0.5294 S   0  0  0  0  0  0  0  0  0  0  0  0
  -12.9550   -2.4397    0.6060 C   0  0  0  0  0  0  0  0  0  0  0  0
  -13.8856   -1.4258    0.4842 C   0  0  0  0  0  0  0  0  0  0  0  0
  -13.6965   -0.1604   -0.2220 C   0  0  0  0  0  0  0  0  0  0  0  0
  -12.7640    0.1746   -0.9351 O   0  0  0  0  0  0  0  0  0  0  0  0
  -14.8652    0.6743    0.1147 C   0  0  0  0  0  0  0  0  0  0  0  0
  -15.1498    1.9477   -0.2804 C   0  0  0  0  0  0  0  0  0  0  0  0
  -16.3369    2.5622    0.1796 C   0  0  0  0  0  0  0  0  0  0  0  0
  -16.6800    3.8768   -0.1937 C   0  0  0  0  0  0  0  0  0  0  0  0
  -17.8303    4.4611    0.2599 C   0  0  0  0  0  0  0  0  0  0  0  0
  -18.6711    3.7296    1.1080 C   0  0  0  0  0  0  0  0  0  0  0  0
  -19.7995    4.3212    1.5462 F   0  0  0  0  0  0  0  0  0  0  0  0
  -18.3857    2.4511    1.4999 C   0  0  0  0  0  0  0  0  0  0  0  0
  -17.2059    1.8341    1.0419 C   0  0  0  0  0  0  0  0  0  0  0  0
  -16.8856    0.5101    1.4279 C   0  0  0  0  0  0  0  0  0  0  0  0
  -15.7301   -0.0628    0.9713 C   0  0  0  0  0  0  0  0  0  0  0  0
  -15.1480   -1.3883    1.1788 C   0  0  0  0  0  0  0  0  0  0  0  0
  -15.7355   -2.4036    1.8985 C   0  0  0  0  0  0  0  0  0  0  0  0
  -16.9295   -2.2617    2.6308 C   0  0  0  0  0  0  0  0  0  0  0  0
  -17.8841   -2.2093    3.2684 N   0  0  0  0  0  0  0  0  0  0  0  0
  -15.2604   -3.7246    1.9889 C   0  0  0  0  0  0  0  0  0  0  0  0
  -14.9652   -4.8321    2.0876 N   0  0  0  0  0  0  0  0  0  0  0  0
   13.0888    6.2659    4.1186 H   0  0  0  0  0  0  0  0  0  0  0  0
   10.6038    3.9847    9.3726 H   0  0  0  0  0  0  0  0  0  0  0  0
   11.7255    4.5449   11.5295 H   0  0  0  0  0  0  0  0  0  0  0  0
   14.9172    6.4685    9.4263 H   0  0  0  0  0  0  0  0  0  0  0  0
   12.1074    1.7947    7.4681 H   0  0  0  0  0  0  0  0  0  0  0  0
   14.1105    2.1017    8.8533 H   0  0  0  0  0  0  0  0  0  0  0  0
   17.3567    2.4055    7.7782 H   0  0  0  0  0  0  0  0  0  0  0  0
   16.8904    4.0875    7.9850 H   0  0  0  0  0  0  0  0  0  0  0  0
   16.3333    2.8720    9.1419 H   0  0  0  0  0  0  0  0  0  0  0  0
   16.2709    3.4476    5.4296 H   0  0  0  0  0  0  0  0  0  0  0  0
   14.2799    3.1455    4.0432 H   0  0  0  0  0  0  0  0  0  0  0  0
    9.2671    2.4265    5.3217 H   0  0  0  0  0  0  0  0  0  0  0  0
    7.7845    0.4846    5.6754 H   0  0  0  0  0  0  0  0  0  0  0  0
    8.3303   -2.3061    6.8835 H   0  0  0  0  0  0  0  0  0  0  0  0
    7.4869   -1.9601    5.3765 H   0  0  0  0  0  0  0  0  0  0  0  0
    8.8951   -3.0336    5.3816 H   0  0  0  0  0  0  0  0  0  0  0  0
   11.1633   -2.1143    5.5093 H   0  0  0  0  0  0  0  0  0  0  0  0
   12.6366   -0.1804    5.1337 H   0  0  0  0  0  0  0  0  0  0  0  0
    8.1082    5.1742    1.4718 H   0  0  0  0  0  0  0  0  0  0  0  0
    7.7483    7.5684    1.8751 H   0  0  0  0  0  0  0  0  0  0  0  0
    7.8106    9.8485    1.0032 H   0  0  0  0  0  0  0  0  0  0  0  0
    8.7455   10.2319   -0.4511 H   0  0  0  0  0  0  0  0  0  0  0  0
    9.5577   10.0600    1.1025 H   0  0  0  0  0  0  0  0  0  0  0  0
   10.2173    8.5059   -1.4738 H   0  0  0  0  0  0  0  0  0  0  0  0
   10.6042    6.1136   -1.8648 H   0  0  0  0  0  0  0  0  0  0  0  0
   11.1908    2.1198   -1.2001 H   0  0  0  0  0  0  0  0  0  0  0  0
   11.3319    1.1822   -3.4546 H   0  0  0  0  0  0  0  0  0  0  0  0
    9.0291    1.4335   -5.9292 H   0  0  0  0  0  0  0  0  0  0  0  0
   10.7761    1.2277   -5.7671 H   0  0  0  0  0  0  0  0  0  0  0  0
   10.1114    2.7319   -6.4188 H   0  0  0  0  0  0  0  0  0  0  0  0
    8.4263    3.9910   -4.8166 H   0  0  0  0  0  0  0  0  0  0  0  0
    8.2561    4.9172   -2.5512 H   0  0  0  0  0  0  0  0  0  0  0  0
    0.8566   -0.3222   -3.6160 H   0  0  0  0  0  0  0  0  0  0  0  0
    0.0872   -2.6340   -5.4505 H   0  0  0  0  0  0  0  0  0  0  0  0
   -0.2964   -2.9155   -7.8484 H   0  0  0  0  0  0  0  0  0  0  0  0
   -1.6900   -2.0608   -9.8346 H   0  0  0  0  0  0  0  0  0  0  0  0
   -3.4294   -1.8591   -9.5848 H   0  0  0  0  0  0  0  0  0  0  0  0
   -1.8793   -4.4796   -9.2874 H   0  0  0  0  0  0  0  0  0  0  0  0
   -3.6067   -4.2918   -9.0029 H   0  0  0  0  0  0  0  0  0  0  0  0
   -2.9511   -4.0564  -10.6267 H   0  0  0  0  0  0  0  0  0  0  0  0
   -4.2726   -1.4402   -7.3913 H   0  0  0  0  0  0  0  0  0  0  0  0
   -3.8864   -1.1294   -4.9996 H   0  0  0  0  0  0  0  0  0  0  0  0
   -1.3121    0.6434   -4.8616 H   0  0  0  0  0  0  0  0  0  0  0  0
   -1.8164    2.9158   -4.0914 H   0  0  0  0  0  0  0  0  0  0  0  0
   -3.7555    3.6815   -1.0439 H   0  0  0  0  0  0  0  0  0  0  0  0
   -3.1547    4.3315   -2.5759 H   0  0  0  0  0  0  0  0  0  0  0  0
   -1.4183    3.6192   -0.1622 H   0  0  0  0  0  0  0  0  0  0  0  0
   -0.8251    4.2747   -1.6870 H   0  0  0  0  0  0  0  0  0  0  0  0
   -1.8717    5.2551   -0.6544 H   0  0  0  0  0  0  0  0  0  0  0  0
   -3.3725    1.3389   -0.4484 H   0  0  0  0  0  0  0  0  0  0  0  0
   -2.8465   -0.9306   -1.2019 H   0  0  0  0  0  0  0  0  0  0  0  0
    0.8393   -4.7976   -1.3651 H   0  0  0  0  0  0  0  0  0  0  0  0
    4.4854   -5.6158   -0.0926 H   0  0  0  0  0  0  0  0  0  0  0  0
    4.3512   -6.0887    2.2972 H   0  0  0  0  0  0  0  0  0  0  0  0
    3.2373   -5.6836    4.4365 H   0  0  0  0  0  0  0  0  0  0  0  0
    2.2377   -4.2427    4.6717 H   0  0  0  0  0  0  0  0  0  0  0  0
    4.3004   -2.8351    4.7630 H   0  0  0  0  0  0  0  0  0  0  0  0
    5.2929   -4.2761    4.5436 H   0  0  0  0  0  0  0  0  0  0  0  0
    4.3228   -4.0887    6.0080 H   0  0  0  0  0  0  0  0  0  0  0  0
    2.0634   -2.5393    2.8893 H   0  0  0  0  0  0  0  0  0  0  0  0
    2.1911   -2.0598    0.4876 H   0  0  0  0  0  0  0  0  0  0  0  0
    2.5984   -5.9877   -1.8294 H   0  0  0  0  0  0  0  0  0  0  0  0
    3.5708   -7.7100   -3.2551 H   0  0  0  0  0  0  0  0  0  0  0  0
    5.5783   -8.5227   -4.4435 H   0  0  0  0  0  0  0  0  0  0  0  0
    6.8241   -7.3834   -4.9750 H   0  0  0  0  0  0  0  0  0  0  0  0
    5.5028   -8.2121   -6.9089 H   0  0  0  0  0  0  0  0  0  0  0  0
    5.2545   -6.4760   -6.6915 H   0  0  0  0  0  0  0  0  0  0  0  0
    4.0162   -7.6146   -6.1634 H   0  0  0  0  0  0  0  0  0  0  0  0
    6.6366   -4.9979   -4.4459 H   0  0  0  0  0  0  0  0  0  0  0  0
    5.6673   -3.2688   -3.0318 H   0  0  0  0  0  0  0  0  0  0  0  0
    8.8640   -0.7119    0.9372 H   0  0  0  0  0  0  0  0  0  0  0  0
    7.7805   -3.1369    0.0602 H   0  0  0  0  0  0  0  0  0  0  0  0
    6.1282   -3.7326   -0.2104 H   0  0  0  0  0  0  0  0  0  0  0  0
    7.0355   -2.0168    2.1611 H   0  0  0  0  0  0  0  0  0  0  0  0
    5.3857   -2.5905    1.8878 H   0  0  0  0  0  0  0  0  0  0  0  0
    6.6781   -3.7481    2.2122 H   0  0  0  0  0  0  0  0  0  0  0  0
   -5.6594   -5.4281   -1.0791 H   0  0  0  0  0  0  0  0  0  0  0  0
   -8.4030   -3.9655   -4.2684 H   0  0  0  0  0  0  0  0  0  0  0  0
   -7.6982   -4.5156   -6.5442 H   0  0  0  0  0  0  0  0  0  0  0  0
   -7.4471   -3.4892   -8.9206 H   0  0  0  0  0  0  0  0  0  0  0  0
   -6.5257   -1.9847   -9.0380 H   0  0  0  0  0  0  0  0  0  0  0  0
   -5.7592   -3.4529   -8.4235 H   0  0  0  0  0  0  0  0  0  0  0  0
   -6.5949   -0.4469   -7.1985 H   0  0  0  0  0  0  0  0  0  0  0  0
   -7.2456    0.1002   -4.9032 H   0  0  0  0  0  0  0  0  0  0  0  0
   -9.9990   -0.2181   -4.7015 H   0  0  0  0  0  0  0  0  0  0  0  0
  -11.1096    1.9008   -4.1450 H   0  0  0  0  0  0  0  0  0  0  0  0
  -10.2399    4.0429   -1.3004 H   0  0  0  0  0  0  0  0  0  0  0  0
  -11.7278    3.0981   -1.2575 H   0  0  0  0  0  0  0  0  0  0  0  0
  -11.2391    3.8926   -2.7566 H   0  0  0  0  0  0  0  0  0  0  0  0
   -8.9824    2.0582   -0.4521 H   0  0  0  0  0  0  0  0  0  0  0  0
   -7.8597   -0.0615   -1.0114 H   0  0  0  0  0  0  0  0  0  0  0  0
   -9.6339   -5.9236    3.2135 H   0  0  0  0  0  0  0  0  0  0  0  0
   -8.6890   -8.1718    2.9256 H   0  0  0  0  0  0  0  0  0  0  0  0
   -8.5770  -10.2330    1.6708 H   0  0  0  0  0  0  0  0  0  0  0  0
   -7.8007   -9.6669    0.1919 H   0  0  0  0  0  0  0  0  0  0  0  0
   -9.4092  -10.3787    0.1150 H   0  0  0  0  0  0  0  0  0  0  0  0
  -10.1617   -8.2863   -1.0760 H   0  0  0  0  0  0  0  0  0  0  0  0
  -11.1250   -6.0446   -0.7871 H   0  0  0  0  0  0  0  0  0  0  0  0
  -12.5270   -6.1121    2.8494 H   0  0  0  0  0  0  0  0  0  0  0  0
  -13.5702   -5.5326    4.9917 H   0  0  0  0  0  0  0  0  0  0  0  0
  -12.9902   -2.3220    6.7965 H   0  0  0  0  0  0  0  0  0  0  0  0
  -14.5073   -2.9322    6.1334 H   0  0  0  0  0  0  0  0  0  0  0  0
  -13.4488   -4.0172    7.0266 H   0  0  0  0  0  0  0  0  0  0  0  0
  -11.8097   -1.6511    4.8081 H   0  0  0  0  0  0  0  0  0  0  0  0
  -10.7377   -2.2337    2.6806 H   0  0  0  0  0  0  0  0  0  0  0  0
  -13.2352   -3.2508    1.2655 H   0  0  0  0  0  0  0  0  0  0  0  0
  -14.4804    2.4815   -0.9387 H   0  0  0  0  0  0  0  0  0  0  0  0
  -16.0152    4.4203   -0.8486 H   0  0  0  0  0  0  0  0  0  0  0  0
  -18.1073    5.4662   -0.0164 H   0  0  0  0  0  0  0  0  0  0  0  0
  -19.0575    1.9176    2.1541 H   0  0  0  0  0  0  0  0  0  0  0  0
  -17.5668   -0.0141    2.0787 H   0  0  0  0  0  0  0  0  0  0  0  0
  1  2  2  0  0  0  0
  2  3  1  0  0  0  0
  3  4  2  0  0  0  0
  3  5  1  0  0  0  0
  5  6  2  0  0  0  0
  6  7  1  0  0  0  0
  7  8  2  0  0  0  0
  8  9  1  0  0  0  0
  8 10  1  0  0  0  0
 10 11  2  0  0  0  0
 11 12  1  0  0  0  0
 12 13  2  0  0  0  0
 13 14  1  0  0  0  0
 14 15  3  0  0  0  0
 13 16  1  0  0  0  0
 16 17  3  0  0  0  0
  1 18  1  0  0  0  0
 18 19  2  0  0  0  0
 19 20  1  0  0  0  0
 20 21  1  0  0  0  0
 21 22  2  0  0  0  0
 22 23  1  0  0  0  0
 23 24  2  0  0  0  0
 24 25  1  0  0  0  0
 24 26  1  0  0  0  0
 26 27  2  0  0  0  0
 20 28  1  0  0  0  0
 28 29  2  0  0  0  0
 29 30  1  0  0  0  0
 30 31  2  0  0  0  0
 31 32  1  0  0  0  0
 31 33  1  0  0  0  0
 33 34  2  0  0  0  0
 19 35  1  0  0  0  0
 35 36  1  0  0  0  0
 36 37  1  0  0  0  0
 37 38  2  0  0  0  0
 38 39  1  0  0  0  0
 39 40  1  0  0  0  0
 40 41  2  0  0  0  0
 41 42  1  0  0  0  0
 42 43  2  0  0  0  0
 43 44  1  0  0  0  0
 43 45  1  0  0  0  0
 45 46  2  0  0  0  0
 39 47  1  0  0  0  0
 47 48  2  0  0  0  0
 48 49  1  0  0  0  0
 49 50  2  0  0  0  0
 50 51  1  0  0  0  0
 50 52  1  0  0  0  0
 52 53  2  0  0  0  0
 38 54  1  0  0  0  0
 54 55  1  0  0  0  0
 37 56  1  0  0  0  0
 56 57  1  0  0  0  0
 57 58  1  0  0  0  0
 58 59  1  0  0  0  0
 59 60  1  0  0  0  0
 60 61  1  0  0  0  0
 61 62  1  0  0  0  0
 62 63  2  0  0  0  0
 63 64  1  0  0  0  0
 64 65  1  0  0  0  0
 65 66  1  0  0  0  0
 66 67  2  0  0  0  0
 67 68  1  0  0  0  0
 68 69  2  0  0  0  0
 69 70  1  0  0  0  0
 70 71  1  0  0  0  0
 69 72  1  0  0  0  0
 72 73  2  0  0  0  0
 65 74  1  0  0  0  0
 74 75  2  0  0  0  0
 75 76  1  0  0  0  0
 76 77  2  0  0  0  0
 77 78  1  0  0  0  0
 78 79  1  0  0  0  0
 77 80  1  0  0  0  0
 80 81  2  0  0  0  0
 65 82  1  0  0  0  0
 82 83  2  0  0  0  0
 83 84  1  0  0  0  0
 84 85  1  0  0  0  0
 85 86  2  0  0  0  0
 86 87  1  0  0  0  0
 87 88  1  0  0  0  0
 88 89  2  0  0  0  0
 89 90  1  0  0  0  0
 90 91  2  0  0  0  0
 91 92  1  0  0  0  0
 92 93  1  0  0  0  0
 91 94  1  0  0  0  0
 94 95  2  0  0  0  0
 87 96  1  0  0  0  0
 96 97  2  0  0  0  0
 97 98  1  0  0  0  0
 98 99  2  0  0  0  0
 99100  1  0  0  0  0
100101  1  0  0  0  0
 99102  1  0  0  0  0
102103  2  0  0  0  0
 87104  1  0  0  0  0
104105  1  0  0  0  0
105106  1  0  0  0  0
106107  1  0  0  0  0
107108  1  0  0  0  0
106109  1  0  0  0  0
109110  1  0  0  0  0
 83111  1  0  0  0  0
111112  1  0  0  0  0
112113  1  0  0  0  0
113114  2  0  0  0  0
114115  1  0  0  0  0
115116  1  0  0  0  0
114117  1  0  0  0  0
117118  2  0  0  0  0
118119  1  0  0  0  0
119120  1  0  0  0  0
120121  2  0  0  0  0
121122  1  0  0  0  0
122123  2  0  0  0  0
123124  1  0  0  0  0
123125  1  0  0  0  0
125126  2  0  0  0  0
119127  1  0  0  0  0
127128  2  0  0  0  0
128129  1  0  0  0  0
129130  2  0  0  0  0
130131  1  0  0  0  0
130132  1  0  0  0  0
132133  2  0  0  0  0
118134  1  0  0  0  0
134135  1  0  0  0  0
135136  1  0  0  0  0
136137  2  0  0  0  0
137138  1  0  0  0  0
138139  1  0  0  0  0
139140  2  0  0  0  0
140141  1  0  0  0  0
141142  2  0  0  0  0
142143  1  0  0  0  0
142144  1  0  0  0  0
144145  2  0  0  0  0
138146  1  0  0  0  0
146147  2  0  0  0  0
147148  1  0  0  0  0
148149  2  0  0  0  0
149150  1  0  0  0  0
149151  1  0  0  0  0
151152  2  0  0  0  0
137153  1  0  0  0  0
153154  1  0  0  0  0
136155  1  0  0  0  0
155156  2  0  0  0  0
156157  1  0  0  0  0
157158  2  0  0  0  0
157159  1  0  0  0  0
159160  2  0  0  0  0
160161  1  0  0  0  0
161162  2  0  0  0  0
162163  1  0  0  0  0
163164  2  0  0  0  0
164165  1  0  0  0  0
164166  1  0  0  0  0
166167  2  0  0  0  0
167168  1  0  0  0  0
168169  2  0  0  0  0
169170  1  0  0  0  0
170171  2  0  0  0  0
171172  1  0  0  0  0
172173  3  0  0  0  0
171174  1  0  0  0  0
174175  3  0  0  0  0
 12  2  1  0  0  0  0
 55 18  1  0  0  0  0
108 56  2  0  0  0  0
116112  2  0  0  0  0
154117  1  0  0  0  0
170156  1  0  0  0  0
 11  5  1  0  0  0  0
 27 21  1  0  0  0  0
 34 28  1  0  0  0  0
 54 35  2  0  0  0  0
107 58  2  0  0  0  0
126120  1  0  0  0  0
133127  1  0  0  0  0
153134  2  0  0  0  0
169159  1  0  0  0  0
 46 40  1  0  0  0  0
 53 47  1  0  0  0  0
105 59  2  0  0  0  0
145139  1  0  0  0  0
152146  1  0  0  0  0
167161  1  0  0  0  0
104 61  2  0  0  0  0
 86 62  1  0  0  0  0
 95 88  1  0  0  0  0
103 96  1  0  0  0  0
 84 64  2  0  0  0  0
 73 66  1  0  0  0  0
 81 74  1  0  0  0  0
116 82  1  0  0  0  0
  1176  1  0  0  0  0
  6177  1  0  0  0  0
  7178  1  0  0  0  0
 10179  1  0  0  0  0
 22180  1  0  0  0  0
 23181  1  0  0  0  0
 25182  1  0  0  0  0
 25183  1  0  0  0  0
 25184  1  0  0  0  0
 26185  1  0  0  0  0
 27186  1  0  0  0  0
 29187  1  0  0  0  0
 30188  1  0  0  0  0
 32189  1  0  0  0  0
 32190  1  0  0  0  0
 32191  1  0  0  0  0
 33192  1  0  0  0  0
 34193  1  0  0  0  0
 41194  1  0  0  0  0
 42195  1  0  0  0  0
 44196  1  0  0  0  0
 44197  1  0  0  0  0
 44198  1  0  0  0  0
 45199  1  0  0  0  0
 46200  1  0  0  0  0
 48201  1  0  0  0  0
 49202  1  0  0  0  0
 51203  1  0  0  0  0
 51204  1  0  0  0  0
 51205  1  0  0  0  0
 52206  1  0  0  0  0
 53207  1  0  0  0  0
 63208  1  0  0  0  0
 67209  1  0  0  0  0
 68210  1  0  0  0  0
 70211  1  0  0  0  0
 70212  1  0  0  0  0
 71213  1  0  0  0  0
 71214  1  0  0  0  0
 71215  1  0  0  0  0
 72216  1  0  0  0  0
 73217  1  0  0  0  0
 75218  1  0  0  0  0
 76219  1  0  0  0  0
 78220  1  0  0  0  0
 78221  1  0  0  0  0
 79222  1  0  0  0  0
 79223  1  0  0  0  0
 79224  1  0  0  0  0
 80225  1  0  0  0  0
 81226  1  0  0  0  0
 85227  1  0  0  0  0
 89228  1  0  0  0  0
 90229  1  0  0  0  0
 92230  1  0  0  0  0
 92231  1  0  0  0  0
 93232  1  0  0  0  0
 93233  1  0  0  0  0
 93234  1  0  0  0  0
 94235  1  0  0  0  0
 95236  1  0  0  0  0
 97237  1  0  0  0  0
 98238  1  0  0  0  0
100239  1  0  0  0  0
100240  1  0  0  0  0
101241  1  0  0  0  0
101242  1  0  0  0  0
101243  1  0  0  0  0
102244  1  0  0  0  0
103245  1  0  0  0  0
108246  1  0  0  0  0
109247  1  0  0  0  0
109248  1  0  0  0  0
110249  1  0  0  0  0
110250  1  0  0  0  0
110251  1  0  0  0  0
113252  1  0  0  0  0
121253  1  0  0  0  0
122254  1  0  0  0  0
124255  1  0  0  0  0
124256  1  0  0  0  0
124257  1  0  0  0  0
125258  1  0  0  0  0
126259  1  0  0  0  0
128260  1  0  0  0  0
129261  1  0  0  0  0
131262  1  0  0  0  0
131263  1  0  0  0  0
131264  1  0  0  0  0
132265  1  0  0  0  0
133266  1  0  0  0  0
140267  1  0  0  0  0
141268  1  0  0  0  0
143269  1  0  0  0  0
143270  1  0  0  0  0
143271  1  0  0  0  0
144272  1  0  0  0  0
145273  1  0  0  0  0
147274  1  0  0  0  0
148275  1  0  0  0  0
150276  1  0  0  0  0
150277  1  0  0  0  0
150278  1  0  0  0  0
151279  1  0  0  0  0
152280  1  0  0  0  0
155281  1  0  0  0  0
160282  1  0  0  0  0
162283  1  0  0  0  0
163284  1  0  0  0  0
166285  1  0  0  0  0
168286  1  0  0  0  0
M  END
