
  xtb     02072208393D
 energy: -382.071862544230 gnorm: 0.000375819522 xtb: 6.4.1 (unknown)
235258  0     0  0            999 V2000
    5.1468    0.6413  -11.6326 C   0  0  0  0  0  0  0  0  0  0  0  0
    5.6132    1.6569  -12.4505 C   0  0  0  0  0  0  0  0  0  0  0  0
    5.5201    3.0808  -12.1089 C   0  0  0  0  0  0  0  0  0  0  0  0
    5.0088    3.5791  -11.1225 O   0  0  0  0  0  0  0  0  0  0  0  0
    6.2974    3.7879  -13.1528 C   0  0  0  0  0  0  0  0  0  0  0  0
    6.5336    5.1394  -13.2941 C   0  0  0  0  0  0  0  0  0  0  0  0
    7.2852    5.5711  -14.3779 C   0  0  0  0  0  0  0  0  0  0  0  0
    7.7848    4.6411  -15.2762 C   0  0  0  0  0  0  0  0  0  0  0  0
    8.8113    5.2562  -16.7552 Br  0  0  0  0  0  0  0  0  0  0  0  0
    7.5654    3.2744  -15.1424 C   0  0  0  0  0  0  0  0  0  0  0  0
    6.8083    2.8509  -14.0661 C   0  0  0  0  0  0  0  0  0  0  0  0
    6.3738    1.5147  -13.6536 C   0  0  0  0  0  0  0  0  0  0  0  0
    6.5230    0.3586  -14.3830 C   0  0  0  0  0  0  0  0  0  0  0  0
    5.9562   -0.8766  -14.0143 C   0  0  0  0  0  0  0  0  0  0  0  0
    5.4942   -1.9046  -13.7905 N   0  0  0  0  0  0  0  0  0  0  0  0
    7.1829    0.2888  -15.6223 C   0  0  0  0  0  0  0  0  0  0  0  0
    7.6954    0.1837  -16.6455 N   0  0  0  0  0  0  0  0  0  0  0  0
    4.1002    0.7429  -10.7229 C   0  0  0  0  0  0  0  0  0  0  0  0
    2.9992    1.6311  -10.6530 C   0  0  0  0  0  0  0  0  0  0  0  0
    2.6045    2.5253  -11.6040 N   0  0  0  0  0  0  0  0  0  0  0  0
    1.8401    3.6493  -11.2194 C   0  0  0  0  0  0  0  0  0  0  0  0
    2.2157    4.4109  -10.1167 C   0  0  0  0  0  0  0  0  0  0  0  0
    1.4866    5.5308   -9.7756 C   0  0  0  0  0  0  0  0  0  0  0  0
    0.3801    5.9238  -10.5213 C   0  0  0  0  0  0  0  0  0  0  0  0
   -0.3582    7.1762  -10.1652 C   0  0  0  0  0  0  0  0  0  0  0  0
    0.0104    5.1502  -11.6133 C   0  0  0  0  0  0  0  0  0  0  0  0
    0.7258    4.0208  -11.9625 C   0  0  0  0  0  0  0  0  0  0  0  0
    2.9247    2.3836  -12.9613 C   0  0  0  0  0  0  0  0  0  0  0  0
    2.9177    1.1329  -13.5782 C   0  0  0  0  0  0  0  0  0  0  0  0
    3.2718    1.0116  -14.9051 C   0  0  0  0  0  0  0  0  0  0  0  0
    3.6401    2.1235  -15.6596 C   0  0  0  0  0  0  0  0  0  0  0  0
    4.0742    1.9654  -17.0824 C   0  0  0  0  0  0  0  0  0  0  0  0
    3.6030    3.3704  -15.0497 C   0  0  0  0  0  0  0  0  0  0  0  0
    3.2492    3.5065  -13.7203 C   0  0  0  0  0  0  0  0  0  0  0  0
    2.2462    1.3847   -9.4856 C   0  0  0  0  0  0  0  0  0  0  0  0
    0.8160    2.0879   -8.8046 S   0  0  0  0  0  0  0  0  0  0  0  0
    0.8176    0.9126   -7.4943 C   0  0  0  0  0  0  0  0  0  0  0  0
    1.9176    0.0573   -7.5677 C   0  0  0  0  0  0  0  0  0  0  0  0
    2.2574   -0.9594   -6.6700 N   0  0  0  0  0  0  0  0  0  0  0  0
    2.6167   -0.6628   -5.3537 C   0  0  0  0  0  0  0  0  0  0  0  0
    2.5483   -1.6519   -4.3716 C   0  0  0  0  0  0  0  0  0  0  0  0
    2.8224   -1.3468   -3.0544 C   0  0  0  0  0  0  0  0  0  0  0  0
    3.1642   -0.0563   -2.6697 C   0  0  0  0  0  0  0  0  0  0  0  0
    3.4296    0.2860   -1.2349 C   0  0  0  0  0  0  0  0  0  0  0  0
    3.2429    0.9216   -3.6542 C   0  0  0  0  0  0  0  0  0  0  0  0
    2.9802    0.6295   -4.9771 C   0  0  0  0  0  0  0  0  0  0  0  0
    2.5911   -2.1939   -7.2574 C   0  0  0  0  0  0  0  0  0  0  0  0
    3.7295   -2.9023   -6.8862 C   0  0  0  0  0  0  0  0  0  0  0  0
    4.0351   -4.0960   -7.5099 C   0  0  0  0  0  0  0  0  0  0  0  0
    3.2320   -4.6077   -8.5213 C   0  0  0  0  0  0  0  0  0  0  0  0
    3.5886   -5.8810   -9.2239 C   0  0  0  0  0  0  0  0  0  0  0  0
    2.0991   -3.8909   -8.8888 C   0  0  0  0  0  0  0  0  0  0  0  0
    1.7762   -2.7029   -8.2660 C   0  0  0  0  0  0  0  0  0  0  0  0
    2.6903    0.3170   -8.7186 C   0  0  0  0  0  0  0  0  0  0  0  0
    4.0716   -0.4473   -9.4080 S   0  0  0  0  0  0  0  0  0  0  0  0
   -0.2112    0.9472   -6.5166 C   0  0  0  0  0  0  0  0  0  0  0  0
   -1.2861    1.8219   -6.4041 C   0  0  0  0  0  0  0  0  0  0  0  0
   -1.7156    2.8232   -7.3872 C   0  0  0  0  0  0  0  0  0  0  0  0
   -1.8524    4.1553   -7.0131 C   0  0  0  0  0  0  0  0  0  0  0  0
   -2.3294    5.0780   -7.9242 C   0  0  0  0  0  0  0  0  0  0  0  0
   -2.6667    4.6845   -9.2069 C   0  0  0  0  0  0  0  0  0  0  0  0
   -2.5400    3.3578   -9.5956 C   0  0  0  0  0  0  0  0  0  0  0  0
   -2.9475    2.9105  -10.9695 C   0  0  0  0  0  0  0  0  0  0  0  0
   -4.3764    2.3643  -10.9570 C   0  0  0  0  0  0  0  0  0  0  0  0
   -2.0783    2.4331   -8.6720 C   0  0  0  0  0  0  0  0  0  0  0  0
   -1.9875    1.6240   -5.2023 C   0  0  0  0  0  0  0  0  0  0  0  0
   -3.3378    2.4545   -4.4593 S   0  0  0  0  0  0  0  0  0  0  0  0
   -3.1738    1.4296   -3.0689 C   0  0  0  0  0  0  0  0  0  0  0  0
   -3.7257    1.2613   -1.7883 C   0  0  0  0  0  0  0  0  0  0  0  0
   -4.8311    1.8779   -1.1632 C   0  0  0  0  0  0  0  0  0  0  0  0
   -5.1992    1.4663    0.1613 C   0  0  0  0  0  0  0  0  0  0  0  0
   -6.2748    2.0966    0.6066 N   0  0  0  0  0  0  0  0  0  0  0  0
   -6.7791    3.1224   -0.5402 S   0  0  0  0  0  0  0  0  0  0  0  0
   -5.6438    2.8027   -1.6499 N   0  0  0  0  0  0  0  0  0  0  0  0
   -4.3833    0.5337    0.8376 C   0  0  0  0  0  0  0  0  0  0  0  0
   -4.4035    0.0880    2.1695 C   0  0  0  0  0  0  0  0  0  0  0  0
   -5.3307    0.3050    3.6163 S   0  0  0  0  0  0  0  0  0  0  0  0
   -4.1701   -0.6751    4.4808 C   0  0  0  0  0  0  0  0  0  0  0  0
   -4.0760   -1.0826    5.8298 C   0  0  0  0  0  0  0  0  0  0  0  0
   -5.0921   -0.7873    6.8399 C   0  0  0  0  0  0  0  0  0  0  0  0
   -5.6239    0.4934    6.9506 C   0  0  0  0  0  0  0  0  0  0  0  0
   -6.6203    0.7474    7.8739 C   0  0  0  0  0  0  0  0  0  0  0  0
   -7.0981   -0.2678    8.6830 C   0  0  0  0  0  0  0  0  0  0  0  0
   -6.5792   -1.5537    8.5849 C   0  0  0  0  0  0  0  0  0  0  0  0
   -7.1273   -2.6649    9.4346 C   0  0  0  0  0  0  0  0  0  0  0  0
   -8.3681   -3.2755    8.7806 C   0  0  0  0  0  0  0  0  0  0  0  0
   -5.5790   -1.8020    7.6579 C   0  0  0  0  0  0  0  0  0  0  0  0
   -2.9499   -1.8532    6.0363 C   0  0  0  0  0  0  0  0  0  0  0  0
   -2.0233   -2.1152    4.5699 S   0  0  0  0  0  0  0  0  0  0  0  0
   -3.1401   -1.1501    3.6693 C   0  0  0  0  0  0  0  0  0  0  0  0
   -3.2754   -0.7148    2.3445 C   0  0  0  0  0  0  0  0  0  0  0  0
   -2.5799   -0.8150    1.1704 N   0  0  0  0  0  0  0  0  0  0  0  0
   -3.2412   -0.0509    0.2214 C   0  0  0  0  0  0  0  0  0  0  0  0
   -2.9752    0.2358   -1.1435 C   0  0  0  0  0  0  0  0  0  0  0  0
   -2.0298   -0.2388   -2.0391 N   0  0  0  0  0  0  0  0  0  0  0  0
   -2.1522    0.4864   -3.1921 C   0  0  0  0  0  0  0  0  0  0  0  0
   -1.4853    0.5856   -4.4163 C   0  0  0  0  0  0  0  0  0  0  0  0
   -0.1491   -0.1888   -5.1740 S   0  0  0  0  0  0  0  0  0  0  0  0
   -1.2954   -1.4844   -2.0621 C   0  0  0  0  0  0  0  0  0  0  0  0
   -2.2267   -2.6866   -1.9309 C   0  0  0  0  0  0  0  0  0  0  0  0
   -1.2231   -1.3117    1.1907 C   0  0  0  0  0  0  0  0  0  0  0  0
   -0.2073   -0.1847    1.0177 C   0  0  0  0  0  0  0  0  0  0  0  0
   -2.3842   -2.3410    7.2553 C   0  0  0  0  0  0  0  0  0  0  0  0
   -1.4420   -3.3190    7.4307 C   0  0  0  0  0  0  0  0  0  0  0  0
   -1.1424   -3.3512    8.8179 C   0  0  0  0  0  0  0  0  0  0  0  0
   -0.2616   -4.1254    9.5875 C   0  0  0  0  0  0  0  0  0  0  0  0
    0.6209   -5.1438    9.0131 C   0  0  0  0  0  0  0  0  0  0  0  0
    1.3167   -4.9011    7.8306 C   0  0  0  0  0  0  0  0  0  0  0  0
    2.1401   -5.8685    7.2895 C   0  0  0  0  0  0  0  0  0  0  0  0
    2.2933   -7.1037    7.9068 C   0  0  0  0  0  0  0  0  0  0  0  0
    3.2177   -8.1391    7.3339 C   0  0  0  0  0  0  0  0  0  0  0  0
    4.6332   -7.9564    7.8854 C   0  0  0  0  0  0  0  0  0  0  0  0
    1.6109   -7.3381    9.0942 C   0  0  0  0  0  0  0  0  0  0  0  0
    0.7887   -6.3745    9.6437 C   0  0  0  0  0  0  0  0  0  0  0  0
   -0.2892   -3.8279   10.9442 C   0  0  0  0  0  0  0  0  0  0  0  0
   -1.0899   -2.8043   11.5202 C   0  0  0  0  0  0  0  0  0  0  0  0
   -1.9589   -2.0151   10.7450 C   0  0  0  0  0  0  0  0  0  0  0  0
   -2.7459   -0.9105   11.2931 C   0  0  0  0  0  0  0  0  0  0  0  0
   -2.2030   -0.0482   12.2446 C   0  0  0  0  0  0  0  0  0  0  0  0
   -2.9451    1.0059   12.7393 C   0  0  0  0  0  0  0  0  0  0  0  0
   -4.2451    1.2320   12.3043 C   0  0  0  0  0  0  0  0  0  0  0  0
   -5.0341    2.4080   12.8027 C   0  0  0  0  0  0  0  0  0  0  0  0
   -4.8673    3.5992   11.8568 C   0  0  0  0  0  0  0  0  0  0  0  0
   -4.7808    0.3759   11.3501 C   0  0  0  0  0  0  0  0  0  0  0  0
   -4.0455   -0.6783   10.8487 C   0  0  0  0  0  0  0  0  0  0  0  0
   -1.9710   -2.3524    9.3991 C   0  0  0  0  0  0  0  0  0  0  0  0
   -2.7163   -1.7522    8.4360 O   0  0  0  0  0  0  0  0  0  0  0  0
   -0.7970   -2.8356   12.9055 C   0  0  0  0  0  0  0  0  0  0  0  0
    0.1511   -3.8112   13.0944 C   0  0  0  0  0  0  0  0  0  0  0  0
    0.4540   -4.4219   11.9010 O   0  0  0  0  0  0  0  0  0  0  0  0
    0.8993   -4.3097   14.1996 C   0  0  0  0  0  0  0  0  0  0  0  0
    1.0093   -3.9129   15.4888 C   0  0  0  0  0  0  0  0  0  0  0  0
    0.2414   -2.8298   16.1054 C   0  0  0  0  0  0  0  0  0  0  0  0
   -0.8243   -2.4182   15.6998 O   0  0  0  0  0  0  0  0  0  0  0  0
    0.7723   -2.2714   17.2792 N   0  0  0  0  0  0  0  0  0  0  0  0
   -0.0420   -1.2553   17.9430 C   0  0  0  0  0  0  0  0  0  0  0  0
    0.2132    0.1232   17.3482 C   0  0  0  0  0  0  0  0  0  0  0  0
    2.0054   -2.5259   17.8151 C   0  0  0  0  0  0  0  0  0  0  0  0
    2.3982   -2.0089   18.8318 O   0  0  0  0  0  0  0  0  0  0  0  0
    2.8673   -3.5104   17.0265 C   0  0  0  0  0  0  0  0  0  0  0  0
    3.5449   -2.7537   15.9999 C   0  0  0  0  0  0  0  0  0  0  0  0
    4.0572   -2.1528   15.1741 N   0  0  0  0  0  0  0  0  0  0  0  0
    2.0004   -4.6053   16.3906 C   0  0  0  0  0  0  0  0  0  0  0  0
    1.3062   -5.4472   17.4633 C   0  0  0  0  0  0  0  0  0  0  0  0
    5.6603   -0.3127  -11.6547 H   0  0  0  0  0  0  0  0  0  0  0  0
    6.1336    5.8408  -12.5783 H   0  0  0  0  0  0  0  0  0  0  0  0
    7.4834    6.6214  -14.5262 H   0  0  0  0  0  0  0  0  0  0  0  0
    7.9825    2.5859  -15.8595 H   0  0  0  0  0  0  0  0  0  0  0  0
    3.1028    4.1380   -9.5672 H   0  0  0  0  0  0  0  0  0  0  0  0
    1.7915    6.1247   -8.9265 H   0  0  0  0  0  0  0  0  0  0  0  0
    0.2747    8.0457  -10.3431 H   0  0  0  0  0  0  0  0  0  0  0  0
   -1.2609    7.2824  -10.7604 H   0  0  0  0  0  0  0  0  0  0  0  0
   -0.6276    7.1709   -9.1113 H   0  0  0  0  0  0  0  0  0  0  0  0
   -0.8450    5.4377  -12.2069 H   0  0  0  0  0  0  0  0  0  0  0  0
    0.4311    3.4289  -12.8169 H   0  0  0  0  0  0  0  0  0  0  0  0
    2.6384    0.2556  -13.0142 H   0  0  0  0  0  0  0  0  0  0  0  0
    3.2696    0.0341  -15.3649 H   0  0  0  0  0  0  0  0  0  0  0  0
    5.0771    1.5388  -17.1251 H   0  0  0  0  0  0  0  0  0  0  0  0
    4.0904    2.9239  -17.5946 H   0  0  0  0  0  0  0  0  0  0  0  0
    3.4083    1.2895  -17.6151 H   0  0  0  0  0  0  0  0  0  0  0  0
    3.8681    4.2508  -15.6172 H   0  0  0  0  0  0  0  0  0  0  0  0
    3.2338    4.4819  -13.2578 H   0  0  0  0  0  0  0  0  0  0  0  0
    2.2553   -2.6534   -4.6480 H   0  0  0  0  0  0  0  0  0  0  0  0
    2.7569   -2.1270   -2.3091 H   0  0  0  0  0  0  0  0  0  0  0  0
    4.3924    0.7838   -1.1320 H   0  0  0  0  0  0  0  0  0  0  0  0
    3.4337   -0.6080   -0.6160 H   0  0  0  0  0  0  0  0  0  0  0  0
    2.6642    0.9653   -0.8589 H   0  0  0  0  0  0  0  0  0  0  0  0
    3.5163    1.9304   -3.3797 H   0  0  0  0  0  0  0  0  0  0  0  0
    3.0480    1.4059   -5.7251 H   0  0  0  0  0  0  0  0  0  0  0  0
    4.3796   -2.5079   -6.1197 H   0  0  0  0  0  0  0  0  0  0  0  0
    4.9253   -4.6321   -7.2139 H   0  0  0  0  0  0  0  0  0  0  0  0
    2.6976   -6.4667   -9.4407 H   0  0  0  0  0  0  0  0  0  0  0  0
    4.2688   -6.4804   -8.6240 H   0  0  0  0  0  0  0  0  0  0  0  0
    4.0791   -5.6556  -10.1712 H   0  0  0  0  0  0  0  0  0  0  0  0
    1.4605   -4.2705   -9.6733 H   0  0  0  0  0  0  0  0  0  0  0  0
    0.8904   -2.1568   -8.5577 H   0  0  0  0  0  0  0  0  0  0  0  0
   -1.5833    4.4606   -6.0131 H   0  0  0  0  0  0  0  0  0  0  0  0
   -2.4479    6.1099   -7.6272 H   0  0  0  0  0  0  0  0  0  0  0  0
   -3.0415    5.4118   -9.9118 H   0  0  0  0  0  0  0  0  0  0  0  0
   -2.2647    2.1329  -11.3184 H   0  0  0  0  0  0  0  0  0  0  0  0
   -2.8885    3.7506  -11.6633 H   0  0  0  0  0  0  0  0  0  0  0  0
   -4.4528    1.5178  -10.2785 H   0  0  0  0  0  0  0  0  0  0  0  0
   -5.0710    3.1319  -10.6233 H   0  0  0  0  0  0  0  0  0  0  0  0
   -4.6690    2.0393  -11.9528 H   0  0  0  0  0  0  0  0  0  0  0  0
   -2.0049    1.3909   -8.9497 H   0  0  0  0  0  0  0  0  0  0  0  0
   -5.2486    1.2870    6.3224 H   0  0  0  0  0  0  0  0  0  0  0  0
   -7.0290    1.7436    7.9599 H   0  0  0  0  0  0  0  0  0  0  0  0
   -7.8847   -0.0656    9.3965 H   0  0  0  0  0  0  0  0  0  0  0  0
   -6.3702   -3.4411    9.5657 H   0  0  0  0  0  0  0  0  0  0  0  0
   -7.3921   -2.2790   10.4214 H   0  0  0  0  0  0  0  0  0  0  0  0
   -9.1405   -2.5203    8.6536 H   0  0  0  0  0  0  0  0  0  0  0  0
   -8.1199   -3.6773    7.8005 H   0  0  0  0  0  0  0  0  0  0  0  0
   -8.7658   -4.0796    9.3954 H   0  0  0  0  0  0  0  0  0  0  0  0
   -5.1803   -2.8022    7.5571 H   0  0  0  0  0  0  0  0  0  0  0  0
   -0.5174   -1.4910   -1.2982 H   0  0  0  0  0  0  0  0  0  0  0  0
   -0.7864   -1.5250   -3.0285 H   0  0  0  0  0  0  0  0  0  0  0  0
   -2.9249   -2.7073   -2.7644 H   0  0  0  0  0  0  0  0  0  0  0  0
   -2.8023   -2.6412   -1.0093 H   0  0  0  0  0  0  0  0  0  0  0  0
   -1.6482   -3.6065   -1.9411 H   0  0  0  0  0  0  0  0  0  0  0  0
   -1.0890   -2.0929    0.4423 H   0  0  0  0  0  0  0  0  0  0  0  0
   -1.0790   -1.7768    2.1691 H   0  0  0  0  0  0  0  0  0  0  0  0
   -0.2960    0.5218    1.8397 H   0  0  0  0  0  0  0  0  0  0  0  0
    0.8007   -0.5909    1.0178 H   0  0  0  0  0  0  0  0  0  0  0  0
   -0.3706    0.3543    0.0875 H   0  0  0  0  0  0  0  0  0  0  0  0
   -1.0361   -3.9441    6.6619 H   0  0  0  0  0  0  0  0  0  0  0  0
    1.2306   -3.9380    7.3501 H   0  0  0  0  0  0  0  0  0  0  0  0
    2.6743   -5.6626    6.3723 H   0  0  0  0  0  0  0  0  0  0  0  0
    2.8585   -9.1382    7.5893 H   0  0  0  0  0  0  0  0  0  0  0  0
    3.2421   -8.0526    6.2456 H   0  0  0  0  0  0  0  0  0  0  0  0
    5.0158   -6.9716    7.6266 H   0  0  0  0  0  0  0  0  0  0  0  0
    5.3026   -8.7088    7.4746 H   0  0  0  0  0  0  0  0  0  0  0  0
    4.6309   -8.0471    8.9692 H   0  0  0  0  0  0  0  0  0  0  0  0
    1.7224   -8.2916    9.5912 H   0  0  0  0  0  0  0  0  0  0  0  0
    0.2571   -6.5782   10.5608 H   0  0  0  0  0  0  0  0  0  0  0  0
   -1.1841   -0.1875   12.5727 H   0  0  0  0  0  0  0  0  0  0  0  0
   -2.5067    1.6678   13.4730 H   0  0  0  0  0  0  0  0  0  0  0  0
   -4.6934    2.6893   13.8011 H   0  0  0  0  0  0  0  0  0  0  0  0
   -6.0921    2.1441   12.8636 H   0  0  0  0  0  0  0  0  0  0  0  0
   -3.8211    3.8909   11.7981 H   0  0  0  0  0  0  0  0  0  0  0  0
   -5.4465    4.4501   12.2083 H   0  0  0  0  0  0  0  0  0  0  0  0
   -5.2044    3.3362   10.8565 H   0  0  0  0  0  0  0  0  0  0  0  0
   -5.7870    0.5370   10.9905 H   0  0  0  0  0  0  0  0  0  0  0  0
   -4.4839   -1.3328   10.1128 H   0  0  0  0  0  0  0  0  0  0  0  0
   -1.2479   -2.2434   13.6719 H   0  0  0  0  0  0  0  0  0  0  0  0
    1.5386   -5.1326   13.8954 H   0  0  0  0  0  0  0  0  0  0  0  0
   -1.0884   -1.5366   17.8122 H   0  0  0  0  0  0  0  0  0  0  0  0
    0.2219   -1.2695   19.0018 H   0  0  0  0  0  0  0  0  0  0  0  0
    1.2616    0.3921   17.4563 H   0  0  0  0  0  0  0  0  0  0  0  0
   -0.3931    0.8618   17.8649 H   0  0  0  0  0  0  0  0  0  0  0  0
   -0.0489    0.1295   16.2930 H   0  0  0  0  0  0  0  0  0  0  0  0
    3.6168   -3.9246   17.7098 H   0  0  0  0  0  0  0  0  0  0  0  0
    2.6413   -5.2616   15.7924 H   0  0  0  0  0  0  0  0  0  0  0  0
    2.0433   -5.9358   18.0970 H   0  0  0  0  0  0  0  0  0  0  0  0
    0.6950   -6.2118   16.9897 H   0  0  0  0  0  0  0  0  0  0  0  0
    0.6628   -4.8352   18.0915 H   0  0  0  0  0  0  0  0  0  0  0  0
  1  2  2  0  0  0  0
  2  3  1  0  0  0  0
  3  4  2  0  0  0  0
  3  5  1  0  0  0  0
  5  6  2  0  0  0  0
  6  7  1  0  0  0  0
  7  8  2  0  0  0  0
  8  9  1  0  0  0  0
  8 10  1  0  0  0  0
 10 11  2  0  0  0  0
 11 12  1  0  0  0  0
 12 13  2  0  0  0  0
 13 14  1  0  0  0  0
 14 15  3  0  0  0  0
 13 16  1  0  0  0  0
 16 17  3  0  0  0  0
  1 18  1  0  0  0  0
 18 19  2  0  0  0  0
 19 20  1  0  0  0  0
 20 21  1  0  0  0  0
 21 22  2  0  0  0  0
 22 23  1  0  0  0  0
 23 24  2  0  0  0  0
 24 25  1  0  0  0  0
 24 26  1  0  0  0  0
 26 27  2  0  0  0  0
 20 28  1  0  0  0  0
 28 29  2  0  0  0  0
 29 30  1  0  0  0  0
 30 31  2  0  0  0  0
 31 32  1  0  0  0  0
 31 33  1  0  0  0  0
 33 34  2  0  0  0  0
 19 35  1  0  0  0  0
 35 36  1  0  0  0  0
 36 37  1  0  0  0  0
 37 38  2  0  0  0  0
 38 39  1  0  0  0  0
 39 40  1  0  0  0  0
 40 41  2  0  0  0  0
 41 42  1  0  0  0  0
 42 43  2  0  0  0  0
 43 44  1  0  0  0  0
 43 45  1  0  0  0  0
 45 46  2  0  0  0  0
 39 47  1  0  0  0  0
 47 48  2  0  0  0  0
 48 49  1  0  0  0  0
 49 50  2  0  0  0  0
 50 51  1  0  0  0  0
 50 52  1  0  0  0  0
 52 53  2  0  0  0  0
 38 54  1  0  0  0  0
 54 55  1  0  0  0  0
 37 56  1  0  0  0  0
 56 57  2  0  0  0  0
 57 58  1  0  0  0  0
 58 59  2  0  0  0  0
 59 60  1  0  0  0  0
 60 61  2  0  0  0  0
 61 62  1  0  0  0  0
 62 63  1  0  0  0  0
 63 64  1  0  0  0  0
 62 65  2  0  0  0  0
 57 66  1  0  0  0  0
 66 67  1  0  0  0  0
 67 68  1  0  0  0  0
 68 69  1  0  0  0  0
 69 70  1  0  0  0  0
 70 71  1  0  0  0  0
 71 72  2  0  0  0  0
 72 73  1  0  0  0  0
 73 74  1  0  0  0  0
 71 75  1  0  0  0  0
 75 76  1  0  0  0  0
 76 77  1  0  0  0  0
 77 78  1  0  0  0  0
 78 79  1  0  0  0  0
 79 80  1  0  0  0  0
 80 81  2  0  0  0  0
 81 82  1  0  0  0  0
 82 83  2  0  0  0  0
 83 84  1  0  0  0  0
 84 85  1  0  0  0  0
 85 86  1  0  0  0  0
 84 87  2  0  0  0  0
 79 88  2  0  0  0  0
 88 89  1  0  0  0  0
 89 90  1  0  0  0  0
 90 91  1  0  0  0  0
 91 92  1  0  0  0  0
 92 93  1  0  0  0  0
 93 94  1  0  0  0  0
 94 95  1  0  0  0  0
 95 96  1  0  0  0  0
 96 97  1  0  0  0  0
 97 98  1  0  0  0  0
 95 99  1  0  0  0  0
 99100  1  0  0  0  0
 92101  1  0  0  0  0
101102  1  0  0  0  0
 88103  1  0  0  0  0
103104  2  0  0  0  0
104105  1  0  0  0  0
105106  2  0  0  0  0
106107  1  0  0  0  0
107108  2  0  0  0  0
108109  1  0  0  0  0
109110  2  0  0  0  0
110111  1  0  0  0  0
111112  1  0  0  0  0
110113  1  0  0  0  0
113114  2  0  0  0  0
106115  1  0  0  0  0
115116  2  0  0  0  0
116117  1  0  0  0  0
117118  1  0  0  0  0
118119  2  0  0  0  0
119120  1  0  0  0  0
120121  2  0  0  0  0
121122  1  0  0  0  0
122123  1  0  0  0  0
121124  1  0  0  0  0
124125  2  0  0  0  0
117126  2  0  0  0  0
126127  1  0  0  0  0
116128  1  0  0  0  0
128129  2  0  0  0  0
129130  1  0  0  0  0
129131  1  0  0  0  0
131132  2  0  0  0  0
132133  1  0  0  0  0
133134  2  0  0  0  0
133135  1  0  0  0  0
135136  1  0  0  0  0
136137  1  0  0  0  0
135138  1  0  0  0  0
138139  2  0  0  0  0
138140  1  0  0  0  0
140141  1  0  0  0  0
141142  3  0  0  0  0
140143  1  0  0  0  0
143144  1  0  0  0  0
 12  2  1  0  0  0  0
 55 18  1  0  0  0  0
 98 56  1  0  0  0  0
127103  1  0  0  0  0
143132  1  0  0  0  0
 11  5  1  0  0  0  0
 27 21  1  0  0  0  0
 34 28  1  0  0  0  0
 54 35  2  0  0  0  0
 65 58  1  0  0  0  0
 97 66  2  0  0  0  0
126105  1  0  0  0  0
 46 40  1  0  0  0  0
 53 47  1  0  0  0  0
 96 68  2  0  0  0  0
114107  1  0  0  0  0
130115  1  0  0  0  0
 94 69  2  0  0  0  0
125118  1  0  0  0  0
 74 70  2  0  0  0  0
 93 75  2  0  0  0  0
 91 76  2  0  0  0  0
 90 78  2  0  0  0  0
 87 80  1  0  0  0  0
  1145  1  0  0  0  0
  6146  1  0  0  0  0
  7147  1  0  0  0  0
 10148  1  0  0  0  0
 22149  1  0  0  0  0
 23150  1  0  0  0  0
 25151  1  0  0  0  0
 25152  1  0  0  0  0
 25153  1  0  0  0  0
 26154  1  0  0  0  0
 27155  1  0  0  0  0
 29156  1  0  0  0  0
 30157  1  0  0  0  0
 32158  1  0  0  0  0
 32159  1  0  0  0  0
 32160  1  0  0  0  0
 33161  1  0  0  0  0
 34162  1  0  0  0  0
 41163  1  0  0  0  0
 42164  1  0  0  0  0
 44165  1  0  0  0  0
 44166  1  0  0  0  0
 44167  1  0  0  0  0
 45168  1  0  0  0  0
 46169  1  0  0  0  0
 48170  1  0  0  0  0
 49171  1  0  0  0  0
 51172  1  0  0  0  0
 51173  1  0  0  0  0
 51174  1  0  0  0  0
 52175  1  0  0  0  0
 53176  1  0  0  0  0
 59177  1  0  0  0  0
 60178  1  0  0  0  0
 61179  1  0  0  0  0
 63180  1  0  0  0  0
 63181  1  0  0  0  0
 64182  1  0  0  0  0
 64183  1  0  0  0  0
 64184  1  0  0  0  0
 65185  1  0  0  0  0
 81186  1  0  0  0  0
 82187  1  0  0  0  0
 83188  1  0  0  0  0
 85189  1  0  0  0  0
 85190  1  0  0  0  0
 86191  1  0  0  0  0
 86192  1  0  0  0  0
 86193  1  0  0  0  0
 87194  1  0  0  0  0
 99195  1  0  0  0  0
 99196  1  0  0  0  0
100197  1  0  0  0  0
100198  1  0  0  0  0
100199  1  0  0  0  0
101200  1  0  0  0  0
101201  1  0  0  0  0
102202  1  0  0  0  0
102203  1  0  0  0  0
102204  1  0  0  0  0
104205  1  0  0  0  0
108206  1  0  0  0  0
109207  1  0  0  0  0
111208  1  0  0  0  0
111209  1  0  0  0  0
112210  1  0  0  0  0
112211  1  0  0  0  0
112212  1  0  0  0  0
113213  1  0  0  0  0
114214  1  0  0  0  0
119215  1  0  0  0  0
120216  1  0  0  0  0
122217  1  0  0  0  0
122218  1  0  0  0  0
123219  1  0  0  0  0
123220  1  0  0  0  0
123221  1  0  0  0  0
124222  1  0  0  0  0
125223  1  0  0  0  0
128224  1  0  0  0  0
131225  1  0  0  0  0
136226  1  0  0  0  0
136227  1  0  0  0  0
137228  1  0  0  0  0
137229  1  0  0  0  0
137230  1  0  0  0  0
140231  1  0  0  0  0
143232  1  0  0  0  0
144233  1  0  0  0  0
144234  1  0  0  0  0
144235  1  0  0  0  0
M  END
