
  xtb     02072200193D
 energy: -410.013355436249 gnorm: 0.000507638424 xtb: 6.4.1 (unknown)
249274  0     0  0            999 V2000
   -4.5324    5.0108  -11.1275 C   0  0  0  0  0  0  0  0  0  0  0  0
   -5.7718    5.5449  -10.8562 C   0  0  0  0  0  0  0  0  0  0  0  0
   -6.1522    6.8599  -11.4065 C   0  0  0  0  0  0  0  0  0  0  0  0
   -5.6096    7.4748  -12.3004 O   0  0  0  0  0  0  0  0  0  0  0  0
   -7.2976    7.3043  -10.5726 C   0  0  0  0  0  0  0  0  0  0  0  0
   -7.9517    8.5201  -10.5555 C   0  0  0  0  0  0  0  0  0  0  0  0
   -8.9577    8.7205   -9.6202 C   0  0  0  0  0  0  0  0  0  0  0  0
   -9.2813    7.7052   -8.7325 C   0  0  0  0  0  0  0  0  0  0  0  0
  -10.6261    8.0201   -7.4246 Br  0  0  0  0  0  0  0  0  0  0  0  0
   -8.6516    6.4664   -8.7491 C   0  0  0  0  0  0  0  0  0  0  0  0
   -7.6517    6.2733   -9.6836 C   0  0  0  0  0  0  0  0  0  0  0  0
   -6.8091    5.1110   -9.9602 C   0  0  0  0  0  0  0  0  0  0  0  0
   -7.1206    3.8102   -9.6400 C   0  0  0  0  0  0  0  0  0  0  0  0
   -6.4270    2.7134  -10.1890 C   0  0  0  0  0  0  0  0  0  0  0  0
   -5.9031    1.8079  -10.6649 N   0  0  0  0  0  0  0  0  0  0  0  0
   -8.1749    3.4424   -8.7875 C   0  0  0  0  0  0  0  0  0  0  0  0
   -9.0073    3.0989   -8.0741 N   0  0  0  0  0  0  0  0  0  0  0  0
   -3.8225    4.1185  -10.3189 C   0  0  0  0  0  0  0  0  0  0  0  0
   -2.7022    3.3199  -10.6313 C   0  0  0  0  0  0  0  0  0  0  0  0
   -2.0772    3.2580  -11.8438 N   0  0  0  0  0  0  0  0  0  0  0  0
   -1.6302    2.0154  -12.3329 C   0  0  0  0  0  0  0  0  0  0  0  0
   -0.4248    1.9281  -13.0220 C   0  0  0  0  0  0  0  0  0  0  0  0
   -0.0257    0.7217  -13.5604 C   0  0  0  0  0  0  0  0  0  0  0  0
   -0.8088   -0.4192  -13.4245 C   0  0  0  0  0  0  0  0  0  0  0  0
   -0.4011   -1.7023  -14.0798 C   0  0  0  0  0  0  0  0  0  0  0  0
   -1.9977   -0.3242  -12.7119 C   0  0  0  0  0  0  0  0  0  0  0  0
   -2.4129    0.8759  -12.1703 C   0  0  0  0  0  0  0  0  0  0  0  0
   -1.9257    4.4020  -12.6456 C   0  0  0  0  0  0  0  0  0  0  0  0
   -1.5447    5.6123  -12.0685 C   0  0  0  0  0  0  0  0  0  0  0  0
   -1.4140    6.7401  -12.8517 C   0  0  0  0  0  0  0  0  0  0  0  0
   -1.6476    6.6927  -14.2227 C   0  0  0  0  0  0  0  0  0  0  0  0
   -1.5383    7.9344  -15.0499 C   0  0  0  0  0  0  0  0  0  0  0  0
   -2.0047    5.4762  -14.7910 C   0  0  0  0  0  0  0  0  0  0  0  0
   -2.1446    4.3397  -14.0179 C   0  0  0  0  0  0  0  0  0  0  0  0
   -2.3306    2.5207   -9.5274 C   0  0  0  0  0  0  0  0  0  0  0  0
   -1.0769    1.3600   -9.2418 S   0  0  0  0  0  0  0  0  0  0  0  0
   -1.6174    1.1538   -7.5758 C   0  0  0  0  0  0  0  0  0  0  0  0
   -2.7589    1.9023   -7.2908 C   0  0  0  0  0  0  0  0  0  0  0  0
   -3.5141    1.8437   -6.1357 N   0  0  0  0  0  0  0  0  0  0  0  0
   -3.7249    0.6473   -5.4370 C   0  0  0  0  0  0  0  0  0  0  0  0
   -3.6749   -0.5949   -6.0651 C   0  0  0  0  0  0  0  0  0  0  0  0
   -3.8219   -1.7513   -5.3277 C   0  0  0  0  0  0  0  0  0  0  0  0
   -4.0424   -1.7072   -3.9550 C   0  0  0  0  0  0  0  0  0  0  0  0
   -4.1940   -2.9756   -3.1717 C   0  0  0  0  0  0  0  0  0  0  0  0
   -4.1340   -0.4639   -3.3434 C   0  0  0  0  0  0  0  0  0  0  0  0
   -3.9750    0.7008   -4.0676 C   0  0  0  0  0  0  0  0  0  0  0  0
   -4.3694    2.9360   -5.8628 C   0  0  0  0  0  0  0  0  0  0  0  0
   -5.7441    2.7474   -5.7669 C   0  0  0  0  0  0  0  0  0  0  0  0
   -6.5797    3.8319   -5.5855 C   0  0  0  0  0  0  0  0  0  0  0  0
   -6.0688    5.1206   -5.4899 C   0  0  0  0  0  0  0  0  0  0  0  0
   -6.9735    6.3052   -5.3416 C   0  0  0  0  0  0  0  0  0  0  0  0
   -4.6900    5.2940   -5.5463 C   0  0  0  0  0  0  0  0  0  0  0  0
   -3.8437    4.2181   -5.7311 C   0  0  0  0  0  0  0  0  0  0  0  0
   -3.1080    2.7089   -8.3947 C   0  0  0  0  0  0  0  0  0  0  0  0
   -4.3121    3.9137   -8.6353 S   0  0  0  0  0  0  0  0  0  0  0  0
   -0.8439    0.3661   -6.6810 C   0  0  0  0  0  0  0  0  0  0  0  0
    0.0484   -0.6465   -6.9836 C   0  0  0  0  0  0  0  0  0  0  0  0
    0.2263   -1.2536   -8.3053 C   0  0  0  0  0  0  0  0  0  0  0  0
   -0.8633   -1.7721   -8.9985 C   0  0  0  0  0  0  0  0  0  0  0  0
   -0.6688   -2.4046  -10.2102 C   0  0  0  0  0  0  0  0  0  0  0  0
    0.6029   -2.5113  -10.7433 C   0  0  0  0  0  0  0  0  0  0  0  0
    1.6991   -1.9878  -10.0709 C   0  0  0  0  0  0  0  0  0  0  0  0
    3.0675   -2.0400  -10.6856 C   0  0  0  0  0  0  0  0  0  0  0  0
    3.2917   -0.8057  -11.5616 C   0  0  0  0  0  0  0  0  0  0  0  0
    1.5009   -1.3704   -8.8458 C   0  0  0  0  0  0  0  0  0  0  0  0
    0.7202   -1.1044   -5.8358 C   0  0  0  0  0  0  0  0  0  0  0  0
    1.8870   -2.3805   -5.5820 S   0  0  0  0  0  0  0  0  0  0  0  0
    1.8182   -2.0683   -3.8788 C   0  0  0  0  0  0  0  0  0  0  0  0
    2.3267   -2.5889   -2.6784 C   0  0  0  0  0  0  0  0  0  0  0  0
    3.1691   -3.6957   -2.4404 C   0  0  0  0  0  0  0  0  0  0  0  0
    3.4176   -4.0975   -1.0868 C   0  0  0  0  0  0  0  0  0  0  0  0
    4.1856   -5.1734   -1.0098 N   0  0  0  0  0  0  0  0  0  0  0  0
    4.5657   -5.6384   -2.5140 S   0  0  0  0  0  0  0  0  0  0  0  0
    3.7639   -4.4860   -3.3207 N   0  0  0  0  0  0  0  0  0  0  0  0
    2.8756   -3.3264   -0.0370 C   0  0  0  0  0  0  0  0  0  0  0  0
    2.9918   -3.4631    1.3562 C   0  0  0  0  0  0  0  0  0  0  0  0
    3.7080   -4.5254    2.5205 S   0  0  0  0  0  0  0  0  0  0  0  0
    3.1171   -3.4937    3.7991 C   0  0  0  0  0  0  0  0  0  0  0  0
    3.2167   -3.5492    5.2073 C   0  0  0  0  0  0  0  0  0  0  0  0
    3.8023   -4.6475    5.9725 C   0  0  0  0  0  0  0  0  0  0  0  0
    4.8959   -5.3580    5.4853 C   0  0  0  0  0  0  0  0  0  0  0  0
    5.4451   -6.3814    6.2344 C   0  0  0  0  0  0  0  0  0  0  0  0
    4.9060   -6.7197    7.4623 C   0  0  0  0  0  0  0  0  0  0  0  0
    3.7911   -6.0480    7.9489 C   0  0  0  0  0  0  0  0  0  0  0  0
    3.1531   -6.4568    9.2463 C   0  0  0  0  0  0  0  0  0  0  0  0
    2.1225   -7.5617    9.0077 C   0  0  0  0  0  0  0  0  0  0  0  0
    3.2479   -5.0206    7.1950 C   0  0  0  0  0  0  0  0  0  0  0  0
    2.6121   -2.4522    5.7877 C   0  0  0  0  0  0  0  0  0  0  0  0
    1.8353   -1.3996    4.6175 S   0  0  0  0  0  0  0  0  0  0  0  0
    2.4061   -2.3916    3.3258 C   0  0  0  0  0  0  0  0  0  0  0  0
    2.3303   -2.3767    1.9265 C   0  0  0  0  0  0  0  0  0  0  0  0
    1.7926   -1.5836    0.9484 N   0  0  0  0  0  0  0  0  0  0  0  0
    2.1021   -2.1553   -0.2782 C   0  0  0  0  0  0  0  0  0  0  0  0
    1.7539   -1.8304   -1.6172 C   0  0  0  0  0  0  0  0  0  0  0  0
    0.9159   -0.8759   -2.1745 N   0  0  0  0  0  0  0  0  0  0  0  0
    0.9498   -1.0317   -3.5339 C   0  0  0  0  0  0  0  0  0  0  0  0
    0.3288   -0.4702   -4.6560 C   0  0  0  0  0  0  0  0  0  0  0  0
   -0.8313    0.7693   -4.9649 S   0  0  0  0  0  0  0  0  0  0  0  0
   -0.1597   -0.1114   -1.5856 C   0  0  0  0  0  0  0  0  0  0  0  0
   -1.2213   -1.0207   -0.9718 C   0  0  0  0  0  0  0  0  0  0  0  0
    1.4079   -0.2296    1.2782 C   0  0  0  0  0  0  0  0  0  0  0  0
    2.4060    0.7838    0.7238 C   0  0  0  0  0  0  0  0  0  0  0  0
    2.7045   -2.0337    7.1549 C   0  0  0  0  0  0  0  0  0  0  0  0
    3.8715   -1.8917    7.8940 C   0  0  0  0  0  0  0  0  0  0  0  0
    5.1530   -2.0683    7.4077 N   0  0  0  0  0  0  0  0  0  0  0  0
    5.4503   -1.7610    6.0712 C   0  0  0  0  0  0  0  0  0  0  0  0
    4.8723   -0.6563    5.4507 C   0  0  0  0  0  0  0  0  0  0  0  0
    5.0880   -0.4190    4.1073 C   0  0  0  0  0  0  0  0  0  0  0  0
    5.8929   -1.2594    3.3494 C   0  0  0  0  0  0  0  0  0  0  0  0
    6.0642   -1.0480    1.8762 C   0  0  0  0  0  0  0  0  0  0  0  0
    6.5209   -2.3198    3.9925 C   0  0  0  0  0  0  0  0  0  0  0  0
    6.3108   -2.5698    5.3334 C   0  0  0  0  0  0  0  0  0  0  0  0
    6.1475   -2.5834    8.2537 C   0  0  0  0  0  0  0  0  0  0  0  0
    7.4575   -2.1199    8.1605 C   0  0  0  0  0  0  0  0  0  0  0  0
    8.4330   -2.6272    8.9937 C   0  0  0  0  0  0  0  0  0  0  0  0
    8.1351   -3.5973    9.9445 C   0  0  0  0  0  0  0  0  0  0  0  0
    9.1980   -4.1187   10.8622 C   0  0  0  0  0  0  0  0  0  0  0  0
    6.8257   -4.0499   10.0332 C   0  0  0  0  0  0  0  0  0  0  0  0
    5.8411   -3.5564    9.2002 C   0  0  0  0  0  0  0  0  0  0  0  0
    3.5742   -1.4773    9.2141 C   0  0  0  0  0  0  0  0  0  0  0  0
    4.5480   -1.0633   10.5740 S   0  0  0  0  0  0  0  0  0  0  0  0
    3.1015   -0.6771   11.5241 C   0  0  0  0  0  0  0  0  0  0  0  0
    1.9209   -0.7837   10.7522 C   0  0  0  0  0  0  0  0  0  0  0  0
    0.6685   -0.3768   11.1052 N   0  0  0  0  0  0  0  0  0  0  0  0
   -0.4470   -0.9646   10.4664 C   0  0  0  0  0  0  0  0  0  0  0  0
   -0.5428   -2.3482   10.3546 C   0  0  0  0  0  0  0  0  0  0  0  0
   -1.6346   -2.9120    9.7265 C   0  0  0  0  0  0  0  0  0  0  0  0
   -2.6501   -2.1189    9.2026 C   0  0  0  0  0  0  0  0  0  0  0  0
   -3.8157   -2.7434    8.5001 C   0  0  0  0  0  0  0  0  0  0  0  0
   -2.5495   -0.7394    9.3348 C   0  0  0  0  0  0  0  0  0  0  0  0
   -1.4616   -0.1609    9.9598 C   0  0  0  0  0  0  0  0  0  0  0  0
    0.4250    0.6246   12.0543 C   0  0  0  0  0  0  0  0  0  0  0  0
   -0.6537    0.5025   12.9277 C   0  0  0  0  0  0  0  0  0  0  0  0
   -0.8810    1.4660   13.8929 C   0  0  0  0  0  0  0  0  0  0  0  0
   -0.0515    2.5725   14.0126 C   0  0  0  0  0  0  0  0  0  0  0  0
   -0.2625    3.5947   15.0841 C   0  0  0  0  0  0  0  0  0  0  0  0
    0.9965    2.7104   13.1040 C   0  0  0  0  0  0  0  0  0  0  0  0
    1.2359    1.7564   12.1383 C   0  0  0  0  0  0  0  0  0  0  0  0
    2.2227   -1.2764    9.4627 C   0  0  0  0  0  0  0  0  0  0  0  0
    1.2670   -1.5763    8.0491 S   0  0  0  0  0  0  0  0  0  0  0  0
    3.3037   -0.3010   12.8491 C   0  0  0  0  0  0  0  0  0  0  0  0
    2.3626   -0.3641   13.8615 C   0  0  0  0  0  0  0  0  0  0  0  0
    1.2608   -1.3336   13.8867 C   0  0  0  0  0  0  0  0  0  0  0  0
    0.9902   -2.1753   13.0494 O   0  0  0  0  0  0  0  0  0  0  0  0
    0.6161   -1.1632   15.2092 C   0  0  0  0  0  0  0  0  0  0  0  0
   -0.4676   -1.8289   15.7420 C   0  0  0  0  0  0  0  0  0  0  0  0
   -0.9151   -1.4635   17.0043 C   0  0  0  0  0  0  0  0  0  0  0  0
   -0.2629   -0.4586   17.6992 C   0  0  0  0  0  0  0  0  0  0  0  0
   -0.9728    0.0878   19.6143 I   0  0  0  0  0  0  0  0  0  0  0  0
    0.8392    0.2106   17.1824 C   0  0  0  0  0  0  0  0  0  0  0  0
    1.2763   -0.1483   15.9206 C   0  0  0  0  0  0  0  0  0  0  0  0
    2.3618    0.3738   15.0886 C   0  0  0  0  0  0  0  0  0  0  0  0
    3.1212    1.4862   15.3621 C   0  0  0  0  0  0  0  0  0  0  0  0
    4.0508    2.0403   14.4606 C   0  0  0  0  0  0  0  0  0  0  0  0
    4.7950    2.5642   13.7595 N   0  0  0  0  0  0  0  0  0  0  0  0
    3.0009    2.2555   16.5329 C   0  0  0  0  0  0  0  0  0  0  0  0
    2.9277    2.9285   17.4614 N   0  0  0  0  0  0  0  0  0  0  0  0
   -4.0406    5.4082  -12.0071 H   0  0  0  0  0  0  0  0  0  0  0  0
   -7.6780    9.2969  -11.2524 H   0  0  0  0  0  0  0  0  0  0  0  0
   -9.4838    9.6615   -9.5739 H   0  0  0  0  0  0  0  0  0  0  0  0
   -8.9291    5.6997   -8.0439 H   0  0  0  0  0  0  0  0  0  0  0  0
    0.1871    2.8102  -13.1404 H   0  0  0  0  0  0  0  0  0  0  0  0
    0.9065    0.6676  -14.1043 H   0  0  0  0  0  0  0  0  0  0  0  0
   -0.8957   -2.5516  -13.6160 H   0  0  0  0  0  0  0  0  0  0  0  0
    0.6766   -1.8417  -14.0266 H   0  0  0  0  0  0  0  0  0  0  0  0
   -0.6810   -1.6829  -15.1339 H   0  0  0  0  0  0  0  0  0  0  0  0
   -2.6242   -1.1963  -12.5993 H   0  0  0  0  0  0  0  0  0  0  0  0
   -3.3569    0.9436  -11.6497 H   0  0  0  0  0  0  0  0  0  0  0  0
   -1.3622    5.6590  -11.0046 H   0  0  0  0  0  0  0  0  0  0  0  0
   -1.1270    7.6751  -12.3938 H   0  0  0  0  0  0  0  0  0  0  0  0
   -1.5300    7.6986  -16.1108 H   0  0  0  0  0  0  0  0  0  0  0  0
   -2.3902    8.5840  -14.8488 H   0  0  0  0  0  0  0  0  0  0  0  0
   -0.6329    8.4853  -14.8019 H   0  0  0  0  0  0  0  0  0  0  0  0
   -2.1905    5.4178  -15.8533 H   0  0  0  0  0  0  0  0  0  0  0  0
   -2.4384    3.4031  -14.4679 H   0  0  0  0  0  0  0  0  0  0  0  0
   -3.5267   -0.6487   -7.1332 H   0  0  0  0  0  0  0  0  0  0  0  0
   -3.7706   -2.7084   -5.8266 H   0  0  0  0  0  0  0  0  0  0  0  0
   -3.3646   -3.6525   -3.3728 H   0  0  0  0  0  0  0  0  0  0  0  0
   -5.1134   -3.4866   -3.4569 H   0  0  0  0  0  0  0  0  0  0  0  0
   -4.2323   -2.7735   -2.1039 H   0  0  0  0  0  0  0  0  0  0  0  0
   -4.3233   -0.4035   -2.2812 H   0  0  0  0  0  0  0  0  0  0  0  0
   -4.0312    1.6618   -3.5784 H   0  0  0  0  0  0  0  0  0  0  0  0
   -6.1538    1.7525   -5.8612 H   0  0  0  0  0  0  0  0  0  0  0  0
   -7.6468    3.6720   -5.5431 H   0  0  0  0  0  0  0  0  0  0  0  0
   -6.8635    6.9715   -6.1975 H   0  0  0  0  0  0  0  0  0  0  0  0
   -8.0131    5.9961   -5.2729 H   0  0  0  0  0  0  0  0  0  0  0  0
   -6.7198    6.8722   -4.4470 H   0  0  0  0  0  0  0  0  0  0  0  0
   -4.2754    6.2877   -5.4562 H   0  0  0  0  0  0  0  0  0  0  0  0
   -2.7743    4.3614   -5.7900 H   0  0  0  0  0  0  0  0  0  0  0  0
   -1.8528   -1.6978   -8.5725 H   0  0  0  0  0  0  0  0  0  0  0  0
   -1.5130   -2.8256  -10.7354 H   0  0  0  0  0  0  0  0  0  0  0  0
    0.7517   -3.0160  -11.6859 H   0  0  0  0  0  0  0  0  0  0  0  0
    3.8273   -2.0720   -9.9028 H   0  0  0  0  0  0  0  0  0  0  0  0
    3.1668   -2.9397  -11.2962 H   0  0  0  0  0  0  0  0  0  0  0  0
    3.2213    0.0997  -10.9630 H   0  0  0  0  0  0  0  0  0  0  0  0
    2.5340   -0.7532  -12.3403 H   0  0  0  0  0  0  0  0  0  0  0  0
    4.2736   -0.8408  -12.0281 H   0  0  0  0  0  0  0  0  0  0  0  0
    2.3445   -0.9682   -8.3034 H   0  0  0  0  0  0  0  0  0  0  0  0
    5.3223   -5.0971    4.5297 H   0  0  0  0  0  0  0  0  0  0  0  0
    6.3024   -6.9187    5.8566 H   0  0  0  0  0  0  0  0  0  0  0  0
    5.3460   -7.5160    8.0450 H   0  0  0  0  0  0  0  0  0  0  0  0
    2.6578   -5.5985    9.7062 H   0  0  0  0  0  0  0  0  0  0  0  0
    3.9180   -6.8201    9.9357 H   0  0  0  0  0  0  0  0  0  0  0  0
    1.6568   -7.8568    9.9451 H   0  0  0  0  0  0  0  0  0  0  0  0
    2.5985   -8.4339    8.5655 H   0  0  0  0  0  0  0  0  0  0  0  0
    1.3476   -7.2143    8.3278 H   0  0  0  0  0  0  0  0  0  0  0  0
    2.3673   -4.5094    7.5576 H   0  0  0  0  0  0  0  0  0  0  0  0
   -0.6117    0.4651   -2.3967 H   0  0  0  0  0  0  0  0  0  0  0  0
    0.2291    0.6044   -0.8616 H   0  0  0  0  0  0  0  0  0  0  0  0
   -0.7895   -1.6788   -0.2210 H   0  0  0  0  0  0  0  0  0  0  0  0
   -1.6709   -1.6347   -1.7485 H   0  0  0  0  0  0  0  0  0  0  0  0
   -2.0008   -0.4205   -0.5103 H   0  0  0  0  0  0  0  0  0  0  0  0
    1.4025   -0.1680    2.3693 H   0  0  0  0  0  0  0  0  0  0  0  0
    0.3919   -0.0216    0.9424 H   0  0  0  0  0  0  0  0  0  0  0  0
    3.3889    0.6026    1.1521 H   0  0  0  0  0  0  0  0  0  0  0  0
    2.0941    1.7925    0.9815 H   0  0  0  0  0  0  0  0  0  0  0  0
    2.4886    0.7048   -0.3577 H   0  0  0  0  0  0  0  0  0  0  0  0
    4.2432    0.0105    6.0227 H   0  0  0  0  0  0  0  0  0  0  0  0
    4.6158    0.4353    3.6424 H   0  0  0  0  0  0  0  0  0  0  0  0
    5.9177   -0.0030    1.6109 H   0  0  0  0  0  0  0  0  0  0  0  0
    7.0557   -1.3564    1.5532 H   0  0  0  0  0  0  0  0  0  0  0  0
    5.3353   -1.6465    1.3267 H   0  0  0  0  0  0  0  0  0  0  0  0
    7.1710   -2.9723    3.4279 H   0  0  0  0  0  0  0  0  0  0  0  0
    6.7934   -3.4060    5.8159 H   0  0  0  0  0  0  0  0  0  0  0  0
    7.7027   -1.3596    7.4337 H   0  0  0  0  0  0  0  0  0  0  0  0
    9.4446   -2.2569    8.9108 H   0  0  0  0  0  0  0  0  0  0  0  0
   10.1529   -4.1934   10.3464 H   0  0  0  0  0  0  0  0  0  0  0  0
    9.3258   -3.4406   11.7066 H   0  0  0  0  0  0  0  0  0  0  0  0
    8.9293   -5.0973   11.2525 H   0  0  0  0  0  0  0  0  0  0  0  0
    6.5696   -4.8057   10.7615 H   0  0  0  0  0  0  0  0  0  0  0  0
    4.8331   -3.9343    9.2717 H   0  0  0  0  0  0  0  0  0  0  0  0
    0.2284   -2.9637   10.7906 H   0  0  0  0  0  0  0  0  0  0  0  0
   -1.7055   -3.9870    9.6474 H   0  0  0  0  0  0  0  0  0  0  0  0
   -3.5404   -2.9911    7.4745 H   0  0  0  0  0  0  0  0  0  0  0  0
   -4.1181   -3.6635    8.9954 H   0  0  0  0  0  0  0  0  0  0  0  0
   -4.6632   -2.0633    8.4689 H   0  0  0  0  0  0  0  0  0  0  0  0
   -3.3308   -0.1066    8.9396 H   0  0  0  0  0  0  0  0  0  0  0  0
   -1.3910    0.9129   10.0549 H   0  0  0  0  0  0  0  0  0  0  0  0
   -1.3020   -0.3577   12.8530 H   0  0  0  0  0  0  0  0  0  0  0  0
   -1.7114    1.3442   14.5735 H   0  0  0  0  0  0  0  0  0  0  0  0
    0.5892    3.6134   15.7644 H   0  0  0  0  0  0  0  0  0  0  0  0
   -1.1584    3.3776   15.6598 H   0  0  0  0  0  0  0  0  0  0  0  0
   -0.3560    4.5889   14.6500 H   0  0  0  0  0  0  0  0  0  0  0  0
    1.6386    3.5772   13.1613 H   0  0  0  0  0  0  0  0  0  0  0  0
    2.0560    1.8840   11.4477 H   0  0  0  0  0  0  0  0  0  0  0  0
    4.3050    0.0312   13.0960 H   0  0  0  0  0  0  0  0  0  0  0  0
   -0.9597   -2.6087   15.1813 H   0  0  0  0  0  0  0  0  0  0  0  0
   -1.7686   -1.9588   17.4412 H   0  0  0  0  0  0  0  0  0  0  0  0
    1.3293    0.9804   17.7558 H   0  0  0  0  0  0  0  0  0  0  0  0
  1  2  2  0  0  0  0
  2  3  1  0  0  0  0
  3  4  2  0  0  0  0
  3  5  1  0  0  0  0
  5  6  2  0  0  0  0
  6  7  1  0  0  0  0
  7  8  2  0  0  0  0
  8  9  1  0  0  0  0
  8 10  1  0  0  0  0
 10 11  2  0  0  0  0
 11 12  1  0  0  0  0
 12 13  2  0  0  0  0
 13 14  1  0  0  0  0
 14 15  3  0  0  0  0
 13 16  1  0  0  0  0
 16 17  3  0  0  0  0
  1 18  1  0  0  0  0
 18 19  2  0  0  0  0
 19 20  1  0  0  0  0
 20 21  1  0  0  0  0
 21 22  2  0  0  0  0
 22 23  1  0  0  0  0
 23 24  2  0  0  0  0
 24 25  1  0  0  0  0
 24 26  1  0  0  0  0
 26 27  2  0  0  0  0
 20 28  1  0  0  0  0
 28 29  2  0  0  0  0
 29 30  1  0  0  0  0
 30 31  2  0  0  0  0
 31 32  1  0  0  0  0
 31 33  1  0  0  0  0
 33 34  2  0  0  0  0
 19 35  1  0  0  0  0
 35 36  1  0  0  0  0
 36 37  1  0  0  0  0
 37 38  2  0  0  0  0
 38 39  1  0  0  0  0
 39 40  1  0  0  0  0
 40 41  2  0  0  0  0
 41 42  1  0  0  0  0
 42 43  2  0  0  0  0
 43 44  1  0  0  0  0
 43 45  1  0  0  0  0
 45 46  2  0  0  0  0
 39 47  1  0  0  0  0
 47 48  2  0  0  0  0
 48 49  1  0  0  0  0
 49 50  2  0  0  0  0
 50 51  1  0  0  0  0
 50 52  1  0  0  0  0
 52 53  2  0  0  0  0
 38 54  1  0  0  0  0
 54 55  1  0  0  0  0
 37 56  1  0  0  0  0
 56 57  2  0  0  0  0
 57 58  1  0  0  0  0
 58 59  2  0  0  0  0
 59 60  1  0  0  0  0
 60 61  2  0  0  0  0
 61 62  1  0  0  0  0
 62 63  1  0  0  0  0
 63 64  1  0  0  0  0
 62 65  2  0  0  0  0
 57 66  1  0  0  0  0
 66 67  1  0  0  0  0
 67 68  1  0  0  0  0
 68 69  1  0  0  0  0
 69 70  1  0  0  0  0
 70 71  1  0  0  0  0
 71 72  2  0  0  0  0
 72 73  1  0  0  0  0
 73 74  1  0  0  0  0
 71 75  1  0  0  0  0
 75 76  1  0  0  0  0
 76 77  1  0  0  0  0
 77 78  1  0  0  0  0
 78 79  1  0  0  0  0
 79 80  1  0  0  0  0
 80 81  2  0  0  0  0
 81 82  1  0  0  0  0
 82 83  2  0  0  0  0
 83 84  1  0  0  0  0
 84 85  1  0  0  0  0
 85 86  1  0  0  0  0
 84 87  2  0  0  0  0
 79 88  2  0  0  0  0
 88 89  1  0  0  0  0
 89 90  1  0  0  0  0
 90 91  1  0  0  0  0
 91 92  1  0  0  0  0
 92 93  1  0  0  0  0
 93 94  1  0  0  0  0
 94 95  1  0  0  0  0
 95 96  1  0  0  0  0
 96 97  1  0  0  0  0
 97 98  1  0  0  0  0
 95 99  1  0  0  0  0
 99100  1  0  0  0  0
 92101  1  0  0  0  0
101102  1  0  0  0  0
 88103  1  0  0  0  0
103104  2  0  0  0  0
104105  1  0  0  0  0
105106  1  0  0  0  0
106107  2  0  0  0  0
107108  1  0  0  0  0
108109  2  0  0  0  0
109110  1  0  0  0  0
109111  1  0  0  0  0
111112  2  0  0  0  0
105113  1  0  0  0  0
113114  2  0  0  0  0
114115  1  0  0  0  0
115116  2  0  0  0  0
116117  1  0  0  0  0
116118  1  0  0  0  0
118119  2  0  0  0  0
104120  1  0  0  0  0
120121  1  0  0  0  0
121122  1  0  0  0  0
122123  2  0  0  0  0
123124  1  0  0  0  0
124125  1  0  0  0  0
125126  2  0  0  0  0
126127  1  0  0  0  0
127128  2  0  0  0  0
128129  1  0  0  0  0
128130  1  0  0  0  0
130131  2  0  0  0  0
124132  1  0  0  0  0
132133  2  0  0  0  0
133134  1  0  0  0  0
134135  2  0  0  0  0
135136  1  0  0  0  0
135137  1  0  0  0  0
137138  2  0  0  0  0
123139  1  0  0  0  0
139140  1  0  0  0  0
122141  1  0  0  0  0
141142  2  0  0  0  0
142143  1  0  0  0  0
143144  2  0  0  0  0
143145  1  0  0  0  0
145146  2  0  0  0  0
146147  1  0  0  0  0
147148  2  0  0  0  0
148149  1  0  0  0  0
148150  1  0  0  0  0
150151  2  0  0  0  0
151152  1  0  0  0  0
152153  2  0  0  0  0
153154  1  0  0  0  0
154155  3  0  0  0  0
153156  1  0  0  0  0
156157  3  0  0  0  0
 12  2  1  0  0  0  0
 55 18  1  0  0  0  0
 98 56  1  0  0  0  0
140103  1  0  0  0  0
152142  1  0  0  0  0
 11  5  1  0  0  0  0
 27 21  1  0  0  0  0
 34 28  1  0  0  0  0
 54 35  2  0  0  0  0
 65 58  1  0  0  0  0
 97 66  2  0  0  0  0
112106  1  0  0  0  0
119113  1  0  0  0  0
139120  2  0  0  0  0
151145  1  0  0  0  0
 46 40  1  0  0  0  0
 53 47  1  0  0  0  0
 96 68  2  0  0  0  0
131125  1  0  0  0  0
138132  1  0  0  0  0
 94 69  2  0  0  0  0
 74 70  2  0  0  0  0
 93 75  2  0  0  0  0
 91 76  2  0  0  0  0
 90 78  2  0  0  0  0
 87 80  1  0  0  0  0
  1158  1  0  0  0  0
  6159  1  0  0  0  0
  7160  1  0  0  0  0
 10161  1  0  0  0  0
 22162  1  0  0  0  0
 23163  1  0  0  0  0
 25164  1  0  0  0  0
 25165  1  0  0  0  0
 25166  1  0  0  0  0
 26167  1  0  0  0  0
 27168  1  0  0  0  0
 29169  1  0  0  0  0
 30170  1  0  0  0  0
 32171  1  0  0  0  0
 32172  1  0  0  0  0
 32173  1  0  0  0  0
 33174  1  0  0  0  0
 34175  1  0  0  0  0
 41176  1  0  0  0  0
 42177  1  0  0  0  0
 44178  1  0  0  0  0
 44179  1  0  0  0  0
 44180  1  0  0  0  0
 45181  1  0  0  0  0
 46182  1  0  0  0  0
 48183  1  0  0  0  0
 49184  1  0  0  0  0
 51185  1  0  0  0  0
 51186  1  0  0  0  0
 51187  1  0  0  0  0
 52188  1  0  0  0  0
 53189  1  0  0  0  0
 59190  1  0  0  0  0
 60191  1  0  0  0  0
 61192  1  0  0  0  0
 63193  1  0  0  0  0
 63194  1  0  0  0  0
 64195  1  0  0  0  0
 64196  1  0  0  0  0
 64197  1  0  0  0  0
 65198  1  0  0  0  0
 81199  1  0  0  0  0
 82200  1  0  0  0  0
 83201  1  0  0  0  0
 85202  1  0  0  0  0
 85203  1  0  0  0  0
 86204  1  0  0  0  0
 86205  1  0  0  0  0
 86206  1  0  0  0  0
 87207  1  0  0  0  0
 99208  1  0  0  0  0
 99209  1  0  0  0  0
100210  1  0  0  0  0
100211  1  0  0  0  0
100212  1  0  0  0  0
101213  1  0  0  0  0
101214  1  0  0  0  0
102215  1  0  0  0  0
102216  1  0  0  0  0
102217  1  0  0  0  0
107218  1  0  0  0  0
108219  1  0  0  0  0
110220  1  0  0  0  0
110221  1  0  0  0  0
110222  1  0  0  0  0
111223  1  0  0  0  0
112224  1  0  0  0  0
114225  1  0  0  0  0
115226  1  0  0  0  0
117227  1  0  0  0  0
117228  1  0  0  0  0
117229  1  0  0  0  0
118230  1  0  0  0  0
119231  1  0  0  0  0
126232  1  0  0  0  0
127233  1  0  0  0  0
129234  1  0  0  0  0
129235  1  0  0  0  0
129236  1  0  0  0  0
130237  1  0  0  0  0
131238  1  0  0  0  0
133239  1  0  0  0  0
134240  1  0  0  0  0
136241  1  0  0  0  0
136242  1  0  0  0  0
136243  1  0  0  0  0
137244  1  0  0  0  0
138245  1  0  0  0  0
141246  1  0  0  0  0
146247  1  0  0  0  0
147248  1  0  0  0  0
150249  1  0  0  0  0
M  END
