251

C          7.59440        1.06490      -10.56400
C          7.95490        2.38740      -10.64100
C          9.11970        2.79450      -11.45330
O          9.74090        2.11170      -12.23980
C          9.38710        4.20090      -11.07050
C         10.42840        5.02810      -11.44200
C         10.48310        6.30730      -10.90730
C          9.50260        6.72030      -10.01730
Br         9.61620        8.46620       -9.27390
C          8.43960        5.90700       -9.64190
C          8.38570        4.63630      -10.18420
C          7.40320        3.56170      -10.02250
C          6.09960        3.75350       -9.62940
C          5.59100        4.98440       -9.18130
N          5.11880        5.96710       -8.81800
C          5.08650        2.78610       -9.76730
N          4.21040        2.05890       -9.92480
C          6.85140        0.43760       -9.55980
C          6.26020       -0.83930       -9.61850
N          6.20460       -1.62550      -10.73310
C          6.14370       -1.06740      -12.02980
C          6.91840       -1.60190      -13.05380
C          6.85980       -1.05340      -14.31980
C          6.03560        0.03190      -14.59330
C          6.01020        0.64410      -15.95920
C          5.25420        0.54520      -13.56440
C          5.29520        0.00230      -12.29570
C          6.17350       -3.02530      -10.60700
C          5.38240       -3.79020      -11.45920
C          5.42140       -5.16800      -11.38880
C          6.23930       -5.81870      -10.47280
C          6.34560       -7.31200      -10.46030
C          6.99860       -5.04610       -9.60230
C          6.97470       -3.66780       -9.66580
C          5.67320       -1.17750       -8.38300
S          4.72680       -2.51920       -7.83090
C          4.49590       -1.73640       -6.27310
C          5.20070       -0.53730       -6.17110
N          5.30610        0.23140       -5.02100
C          5.69460       -0.36800       -3.81660
C          5.29050        0.17380       -2.59700
C          5.64370       -0.43920       -1.41220
C          6.39540       -1.60800       -1.40110
C          6.78590       -2.26660       -0.11350
C          6.80000       -2.13910       -2.61980
C          6.46400       -1.52930       -3.81140
C          5.28110        1.63100       -5.15720
C          6.16580        2.43820       -4.44920
C          6.11160        3.81130       -4.58600
C          5.19220        4.41610       -5.43420
C          5.10930        5.90540       -5.55210
C          4.33090        3.59900       -6.15940
C          4.36700        2.22580       -6.02430
C          5.82630       -0.21650       -7.39290
S          6.69390        1.16410       -7.95390
C          3.56290       -2.28000       -5.35380
C          2.92570       -3.50680       -5.43560
C          3.23170       -4.57270       -6.40230
C          2.28920       -4.86380       -7.38230
C          2.50770       -5.88660       -8.28440
C          3.66690       -6.63630       -8.20030
C          4.60140       -6.35420       -7.22080
C          4.40660       -5.32450       -6.31240
C          5.40830       -5.08120       -5.21930
C          4.96370       -5.75240       -3.91860
C          1.91050       -3.62710       -4.47510
S          0.76700       -4.90290       -4.13010
C          0.10880       -3.92470       -2.86080
C         -0.94020       -3.95830       -1.92980
C         -1.99240       -4.88400       -1.75890
C         -3.03770       -4.57820       -0.82590
N         -3.99100       -5.49670       -0.81420
S         -3.60330       -6.65010       -1.88300
N         -2.20460       -6.02100       -2.40270
C         -2.91510       -3.42560       -0.02040
C         -3.70610       -2.95910        1.04140
S         -5.18920       -3.34860        1.84420
C         -4.89890       -2.03880        2.96390
C         -5.65130       -1.53150        4.04660
C         -7.02000       -1.99270        4.31510
C         -7.32500       -3.33210        4.57180
C         -6.25280       -4.36410        4.80080
C         -6.45560       -5.17900        6.07720
C         -8.66320       -3.70320        4.60230
C         -9.67570       -2.78440        4.40060
C         -9.36670       -1.45440        4.18060
C         -8.04390       -1.06420        4.14140
C         -5.01580       -0.45320        4.62960
S         -3.49470       -0.05320        3.82850
C         -3.71690       -1.34410        2.70330
C         -3.03980       -1.86310        1.59250
N         -1.89510       -1.60430        0.88730
C         -1.79860       -2.54840       -0.12380
C         -0.86660       -2.75220       -1.17650
N          0.18270       -1.99490       -1.67450
C          0.75640       -2.69730       -2.69960
C          1.78080       -2.51670       -3.63720
S          2.91440       -1.28240       -4.05520
C          0.46940       -0.58600       -1.52830
C         -0.71680        0.27650       -1.95200
C         -0.88410       -0.74350        1.45800
C          0.34240       -1.53490        1.90520
C         -5.33610        0.34060        5.77210
C         -6.07340        0.05940        6.90670
N         -6.74350       -1.14800        7.19590
C         -8.13800       -1.13730        7.26260
C         -8.86720        0.02390        7.01230
C        -10.24780        0.00920        7.04020
C        -10.95180       -1.15520        7.30900
C        -12.45040       -1.17120        7.31550
C        -10.22230       -2.31590        7.53260
C         -8.84370       -2.31540        7.50520
C         -5.97010       -2.03790        7.97480
C         -4.71760       -2.43420        7.51590
C         -3.93950       -3.29930        8.26180
C         -4.38000       -3.78720        9.48380
C         -3.55480       -4.74530       10.28710
C         -5.61760       -3.35960        9.95280
C         -6.40000       -2.49000        9.22060
C         -5.98730        1.11430        7.84220
S         -6.67070        1.36130        9.40170
C         -5.82320        2.91760        9.56220
C         -5.11930        3.25080        8.38120
N         -4.48300        4.41530        8.06660
C         -4.76420        5.67390        8.59830
C         -3.74940        6.63250        8.66520
C         -3.98710        7.86220        9.23770
C         -5.23710        8.18680        9.76090
C         -5.44340        9.49100       10.45890
C         -6.25970        7.25690        9.62740
C         -6.03480        6.01790        9.05640
C         -3.44990        4.32640        7.09700
C         -2.37830        3.46730        7.31390
C         -1.39760        3.34010        6.35020
C         -1.46340        4.06160        5.16370
C         -0.42900        3.87430        4.09740
C         -2.52320        4.94160        4.97570
C         -3.51150        5.07980        5.93100
C         -5.20390        2.18830        7.44880
S         -4.56620        1.91740        5.86190
C         -6.01220        3.55860       10.78260
C         -5.27390        4.59140       11.35040
C         -3.85470        4.73610       11.01890
O         -3.24300        3.91310       10.35350
N         -3.19090        5.81140       11.57360
C         -1.76710        5.95020       11.29690
C         -0.93690        5.40830       12.45380
C         -3.78330        6.81850       12.31880
O         -3.17200        7.83280       12.59850
C         -5.15270        6.54910       12.74470
C         -5.85300        5.44810       12.32680
C         -7.25820        5.22760       12.79440
C         -5.73190        7.51500       13.58940
N         -6.21450        8.30550       14.26790
H          8.02120        0.42640      -11.33000
H         11.18120        4.68010      -12.13200
H         11.28360        6.98010      -11.17380
H          7.70060        6.26400       -8.94260
H          7.57010       -2.43880      -12.84910
H          7.47210       -1.46920      -15.10630
H          6.12370       -0.11690      -16.72810
H          5.08120        1.18320      -16.12730
H          6.83530        1.34960      -16.06180
H          4.59480        1.37850      -13.75800
H          4.67900        0.41030      -11.50850
H          4.74750       -3.29740      -12.18000
H          4.80960       -5.74840      -12.06370
H          7.21600       -7.62320      -11.03980
H          6.47000       -7.68650       -9.44730
H          5.46610       -7.76980      -10.90590
H          7.63800       -5.53060       -8.87900
H          7.59890       -3.08300       -9.00600
H          4.68960        1.07080       -2.59040
H          5.31920       -0.00600       -0.47680
H          6.12310       -1.96570        0.69430
H          7.80290       -1.98190        0.15880
H          6.75730       -3.35020       -0.20870
H          7.39580       -3.04040       -2.63720
H          6.80660       -1.94790       -4.74700
H          6.89650        1.98570       -3.79490
H          6.80330        4.42410       -4.02570
H          5.99020        6.38030       -5.12720
H          4.23130        6.27310       -5.02050
H          5.01200        6.20190       -6.59490
H          3.61730        4.04730       -6.83510
H          3.68400        1.60680       -6.58820
H          1.38420       -4.27630       -7.43220
H          1.77140       -6.10270       -9.04360
H          3.83710       -7.44730       -8.89110
H          5.50000       -6.95030       -7.14830
H          5.52530       -4.01150       -5.04220
H          6.37750       -5.48390       -5.52030
H          5.70040       -5.58610       -3.13590
H          4.01140       -5.34600       -3.58690
H          4.84500       -6.82350       -4.06560
H         -5.27900       -3.87630        4.85610
H         -6.23660       -5.04640        3.94540
H         -6.45220       -4.52910        6.94820
H         -7.39290       -5.72780        6.05470
H         -5.64500       -5.89620        6.18700
H         -8.91870       -4.73840        4.77100
H        -10.70600       -3.10670        4.41500
H        -10.14960       -0.72710        4.02970
H         -7.78740       -0.03330        3.94240
H          0.78550       -0.36170       -0.50880
H          1.32030       -0.37440       -2.18070
H         -1.60340        0.04230       -1.36740
H         -0.47560        1.32820       -1.82290
H         -0.94590        0.10050       -3.00030
H         -1.34130       -0.26620        2.32860
H         -0.61570        0.05130        0.76050
H          0.78540       -2.07800        1.07390
H          0.05930       -2.25590        2.66850
H          1.08600       -0.86160        2.32320
H         -8.35780        0.94810        6.78480
H        -10.78660        0.92660        6.84850
H        -12.82740       -1.91230        8.01680
H        -12.82660       -1.42580        6.32360
H        -12.84840       -0.19570        7.58550
H        -10.74300       -3.24290        7.72650
H         -8.30920       -3.23900        7.66000
H         -4.35490       -2.06660        6.56890
H         -2.97410       -3.60150        7.88160
H         -4.03920       -5.72120       10.32270
H         -2.56620       -4.86790        9.85200
H         -3.44590       -4.39150       11.31110
H         -5.96850       -3.70410       10.91500
H         -7.34490       -2.14860        9.61590
H         -2.76600        6.39100        8.29140
H         -3.18450        8.58100        9.30790
H         -4.82810        9.52190       11.35900
H         -5.14030       10.32140        9.82320
H         -6.48250        9.62460       10.74770
H         -7.24830        7.49790        9.99080
H         -6.85110        5.31900        8.95120
H         -2.32980        2.92240        8.24420
H         -0.56920        2.66850        6.52100
H         -0.74750        3.08480        3.41540
H         -0.29490        4.78540        3.51930
H          0.52590        3.58320        4.52820
H         -2.58150        5.51910        4.06490
H         -4.33680        5.75910        5.77620
H         -6.86000        3.18850       11.34670
H         -1.55630        5.39380       10.38240
H         -1.56340        7.01270       11.15020
H         -1.15830        5.96180       13.36330
H          0.12090        5.51430       12.22880
H         -1.15890        4.35560       12.61450
H         -7.35510        4.24520       13.25570
H         -7.95240        5.27950       11.95670
H         -7.53790        5.98250       13.52480
