
  xtb     02082204033D
 energy: -366.859828542943 gnorm: 0.000833050628 xtb: 6.4.1 (unknown)
220242  0     0  0            999 V2000
    4.0528   -5.2015   -9.5451 C   0  0  0  0  0  0  0  0  0  0  0  0
    3.1691   -6.1833   -9.9263 C   0  0  0  0  0  0  0  0  0  0  0  0
    3.4810   -7.0623  -11.0710 C   0  0  0  0  0  0  0  0  0  0  0  0
    4.5498   -7.1996  -11.6274 O   0  0  0  0  0  0  0  0  0  0  0  0
    2.1866   -7.6896  -11.4349 C   0  0  0  0  0  0  0  0  0  0  0  0
    1.8742   -8.4967  -12.5109 C   0  0  0  0  0  0  0  0  0  0  0  0
    0.5603   -8.9150  -12.6686 C   0  0  0  0  0  0  0  0  0  0  0  0
   -0.4006   -8.5185  -11.7501 C   0  0  0  0  0  0  0  0  0  0  0  0
   -2.2032   -9.0677  -12.0085 Br  0  0  0  0  0  0  0  0  0  0  0  0
   -0.1022   -7.7246  -10.6492 C   0  0  0  0  0  0  0  0  0  0  0  0
    1.2079   -7.3105  -10.4983 C   0  0  0  0  0  0  0  0  0  0  0  0
    1.8420   -6.4920   -9.4657 C   0  0  0  0  0  0  0  0  0  0  0  0
    1.3503   -6.2988   -8.1961 C   0  0  0  0  0  0  0  0  0  0  0  0
    2.1336   -5.7714   -7.1506 C   0  0  0  0  0  0  0  0  0  0  0  0
    2.7648   -5.3953   -6.2668 N   0  0  0  0  0  0  0  0  0  0  0  0
    0.0556   -6.6630   -7.7891 C   0  0  0  0  0  0  0  0  0  0  0  0
   -1.0007   -6.9190   -7.4161 N   0  0  0  0  0  0  0  0  0  0  0  0
    3.7369   -4.0229   -8.8589 C   0  0  0  0  0  0  0  0  0  0  0  0
    4.5721   -3.1807   -8.1011 C   0  0  0  0  0  0  0  0  0  0  0  0
    5.9086   -3.3521   -7.8917 N   0  0  0  0  0  0  0  0  0  0  0  0
    6.7557   -3.8521   -8.8930 C   0  0  0  0  0  0  0  0  0  0  0  0
    7.7620   -4.7595   -8.5767 C   0  0  0  0  0  0  0  0  0  0  0  0
    8.5849   -5.2507   -9.5713 C   0  0  0  0  0  0  0  0  0  0  0  0
    8.4288   -4.8557  -10.8947 C   0  0  0  0  0  0  0  0  0  0  0  0
    9.2883   -5.4258  -11.9782 C   0  0  0  0  0  0  0  0  0  0  0  0
    7.4315   -3.9341  -11.1971 C   0  0  0  0  0  0  0  0  0  0  0  0
    6.6054   -3.4311  -10.2132 C   0  0  0  0  0  0  0  0  0  0  0  0
    6.4465   -3.0427   -6.6253 C   0  0  0  0  0  0  0  0  0  0  0  0
    5.7672   -3.4227   -5.4704 C   0  0  0  0  0  0  0  0  0  0  0  0
    6.2933   -3.1108   -4.2336 C   0  0  0  0  0  0  0  0  0  0  0  0
    7.5011   -2.4308   -4.1165 C   0  0  0  0  0  0  0  0  0  0  0  0
    8.0469   -2.0788   -2.7672 C   0  0  0  0  0  0  0  0  0  0  0  0
    8.1768   -2.0740   -5.2770 C   0  0  0  0  0  0  0  0  0  0  0  0
    7.6595   -2.3718   -6.5228 C   0  0  0  0  0  0  0  0  0  0  0  0
    3.8160   -2.1599   -7.4750 C   0  0  0  0  0  0  0  0  0  0  0  0
    4.2127   -0.8580   -6.4122 S   0  0  0  0  0  0  0  0  0  0  0  0
    2.5276   -0.3518   -6.3736 C   0  0  0  0  0  0  0  0  0  0  0  0
    1.6960   -1.1870   -7.1075 C   0  0  0  0  0  0  0  0  0  0  0  0
    0.3274   -1.0979   -7.2119 N   0  0  0  0  0  0  0  0  0  0  0  0
   -0.3712   -1.9587   -8.0985 C   0  0  0  0  0  0  0  0  0  0  0  0
   -0.2368   -1.8137   -9.4756 C   0  0  0  0  0  0  0  0  0  0  0  0
   -0.8883   -2.6837  -10.3291 C   0  0  0  0  0  0  0  0  0  0  0  0
   -1.6895   -3.7068   -9.8359 C   0  0  0  0  0  0  0  0  0  0  0  0
   -2.3692   -4.6585  -10.7714 C   0  0  0  0  0  0  0  0  0  0  0  0
   -1.8529   -3.8146   -8.4605 C   0  0  0  0  0  0  0  0  0  0  0  0
   -1.2065   -2.9508   -7.5980 C   0  0  0  0  0  0  0  0  0  0  0  0
   -0.4744   -0.4655   -6.2207 C   0  0  0  0  0  0  0  0  0  0  0  0
   -1.2400    0.6415   -6.5691 C   0  0  0  0  0  0  0  0  0  0  0  0
   -2.0134    1.2761   -5.6182 C   0  0  0  0  0  0  0  0  0  0  0  0
   -2.0720    0.8046   -4.3111 C   0  0  0  0  0  0  0  0  0  0  0  0
   -2.9110    1.5141   -3.2935 C   0  0  0  0  0  0  0  0  0  0  0  0
   -1.3530   -0.3382   -3.9925 C   0  0  0  0  0  0  0  0  0  0  0  0
   -0.5555   -0.9689   -4.9305 C   0  0  0  0  0  0  0  0  0  0  0  0
    2.4634   -2.1762   -7.7712 C   0  0  0  0  0  0  0  0  0  0  0  0
    2.0685   -3.4464   -8.8669 S   0  0  0  0  0  0  0  0  0  0  0  0
    2.1225    0.6736   -5.4400 C   0  0  0  0  0  0  0  0  0  0  0  0
    1.7447    1.9865   -5.5851 C   0  0  0  0  0  0  0  0  0  0  0  0
    2.0924    2.9775   -6.6268 C   0  0  0  0  0  0  0  0  0  0  0  0
    2.6507    4.1513   -6.1019 C   0  0  0  0  0  0  0  0  0  0  0  0
    3.0114    5.2145   -6.9006 C   0  0  0  0  0  0  0  0  0  0  0  0
    2.8109    5.1386   -8.2679 C   0  0  0  0  0  0  0  0  0  0  0  0
    2.2911    3.9787   -8.8021 C   0  0  0  0  0  0  0  0  0  0  0  0
    1.9440    2.8856   -8.0119 C   0  0  0  0  0  0  0  0  0  0  0  0
    1.4727    1.6563   -8.7296 C   0  0  0  0  0  0  0  0  0  0  0  0
    2.6548    0.9866   -9.4354 C   0  0  0  0  0  0  0  0  0  0  0  0
    1.1544    2.4608   -4.3762 C   0  0  0  0  0  0  0  0  0  0  0  0
    0.2535    3.9145   -4.0152 S   0  0  0  0  0  0  0  0  0  0  0  0
   -0.0060    3.3306   -2.4053 C   0  0  0  0  0  0  0  0  0  0  0  0
   -0.6623    3.7117   -1.2226 C   0  0  0  0  0  0  0  0  0  0  0  0
   -1.5427    4.7797   -0.9448 C   0  0  0  0  0  0  0  0  0  0  0  0
   -2.1873    4.8341    0.3371 C   0  0  0  0  0  0  0  0  0  0  0  0
   -3.0356    5.8455    0.4346 N   0  0  0  0  0  0  0  0  0  0  0  0
   -3.0222    6.6630   -0.9634 S   0  0  0  0  0  0  0  0  0  0  0  0
   -1.9353    5.7552   -1.7491 N   0  0  0  0  0  0  0  0  0  0  0  0
   -1.8252    3.8915    1.3243 C   0  0  0  0  0  0  0  0  0  0  0  0
   -2.1828    3.7798    2.6782 C   0  0  0  0  0  0  0  0  0  0  0  0
   -3.2497    4.5262    3.8205 S   0  0  0  0  0  0  0  0  0  0  0  0
   -2.6448    3.4406    5.0501 C   0  0  0  0  0  0  0  0  0  0  0  0
   -2.9721    3.2714    6.4066 C   0  0  0  0  0  0  0  0  0  0  0  0
   -4.0441    4.0384    7.0660 C   0  0  0  0  0  0  0  0  0  0  0  0
   -3.8568    5.3670    7.4507 C   0  0  0  0  0  0  0  0  0  0  0  0
   -2.5216    6.0403    7.3107 C   0  0  0  0  0  0  0  0  0  0  0  0
   -1.6214    5.7142    8.5045 C   0  0  0  0  0  0  0  0  0  0  0  0
   -4.9239    6.0477    8.0223 C   0  0  0  0  0  0  0  0  0  0  0  0
   -6.1528    5.4389    8.1952 C   0  0  0  0  0  0  0  0  0  0  0  0
   -6.3319    4.1210    7.8116 C   0  0  0  0  0  0  0  0  0  0  0  0
   -5.2787    3.4246    7.2509 C   0  0  0  0  0  0  0  0  0  0  0  0
   -2.2257    2.2595    6.9811 C   0  0  0  0  0  0  0  0  0  0  0  0
   -1.1173    1.5112    5.8400 S   0  0  0  0  0  0  0  0  0  0  0  0
   -1.6641    2.5613    4.5829 C   0  0  0  0  0  0  0  0  0  0  0  0
   -1.4076    2.7518    3.2202 C   0  0  0  0  0  0  0  0  0  0  0  0
   -0.6092    2.2003    2.2524 N   0  0  0  0  0  0  0  0  0  0  0  0
   -0.8648    2.8749    1.0677 C   0  0  0  0  0  0  0  0  0  0  0  0
   -0.3876    2.7033   -0.2577 C   0  0  0  0  0  0  0  0  0  0  0  0
    0.3566    1.7076   -0.8676 N   0  0  0  0  0  0  0  0  0  0  0  0
    0.5798    2.0880   -2.1625 C   0  0  0  0  0  0  0  0  0  0  0  0
    1.2109    1.5773   -3.3067 C   0  0  0  0  0  0  0  0  0  0  0  0
    1.9851    0.1086   -3.7635 S   0  0  0  0  0  0  0  0  0  0  0  0
    0.6026    0.3467   -0.4479 C   0  0  0  0  0  0  0  0  0  0  0  0
   -0.6790   -0.3689   -0.0293 C   0  0  0  0  0  0  0  0  0  0  0  0
    0.5640    1.4464    2.6415 C   0  0  0  0  0  0  0  0  0  0  0  0
    1.8481    2.2227    2.3630 C   0  0  0  0  0  0  0  0  0  0  0  0
   -2.2366    1.8042    8.3291 C   0  0  0  0  0  0  0  0  0  0  0  0
   -2.8952    2.3442    9.3998 C   0  0  0  0  0  0  0  0  0  0  0  0
   -2.6778    1.6467   10.6086 C   0  0  0  0  0  0  0  0  0  0  0  0
   -3.1777    1.9742   11.8817 C   0  0  0  0  0  0  0  0  0  0  0  0
   -4.0990    3.1011   12.0710 C   0  0  0  0  0  0  0  0  0  0  0  0
   -3.8490    4.0765   13.0352 C   0  0  0  0  0  0  0  0  0  0  0  0
   -4.7145    5.1326   13.2044 C   0  0  0  0  0  0  0  0  0  0  0  0
   -5.8694    5.2424   12.4253 C   0  0  0  0  0  0  0  0  0  0  0  0
   -6.6350    6.3365   12.6703 O   0  0  0  0  0  0  0  0  0  0  0  0
   -7.8836    6.4860   12.0249 C   0  0  0  0  0  0  0  0  0  0  0  0
   -8.9649    5.5909   12.6224 C   0  0  0  0  0  0  0  0  0  0  0  0
   -6.1295    4.2637   11.4706 C   0  0  0  0  0  0  0  0  0  0  0  0
   -5.2472    3.2146   11.2957 C   0  0  0  0  0  0  0  0  0  0  0  0
   -2.7623    1.1719   12.9303 C   0  0  0  0  0  0  0  0  0  0  0  0
   -1.8897    0.0622   12.7622 C   0  0  0  0  0  0  0  0  0  0  0  0
   -1.3800   -0.2604   11.4851 C   0  0  0  0  0  0  0  0  0  0  0  0
   -0.4398   -1.3681   11.2970 C   0  0  0  0  0  0  0  0  0  0  0  0
    0.6903   -1.4887   12.1086 C   0  0  0  0  0  0  0  0  0  0  0  0
    1.5770   -2.5233   11.9277 C   0  0  0  0  0  0  0  0  0  0  0  0
    1.3632   -3.4833   10.9333 C   0  0  0  0  0  0  0  0  0  0  0  0
    2.3145   -4.4441   10.8408 O   0  0  0  0  0  0  0  0  0  0  0  0
    2.1469   -5.5287    9.9493 C   0  0  0  0  0  0  0  0  0  0  0  0
    1.1532   -6.5638   10.4680 C   0  0  0  0  0  0  0  0  0  0  0  0
    0.2390   -3.3662   10.1202 C   0  0  0  0  0  0  0  0  0  0  0  0
   -0.6416   -2.3163   10.3004 C   0  0  0  0  0  0  0  0  0  0  0  0
   -1.8048    0.5398   10.4406 C   0  0  0  0  0  0  0  0  0  0  0  0
   -1.3022    0.3880    8.7766 S   0  0  0  0  0  0  0  0  0  0  0  0
   -1.6810   -0.6378   13.9644 C   0  0  0  0  0  0  0  0  0  0  0  0
   -2.3409   -0.0903   15.0389 C   0  0  0  0  0  0  0  0  0  0  0  0
   -3.2726    1.3352   14.5877 S   0  0  0  0  0  0  0  0  0  0  0  0
   -2.3561   -0.5272   16.3943 C   0  0  0  0  0  0  0  0  0  0  0  0
   -1.6403   -1.5764   16.9328 C   0  0  0  0  0  0  0  0  0  0  0  0
   -0.7396   -2.3963   16.2303 C   0  0  0  0  0  0  0  0  0  0  0  0
    0.0116   -3.0879   15.7042 N   0  0  0  0  0  0  0  0  0  0  0  0
   -1.7670   -1.9012   18.3007 C   0  0  0  0  0  0  0  0  0  0  0  0
   -1.8557   -2.1851   19.4083 N   0  0  0  0  0  0  0  0  0  0  0  0
   -3.1921    0.1947   17.2863 C   0  0  0  0  0  0  0  0  0  0  0  0
   -3.8691    0.7815   17.9999 N   0  0  0  0  0  0  0  0  0  0  0  0
    5.0715   -5.3385   -9.8888 H   0  0  0  0  0  0  0  0  0  0  0  0
    2.6390   -8.7884  -13.2138 H   0  0  0  0  0  0  0  0  0  0  0  0
    0.2802   -9.5406  -13.5020 H   0  0  0  0  0  0  0  0  0  0  0  0
   -0.8751   -7.4371   -9.9551 H   0  0  0  0  0  0  0  0  0  0  0  0
    7.8834   -5.0842   -7.5541 H   0  0  0  0  0  0  0  0  0  0  0  0
    9.3547   -5.9639   -9.3155 H   0  0  0  0  0  0  0  0  0  0  0  0
   10.2073   -5.8401  -11.5716 H   0  0  0  0  0  0  0  0  0  0  0  0
    8.7497   -6.2252  -12.4877 H   0  0  0  0  0  0  0  0  0  0  0  0
    9.5363   -4.6667  -12.7170 H   0  0  0  0  0  0  0  0  0  0  0  0
    7.3010   -3.6072  -12.2181 H   0  0  0  0  0  0  0  0  0  0  0  0
    5.8355   -2.7137  -10.4580 H   0  0  0  0  0  0  0  0  0  0  0  0
    4.8388   -3.9693   -5.5500 H   0  0  0  0  0  0  0  0  0  0  0  0
    5.7607   -3.4081   -3.3423 H   0  0  0  0  0  0  0  0  0  0  0  0
    9.1153   -1.8843   -2.8168 H   0  0  0  0  0  0  0  0  0  0  0  0
    7.5548   -1.1810   -2.3917 H   0  0  0  0  0  0  0  0  0  0  0  0
    7.8655   -2.8813   -2.0555 H   0  0  0  0  0  0  0  0  0  0  0  0
    9.1182   -1.5489   -5.2070 H   0  0  0  0  0  0  0  0  0  0  0  0
    8.1884   -2.0839   -7.4195 H   0  0  0  0  0  0  0  0  0  0  0  0
    0.3849   -1.0252   -9.8709 H   0  0  0  0  0  0  0  0  0  0  0  0
   -0.7668   -2.5709  -11.3969 H   0  0  0  0  0  0  0  0  0  0  0  0
   -3.1721   -4.1528  -11.3077 H   0  0  0  0  0  0  0  0  0  0  0  0
   -2.7982   -5.4962  -10.2279 H   0  0  0  0  0  0  0  0  0  0  0  0
   -1.6649   -5.0377  -11.5107 H   0  0  0  0  0  0  0  0  0  0  0  0
   -2.4756   -4.5977   -8.0545 H   0  0  0  0  0  0  0  0  0  0  0  0
   -1.3341   -3.0569   -6.5313 H   0  0  0  0  0  0  0  0  0  0  0  0
   -1.2191    1.0094   -7.5833 H   0  0  0  0  0  0  0  0  0  0  0  0
   -2.5785    2.1551   -5.8907 H   0  0  0  0  0  0  0  0  0  0  0  0
   -2.6798    1.1795   -2.2850 H   0  0  0  0  0  0  0  0  0  0  0  0
   -3.9682    1.3270   -3.4822 H   0  0  0  0  0  0  0  0  0  0  0  0
   -2.7489    2.5891   -3.3487 H   0  0  0  0  0  0  0  0  0  0  0  0
   -1.4079   -0.7484   -2.9950 H   0  0  0  0  0  0  0  0  0  0  0  0
    0.0117   -1.8488   -4.6623 H   0  0  0  0  0  0  0  0  0  0  0  0
    2.8236    4.2204   -5.0384 H   0  0  0  0  0  0  0  0  0  0  0  0
    3.4402    6.0995   -6.4554 H   0  0  0  0  0  0  0  0  0  0  0  0
    3.0654    5.9694   -8.9087 H   0  0  0  0  0  0  0  0  0  0  0  0
    2.1416    3.9068   -9.8703 H   0  0  0  0  0  0  0  0  0  0  0  0
    0.7235    1.9338   -9.4763 H   0  0  0  0  0  0  0  0  0  0  0  0
    1.0176    0.9681   -8.0272 H   0  0  0  0  0  0  0  0  0  0  0  0
    3.4473    0.7702   -8.7229 H   0  0  0  0  0  0  0  0  0  0  0  0
    3.0619    1.6403  -10.2033 H   0  0  0  0  0  0  0  0  0  0  0  0
    2.3504    0.0538   -9.9056 H   0  0  0  0  0  0  0  0  0  0  0  0
   -2.6669    7.1206    7.2562 H   0  0  0  0  0  0  0  0  0  0  0  0
   -2.0310    5.7183    6.3908 H   0  0  0  0  0  0  0  0  0  0  0  0
   -1.4128    4.6477    8.5479 H   0  0  0  0  0  0  0  0  0  0  0  0
   -0.6776    6.2477    8.4219 H   0  0  0  0  0  0  0  0  0  0  0  0
   -2.1049    6.0055    9.4349 H   0  0  0  0  0  0  0  0  0  0  0  0
   -4.7876    7.0752    8.3273 H   0  0  0  0  0  0  0  0  0  0  0  0
   -6.9733    5.9985    8.6201 H   0  0  0  0  0  0  0  0  0  0  0  0
   -7.2893    3.6380    7.9401 H   0  0  0  0  0  0  0  0  0  0  0  0
   -5.4058    2.3965    6.9438 H   0  0  0  0  0  0  0  0  0  0  0  0
    1.0363   -0.1672   -1.3099 H   0  0  0  0  0  0  0  0  0  0  0  0
    1.3493    0.3216    0.3497 H   0  0  0  0  0  0  0  0  0  0  0  0
   -0.4464   -1.3801    0.2944 H   0  0  0  0  0  0  0  0  0  0  0  0
   -1.3667   -0.4263   -0.8691 H   0  0  0  0  0  0  0  0  0  0  0  0
   -1.1851    0.1524    0.7786 H   0  0  0  0  0  0  0  0  0  0  0  0
    0.4743    1.2685    3.7160 H   0  0  0  0  0  0  0  0  0  0  0  0
    0.5805    0.4706    2.1554 H   0  0  0  0  0  0  0  0  0  0  0  0
    1.9497    2.4482    1.3042 H   0  0  0  0  0  0  0  0  0  0  0  0
    2.7080    1.6400    2.6825 H   0  0  0  0  0  0  0  0  0  0  0  0
    1.8424    3.1619    2.9113 H   0  0  0  0  0  0  0  0  0  0  0  0
   -3.4965    3.2309    9.3365 H   0  0  0  0  0  0  0  0  0  0  0  0
   -2.9566    4.0161   13.6403 H   0  0  0  0  0  0  0  0  0  0  0  0
   -4.5209    5.8965   13.9404 H   0  0  0  0  0  0  0  0  0  0  0  0
   -7.7844    6.3131   10.9463 H   0  0  0  0  0  0  0  0  0  0  0  0
   -8.1437    7.5367   12.1814 H   0  0  0  0  0  0  0  0  0  0  0  0
   -9.0655    5.7963   13.6850 H   0  0  0  0  0  0  0  0  0  0  0  0
   -9.9151    5.7867   12.1330 H   0  0  0  0  0  0  0  0  0  0  0  0
   -8.7128    4.5404   12.4995 H   0  0  0  0  0  0  0  0  0  0  0  0
   -7.0117    4.3016   10.8525 H   0  0  0  0  0  0  0  0  0  0  0  0
   -5.4713    2.4568   10.5590 H   0  0  0  0  0  0  0  0  0  0  0  0
    0.8856   -0.7454   12.8673 H   0  0  0  0  0  0  0  0  0  0  0  0
    2.4534   -2.6178   12.5483 H   0  0  0  0  0  0  0  0  0  0  0  0
    3.1429   -5.9746    9.8783 H   0  0  0  0  0  0  0  0  0  0  0  0
    1.8583   -5.1715    8.9530 H   0  0  0  0  0  0  0  0  0  0  0  0
    1.4720   -6.9213   11.4437 H   0  0  0  0  0  0  0  0  0  0  0  0
    0.1597   -6.1337   10.5695 H   0  0  0  0  0  0  0  0  0  0  0  0
    1.1066   -7.4042    9.7809 H   0  0  0  0  0  0  0  0  0  0  0  0
    0.0335   -4.0832    9.3411 H   0  0  0  0  0  0  0  0  0  0  0  0
   -1.5176   -2.2522    9.6718 H   0  0  0  0  0  0  0  0  0  0  0  0
   -1.0853   -1.5297   14.0244 H   0  0  0  0  0  0  0  0  0  0  0  0
  1  2  2  0  0  0  0
  2  3  1  0  0  0  0
  3  4  2  0  0  0  0
  3  5  1  0  0  0  0
  5  6  2  0  0  0  0
  6  7  1  0  0  0  0
  7  8  2  0  0  0  0
  8  9  1  0  0  0  0
  8 10  1  0  0  0  0
 10 11  2  0  0  0  0
 11 12  1  0  0  0  0
 12 13  2  0  0  0  0
 13 14  1  0  0  0  0
 14 15  3  0  0  0  0
 13 16  1  0  0  0  0
 16 17  3  0  0  0  0
  1 18  1  0  0  0  0
 18 19  2  0  0  0  0
 19 20  1  0  0  0  0
 20 21  1  0  0  0  0
 21 22  2  0  0  0  0
 22 23  1  0  0  0  0
 23 24  2  0  0  0  0
 24 25  1  0  0  0  0
 24 26  1  0  0  0  0
 26 27  2  0  0  0  0
 20 28  1  0  0  0  0
 28 29  2  0  0  0  0
 29 30  1  0  0  0  0
 30 31  2  0  0  0  0
 31 32  1  0  0  0  0
 31 33  1  0  0  0  0
 33 34  2  0  0  0  0
 19 35  1  0  0  0  0
 35 36  1  0  0  0  0
 36 37  1  0  0  0  0
 37 38  2  0  0  0  0
 38 39  1  0  0  0  0
 39 40  1  0  0  0  0
 40 41  2  0  0  0  0
 41 42  1  0  0  0  0
 42 43  2  0  0  0  0
 43 44  1  0  0  0  0
 43 45  1  0  0  0  0
 45 46  2  0  0  0  0
 39 47  1  0  0  0  0
 47 48  2  0  0  0  0
 48 49  1  0  0  0  0
 49 50  2  0  0  0  0
 50 51  1  0  0  0  0
 50 52  1  0  0  0  0
 52 53  2  0  0  0  0
 38 54  1  0  0  0  0
 54 55  1  0  0  0  0
 37 56  1  0  0  0  0
 56 57  2  0  0  0  0
 57 58  1  0  0  0  0
 58 59  2  0  0  0  0
 59 60  1  0  0  0  0
 60 61  2  0  0  0  0
 61 62  1  0  0  0  0
 62 63  2  0  0  0  0
 63 64  1  0  0  0  0
 64 65  1  0  0  0  0
 57 66  1  0  0  0  0
 66 67  1  0  0  0  0
 67 68  1  0  0  0  0
 68 69  1  0  0  0  0
 69 70  1  0  0  0  0
 70 71  1  0  0  0  0
 71 72  2  0  0  0  0
 72 73  1  0  0  0  0
 73 74  1  0  0  0  0
 71 75  1  0  0  0  0
 75 76  1  0  0  0  0
 76 77  1  0  0  0  0
 77 78  1  0  0  0  0
 78 79  1  0  0  0  0
 79 80  1  0  0  0  0
 80 81  2  0  0  0  0
 81 82  1  0  0  0  0
 82 83  1  0  0  0  0
 81 84  1  0  0  0  0
 84 85  2  0  0  0  0
 85 86  1  0  0  0  0
 86 87  2  0  0  0  0
 79 88  2  0  0  0  0
 88 89  1  0  0  0  0
 89 90  1  0  0  0  0
 90 91  1  0  0  0  0
 91 92  1  0  0  0  0
 92 93  1  0  0  0  0
 93 94  1  0  0  0  0
 94 95  1  0  0  0  0
 95 96  1  0  0  0  0
 96 97  1  0  0  0  0
 97 98  1  0  0  0  0
 95 99  1  0  0  0  0
 99100  1  0  0  0  0
 92101  1  0  0  0  0
101102  1  0  0  0  0
 88103  1  0  0  0  0
103104  2  0  0  0  0
104105  1  0  0  0  0
105106  2  0  0  0  0
106107  1  0  0  0  0
107108  2  0  0  0  0
108109  1  0  0  0  0
109110  2  0  0  0  0
110111  1  0  0  0  0
111112  1  0  0  0  0
112113  1  0  0  0  0
110114  1  0  0  0  0
114115  2  0  0  0  0
106116  1  0  0  0  0
116117  2  0  0  0  0
117118  1  0  0  0  0
118119  1  0  0  0  0
119120  2  0  0  0  0
120121  1  0  0  0  0
121122  2  0  0  0  0
122123  1  0  0  0  0
123124  1  0  0  0  0
124125  1  0  0  0  0
122126  1  0  0  0  0
126127  2  0  0  0  0
118128  2  0  0  0  0
128129  1  0  0  0  0
117130  1  0  0  0  0
130131  2  0  0  0  0
131132  1  0  0  0  0
131133  1  0  0  0  0
133134  2  0  0  0  0
134135  1  0  0  0  0
135136  3  0  0  0  0
134137  1  0  0  0  0
137138  3  0  0  0  0
133139  1  0  0  0  0
139140  3  0  0  0  0
 12  2  1  0  0  0  0
 55 18  1  0  0  0  0
 98 56  1  0  0  0  0
129103  1  0  0  0  0
 11  5  1  0  0  0  0
 27 21  1  0  0  0  0
 34 28  1  0  0  0  0
 54 35  2  0  0  0  0
 63 58  1  0  0  0  0
 97 66  2  0  0  0  0
128105  1  0  0  0  0
 46 40  1  0  0  0  0
 53 47  1  0  0  0  0
 96 68  2  0  0  0  0
115107  1  0  0  0  0
132116  1  0  0  0  0
 94 69  2  0  0  0  0
127119  1  0  0  0  0
 74 70  2  0  0  0  0
 93 75  2  0  0  0  0
 91 76  2  0  0  0  0
 90 78  2  0  0  0  0
 87 80  1  0  0  0  0
  1141  1  0  0  0  0
  6142  1  0  0  0  0
  7143  1  0  0  0  0
 10144  1  0  0  0  0
 22145  1  0  0  0  0
 23146  1  0  0  0  0
 25147  1  0  0  0  0
 25148  1  0  0  0  0
 25149  1  0  0  0  0
 26150  1  0  0  0  0
 27151  1  0  0  0  0
 29152  1  0  0  0  0
 30153  1  0  0  0  0
 32154  1  0  0  0  0
 32155  1  0  0  0  0
 32156  1  0  0  0  0
 33157  1  0  0  0  0
 34158  1  0  0  0  0
 41159  1  0  0  0  0
 42160  1  0  0  0  0
 44161  1  0  0  0  0
 44162  1  0  0  0  0
 44163  1  0  0  0  0
 45164  1  0  0  0  0
 46165  1  0  0  0  0
 48166  1  0  0  0  0
 49167  1  0  0  0  0
 51168  1  0  0  0  0
 51169  1  0  0  0  0
 51170  1  0  0  0  0
 52171  1  0  0  0  0
 53172  1  0  0  0  0
 59173  1  0  0  0  0
 60174  1  0  0  0  0
 61175  1  0  0  0  0
 62176  1  0  0  0  0
 64177  1  0  0  0  0
 64178  1  0  0  0  0
 65179  1  0  0  0  0
 65180  1  0  0  0  0
 65181  1  0  0  0  0
 82182  1  0  0  0  0
 82183  1  0  0  0  0
 83184  1  0  0  0  0
 83185  1  0  0  0  0
 83186  1  0  0  0  0
 84187  1  0  0  0  0
 85188  1  0  0  0  0
 86189  1  0  0  0  0
 87190  1  0  0  0  0
 99191  1  0  0  0  0
 99192  1  0  0  0  0
100193  1  0  0  0  0
100194  1  0  0  0  0
100195  1  0  0  0  0
101196  1  0  0  0  0
101197  1  0  0  0  0
102198  1  0  0  0  0
102199  1  0  0  0  0
102200  1  0  0  0  0
104201  1  0  0  0  0
108202  1  0  0  0  0
109203  1  0  0  0  0
112204  1  0  0  0  0
112205  1  0  0  0  0
113206  1  0  0  0  0
113207  1  0  0  0  0
113208  1  0  0  0  0
114209  1  0  0  0  0
115210  1  0  0  0  0
120211  1  0  0  0  0
121212  1  0  0  0  0
124213  1  0  0  0  0
124214  1  0  0  0  0
125215  1  0  0  0  0
125216  1  0  0  0  0
125217  1  0  0  0  0
126218  1  0  0  0  0
127219  1  0  0  0  0
130220  1  0  0  0  0
M  END
