255

C          2.82640      -12.20650       -2.50430
C          1.60770      -12.78750       -2.79980
C          0.29140      -12.17020       -2.64320
O          0.02410      -11.01670       -2.35160
C         -0.69280      -13.24730       -2.88000
C         -2.07130      -13.18870       -2.83400
C         -2.79200      -14.34590       -3.08850
C         -2.11480      -15.52070       -3.38100
Br        -3.12340      -17.09610       -3.72160
C         -0.72750      -15.59530       -3.43670
C         -0.01170      -14.43880       -3.18080
C          1.42840      -14.16740       -3.17330
C          2.40200      -15.07740       -3.51070
C          3.77290      -14.79170       -3.65080
N          4.89970      -14.63890       -3.82060
C          2.15100      -16.43270       -3.80190
N          2.01840      -17.55060       -4.03000
C          3.13870      -10.89730       -2.15820
C          4.45160      -10.46270       -1.82230
N          5.52940      -11.28850       -1.63030
C          5.38490      -12.53090       -0.98210
C          4.51370      -12.65420        0.09760
C          4.34910      -13.87620        0.71860
C          5.05470      -14.99660        0.29580
C          4.87180      -16.32820        0.95560
C          5.94370      -14.85550       -0.76410
C          6.11050      -13.64330       -1.40270
C          6.79690      -10.89860       -2.09550
C          7.94870      -11.26250       -1.40300
C          9.19280      -10.96790       -1.92400
C          9.32550      -10.28590       -3.12750
C         10.67350      -10.04590       -3.73360
C          8.17060       -9.87580       -3.78280
C          6.92120      -10.18400       -3.28490
C          4.50110       -9.06530       -1.70800
S          5.74760       -7.91880       -1.32160
C          4.59080       -6.59980       -1.42660
C          3.32560       -7.03130       -1.81540
N          2.24140       -6.22570       -2.12970
C          2.38510       -5.01330       -2.80960
C          3.44090       -4.79590       -3.69400
C          3.63760       -3.54630       -4.24770
C          2.78900       -2.48500       -3.95810
C          3.03640       -1.12530       -4.53630
C          1.69920       -2.72700       -3.13060
C          1.49510       -3.96710       -2.56130
C          0.95980       -6.72460       -1.82770
C          0.72280       -7.32250       -0.59290
C         -0.51030       -7.87670       -0.31750
C         -1.53570       -7.84140       -1.25440
C         -2.84810       -8.49970       -0.96270
C         -1.29980       -7.21300       -2.47030
C         -0.06820       -6.66090       -2.76170
C          3.27960       -8.43980       -1.93210
S          1.99850       -9.55230       -2.23840
C          4.95980       -5.23620       -1.21030
C          6.02450       -4.53630       -1.74330
C          7.21390       -5.15130       -2.34060
C          7.55680       -4.92770       -3.66700
C          8.71060       -5.49690       -4.17350
C          9.52480       -6.26670       -3.36210
C          9.20390       -6.48850       -2.02730
C         10.13520       -7.28070       -1.15120
C          9.44470       -8.04210       -0.02430
C          8.03770       -5.92710       -1.53210
C          5.81990       -3.14630       -1.65040
S          6.66900       -1.77440       -2.32120
C          5.38950       -0.73770       -1.77690
C          4.98420        0.60910       -1.87210
C          5.60740        1.79680       -2.31990
C          4.92580        3.05980       -2.15890
N          5.66780        4.08320       -2.54940
S          7.08850        3.51990       -3.08420
N          6.81720        1.94340       -2.83530
C          3.58460        3.07240       -1.71000
C          2.59500        4.07200       -1.61160
S          2.43560        5.79500       -1.73370
C          0.74010        5.64980       -1.33630
C         -0.27040        6.60060       -1.08650
C         -0.07010        8.04640       -1.22080
C         -0.87590        8.79320       -2.07480
C         -0.67400       10.15530       -2.19560
C          0.33540       10.77540       -1.48130
C          1.16920       10.03880       -0.64860
C          2.25250       10.70820        0.14740
C          1.75100       11.04950        1.55210
C          0.95640        8.67400       -0.52610
C         -1.43200        5.99180       -0.65350
S         -1.33220        4.23380       -0.72440
C          0.33410        4.32970       -1.15080
C          1.39300        3.42970       -1.29580
N          1.59600        2.08130       -1.15820
C          2.94080        1.85430       -1.37720
C          3.69560        0.66810       -1.28460
N          3.36000       -0.56760       -0.76770
C          4.38420       -1.42160       -1.08470
C          4.63710       -2.79250       -1.00170
S          3.79560       -4.17740       -0.41630
C          2.49590       -0.81930        0.36660
C          3.30980       -1.06800        1.63610
C          0.51530        1.14100       -1.36770
C         -0.14400        1.34820       -2.73130
C         -2.57850        6.56460       -0.01980
C         -3.18680        6.09770        1.14270
N         -2.72230        5.07850        1.95630
C         -1.35900        4.82350        2.13260
C         -0.91910        3.51230        2.31580
C          0.43080        3.22880        2.36500
C          1.38160        4.23370        2.23950
C          2.84630        3.92150        2.21150
C          0.93520        5.54500        2.12010
C         -0.41120        5.84500        2.07350
C         -3.67480        4.33160        2.67690
C         -4.82490        3.87090        2.04310
C         -5.79460        3.20650        2.76670
C         -5.63960        2.97720        4.12780
C         -6.72800        2.31950        4.91790
C         -4.46980        3.40630        4.74260
C         -3.49510        4.07710        4.03210
C         -4.35290        6.84270        1.44340
S         -5.53480        6.74090        2.69940
C         -6.40820        8.10860        1.99630
C         -5.70270        8.68090        0.89940
N         -6.04500        9.82510        0.24140
C         -6.67320       10.91900        0.86830
C         -6.38190       11.25810        2.18710
C         -7.01740       12.33100        2.77910
C         -7.93660       13.10040        2.07470
C         -8.65010       14.24560        2.72380
C         -8.19240       12.77420        0.74820
C         -7.57530       11.69590        0.14650
C         -5.59620        9.99900       -1.08650
C         -5.83160        9.01000       -2.03680
C         -5.36340        9.16720       -3.32580
C         -4.65850       10.30630       -3.69820
C         -4.11730       10.44590       -5.08720
C         -4.45120       11.29770       -2.74650
C         -4.91330       11.15300       -1.45350
C         -4.58320        7.89910        0.57130
S         -3.36480        7.99690       -0.65880
C         -7.70030        8.47940        2.34090
C         -8.53760        7.99610        3.32950
C         -8.17270        7.05150        4.38210
O         -7.10400        6.48530        4.55040
C         -9.36050        6.92330        5.24750
C         -9.52970        6.15510        6.36100
C        -10.77150        6.18550        7.03590
C        -11.00600        5.40700        8.18670
C        -12.21300        5.44360        8.82900
C        -13.22230        6.27330        8.32480
F        -14.40500        6.29670        8.97000
C        -13.04680        7.04930        7.21290
C        -11.81120        7.02220        6.53820
C        -11.60310        7.80920        5.37980
C        -10.39450        7.75920        4.74070
C         -9.89990        8.41830        3.53180
C        -10.64450        9.25730        2.73390
C        -10.24050        9.78900        1.49580
N        -10.00990       10.23130        0.45890
C        -11.95340        9.67760        3.03810
N        -13.01490       10.07460        3.22880
H          3.67910      -12.87210       -2.54040
H         -2.56920      -12.25880       -2.60730
H         -3.87060      -14.34050       -3.06130
H         -0.24640      -16.53100       -3.67020
H          3.96150      -11.79110        0.43990
H          3.66450      -13.95750        1.55050
H          4.15430      -16.26640        1.76980
H          5.81980      -16.68900        1.35250
H          4.51620      -17.06160        0.23260
H          6.50070      -15.71350       -1.10900
H          6.78540      -13.55930       -2.23940
H          7.86400      -11.78910       -0.46420
H         10.07660      -11.27690       -1.38510
H         10.90580      -10.84700       -4.43660
H         11.45140      -10.03480       -2.97350
H         10.69130       -9.10770       -4.28300
H          8.24940       -9.32870       -4.71060
H          6.03560       -9.89790       -3.83290
H          4.11580       -5.60470       -3.93310
H          4.47330       -3.38840       -4.91410
H          2.59840       -1.05190       -5.53260
H          2.59310       -0.35190       -3.91280
H          4.10330       -0.93110       -4.62360
H          1.00870       -1.92420       -2.91190
H          0.66420       -4.12930       -1.89060
H          1.51530       -7.35610        0.14110
H         -0.67870       -8.35150        0.63810
H         -2.73560       -9.58000       -1.05370
H         -3.17630       -8.28200        0.05210
H         -3.61520       -8.17380       -1.66070
H         -2.08530       -7.17160       -3.21100
H          0.11020       -6.19320       -3.71900
H          6.92110       -4.31870       -4.29160
H          8.98050       -5.33320       -5.20670
H         10.43330       -6.69010       -3.76610
H         10.87130       -6.59260       -0.72160
H         10.68170       -7.98690       -1.77760
H          9.07300       -7.36630        0.74130
H         10.14890       -8.72430        0.44650
H          8.61090       -8.62090       -0.41470
H          7.76510       -6.06070       -0.49680
H         -1.63960        8.30170       -2.65900
H         -1.30850       10.73250       -2.85160
H          0.48780       11.84080       -1.57920
H          3.11620       10.04470        0.22410
H          2.56880       11.62430       -0.35490
H          0.89430       11.71750        1.49590
H          1.44540       10.14630        2.07570
H          2.53420       11.53660        2.12830
H          1.59210        8.08720        0.12100
H          1.87280       -1.69390        0.15080
H          1.86450        0.05380        0.52670
H          3.97260       -0.22660        1.82820
H          3.90800       -1.96990        1.54370
H          2.63790       -1.18560        2.48190
H          0.91500        0.12930       -1.32760
H         -0.22670        1.27610       -0.57380
H          0.59730        1.27200       -3.52450
H         -0.61800        2.32360       -2.79040
H         -0.90320        0.58660       -2.88780
H         -1.64660        2.71690        2.38370
H          0.75120        2.20310        2.48440
H          3.40220        4.61750        2.83680
H          3.03590        2.90860        2.55890
H          3.22970        4.01100        1.19390
H          1.65870        6.34510        2.05660
H         -0.73400        6.87140        1.97770
H         -4.95590        4.04850        0.98520
H         -6.69090        2.86750        2.26750
H         -7.45120        3.07380        5.23000
H         -6.33090        1.83930        5.80910
H         -7.25340        1.57870        4.31900
H         -4.32790        3.23140        5.79920
H         -2.59840        4.42470        4.52410
H         -5.66410       10.67550        2.74600
H         -6.78840       12.57840        3.80570
H         -8.20640       14.48920        3.68580
H         -8.61970       15.12780        2.08720
H         -9.69730       13.98810        2.88300
H         -8.90060       13.36030        0.18260
H         -7.79910       11.44130       -0.87740
H         -6.38230        8.12410       -1.75690
H         -5.54870        8.39320       -4.05600
H         -4.80460       10.02130       -5.81550
H         -3.17000        9.91160       -5.17100
H         -3.94040       11.48960       -5.33460
H         -3.91450       12.19500       -3.01850
H         -4.73960       11.92560       -0.71920
H         -8.12030        9.25450        1.71310
H         -8.72730        5.52980        6.72370
H        -10.21190        4.77560        8.55660
H        -12.40860        4.85310        9.71000
H        -13.84730        7.67650        6.85260
H        -12.41160        8.43050        5.02970
