
  xtb     02062206463D
 energy: -411.494842190130 gnorm: 0.000523393904 xtb: 6.4.1 (unknown)
249274  0     0  0            999 V2000
   -1.0671   -0.8915   -2.9201 C   0  0  0  0  0  0  0  0  0  0  0  0
   -1.7993   -1.9446   -2.3883 C   0  0  0  0  0  0  0  0  0  0  0  0
   -1.2974   -3.2748   -2.0375 C   0  0  0  0  0  0  0  0  0  0  0  0
   -0.2319   -3.7994   -2.3207 O   0  0  0  0  0  0  0  0  0  0  0  0
   -2.3616   -3.9211   -1.2448 C   0  0  0  0  0  0  0  0  0  0  0  0
   -2.3725   -5.1768   -0.6709 C   0  0  0  0  0  0  0  0  0  0  0  0
   -3.5260   -5.5969   -0.0260 C   0  0  0  0  0  0  0  0  0  0  0  0
   -4.6220   -4.7470    0.0423 C   0  0  0  0  0  0  0  0  0  0  0  0
   -6.1860   -5.3657    0.9045 Br  0  0  0  0  0  0  0  0  0  0  0  0
   -4.6192   -3.4744   -0.5183 C   0  0  0  0  0  0  0  0  0  0  0  0
   -3.4740   -3.0685   -1.1786 C   0  0  0  0  0  0  0  0  0  0  0  0
   -3.1631   -1.8527   -1.9336 C   0  0  0  0  0  0  0  0  0  0  0  0
   -4.0892   -0.8894   -2.2557 C   0  0  0  0  0  0  0  0  0  0  0  0
   -3.8841    0.1887   -3.1342 C   0  0  0  0  0  0  0  0  0  0  0  0
   -3.8685    1.0724   -3.8703 N   0  0  0  0  0  0  0  0  0  0  0  0
   -5.4466   -0.9008   -1.8798 C   0  0  0  0  0  0  0  0  0  0  0  0
   -6.5741   -0.8154   -1.6723 N   0  0  0  0  0  0  0  0  0  0  0  0
    0.2315   -0.8734   -3.4191 C   0  0  0  0  0  0  0  0  0  0  0  0
    1.0323    0.2947   -3.5762 C   0  0  0  0  0  0  0  0  0  0  0  0
    0.6785    1.5730   -3.2020 N   0  0  0  0  0  0  0  0  0  0  0  0
    1.6234    2.3475   -2.4956 C   0  0  0  0  0  0  0  0  0  0  0  0
    1.8174    3.6946   -2.7836 C   0  0  0  0  0  0  0  0  0  0  0  0
    2.7439    4.4303   -2.0677 C   0  0  0  0  0  0  0  0  0  0  0  0
    3.5118    3.8507   -1.0652 C   0  0  0  0  0  0  0  0  0  0  0  0
    4.5083    4.6499   -0.2838 C   0  0  0  0  0  0  0  0  0  0  0  0
    3.3128    2.5029   -0.7854 C   0  0  0  0  0  0  0  0  0  0  0  0
    2.3785    1.7630   -1.4791 C   0  0  0  0  0  0  0  0  0  0  0  0
   -0.4942    2.1926   -3.6682 C   0  0  0  0  0  0  0  0  0  0  0  0
   -1.1921    3.0773   -2.8501 C   0  0  0  0  0  0  0  0  0  0  0  0
   -2.2781    3.7689   -3.3476 C   0  0  0  0  0  0  0  0  0  0  0  0
   -2.6933    3.6016   -4.6638 C   0  0  0  0  0  0  0  0  0  0  0  0
   -3.8231    4.4091   -5.2193 C   0  0  0  0  0  0  0  0  0  0  0  0
   -2.0129    2.6870   -5.4600 C   0  0  0  0  0  0  0  0  0  0  0  0
   -0.9298    1.9838   -4.9740 C   0  0  0  0  0  0  0  0  0  0  0  0
    2.3340   -0.0418   -3.9563 C   0  0  0  0  0  0  0  0  0  0  0  0
    3.7954    0.8856   -4.0934 S   0  0  0  0  0  0  0  0  0  0  0  0
    4.7414   -0.6183   -4.0109 C   0  0  0  0  0  0  0  0  0  0  0  0
    3.9413   -1.7476   -4.1860 C   0  0  0  0  0  0  0  0  0  0  0  0
    4.4294   -3.0283   -4.2274 N   0  0  0  0  0  0  0  0  0  0  0  0
    5.7965   -3.2400   -4.5523 C   0  0  0  0  0  0  0  0  0  0  0  0
    6.3891   -2.5413   -5.6001 C   0  0  0  0  0  0  0  0  0  0  0  0
    7.7179   -2.7461   -5.9082 C   0  0  0  0  0  0  0  0  0  0  0  0
    8.4888   -3.6557   -5.1912 C   0  0  0  0  0  0  0  0  0  0  0  0
    9.9335   -3.8535   -5.5315 C   0  0  0  0  0  0  0  0  0  0  0  0
    7.8843   -4.3604   -4.1607 C   0  0  0  0  0  0  0  0  0  0  0  0
    6.5538   -4.1584   -3.8397 C   0  0  0  0  0  0  0  0  0  0  0  0
    3.5297   -4.0843   -4.5591 C   0  0  0  0  0  0  0  0  0  0  0  0
    3.3890   -5.1918   -3.7362 C   0  0  0  0  0  0  0  0  0  0  0  0
    2.4989   -6.1935   -4.0734 C   0  0  0  0  0  0  0  0  0  0  0  0
    1.7364   -6.1182   -5.2316 C   0  0  0  0  0  0  0  0  0  0  0  0
    0.7398   -7.1851   -5.5617 C   0  0  0  0  0  0  0  0  0  0  0  0
    1.9027   -5.0171   -6.0615 C   0  0  0  0  0  0  0  0  0  0  0  0
    2.7910   -4.0118   -5.7351 C   0  0  0  0  0  0  0  0  0  0  0  0
    2.5672   -1.4061   -4.1213 C   0  0  0  0  0  0  0  0  0  0  0  0
    1.1469   -2.3300   -3.8162 S   0  0  0  0  0  0  0  0  0  0  0  0
    5.9367   -0.5152   -3.2406 C   0  0  0  0  0  0  0  0  0  0  0  0
    6.6392    0.6656   -3.0474 C   0  0  0  0  0  0  0  0  0  0  0  0
    6.7475    1.6703   -4.1014 C   0  0  0  0  0  0  0  0  0  0  0  0
    7.0991    1.2727   -5.3898 C   0  0  0  0  0  0  0  0  0  0  0  0
    7.2059    2.2129   -6.3959 C   0  0  0  0  0  0  0  0  0  0  0  0
    6.9491    3.5469   -6.1320 C   0  0  0  0  0  0  0  0  0  0  0  0
    6.5813    3.9575   -4.8561 C   0  0  0  0  0  0  0  0  0  0  0  0
    6.2214    5.3899   -4.5892 C   0  0  0  0  0  0  0  0  0  0  0  0
    4.7674    5.6431   -4.9924 C   0  0  0  0  0  0  0  0  0  0  0  0
    6.4892    3.0134   -3.8465 C   0  0  0  0  0  0  0  0  0  0  0  0
    7.0670    0.7992   -1.7120 C   0  0  0  0  0  0  0  0  0  0  0  0
    7.5359    2.2060   -0.7760 S   0  0  0  0  0  0  0  0  0  0  0  0
    7.0216    1.3910    0.6710 C   0  0  0  0  0  0  0  0  0  0  0  0
    6.5006    1.7443    1.9324 C   0  0  0  0  0  0  0  0  0  0  0  0
    6.4247    2.9711    2.6299 C   0  0  0  0  0  0  0  0  0  0  0  0
    5.4893    3.1029    3.7194 C   0  0  0  0  0  0  0  0  0  0  0  0
    5.5073    4.3128    4.2516 N   0  0  0  0  0  0  0  0  0  0  0  0
    6.6010    5.2114    3.4631 S   0  0  0  0  0  0  0  0  0  0  0  0
    7.0875    4.0913    2.3977 N   0  0  0  0  0  0  0  0  0  0  0  0
    4.5974    2.0373    3.9876 C   0  0  0  0  0  0  0  0  0  0  0  0
    3.3204    2.0221    4.5781 C   0  0  0  0  0  0  0  0  0  0  0  0
    2.1721    3.1549    5.2280 S   0  0  0  0  0  0  0  0  0  0  0  0
    0.8936    1.9877    4.9518 C   0  0  0  0  0  0  0  0  0  0  0  0
   -0.5076    2.0953    4.9248 C   0  0  0  0  0  0  0  0  0  0  0  0
   -1.2242    3.3099    5.3320 C   0  0  0  0  0  0  0  0  0  0  0  0
   -0.9757    4.5173    4.6880 C   0  0  0  0  0  0  0  0  0  0  0  0
   -1.6452    5.6580    5.0881 C   0  0  0  0  0  0  0  0  0  0  0  0
   -2.5407    5.6097    6.1413 C   0  0  0  0  0  0  0  0  0  0  0  0
   -2.7836    4.4157    6.8079 C   0  0  0  0  0  0  0  0  0  0  0  0
   -3.6973    4.3732    7.9979 C   0  0  0  0  0  0  0  0  0  0  0  0
   -2.8913    4.4762    9.2939 C   0  0  0  0  0  0  0  0  0  0  0  0
   -2.1241    3.2697    6.3917 C   0  0  0  0  0  0  0  0  0  0  0  0
   -1.0993    0.9421    4.4243 C   0  0  0  0  0  0  0  0  0  0  0  0
    0.0823   -0.3284    4.1342 S   0  0  0  0  0  0  0  0  0  0  0  0
    1.3718    0.7564    4.5021 C   0  0  0  0  0  0  0  0  0  0  0  0
    2.7516    0.7801    4.2758 C   0  0  0  0  0  0  0  0  0  0  0  0
    3.6338    0.0162    3.5640 N   0  0  0  0  0  0  0  0  0  0  0  0
    4.7623    0.7774    3.3457 C   0  0  0  0  0  0  0  0  0  0  0  0
    5.8078    0.5997    2.4092 C   0  0  0  0  0  0  0  0  0  0  0  0
    6.0257   -0.4586    1.5390 N   0  0  0  0  0  0  0  0  0  0  0  0
    6.6862    0.0521    0.4480 C   0  0  0  0  0  0  0  0  0  0  0  0
    6.7318   -0.2902   -0.9066 C   0  0  0  0  0  0  0  0  0  0  0  0
    6.0329   -1.5829   -1.8233 S   0  0  0  0  0  0  0  0  0  0  0  0
    6.1222   -1.8655    1.8618 C   0  0  0  0  0  0  0  0  0  0  0  0
    7.5822   -2.3153    1.9097 C   0  0  0  0  0  0  0  0  0  0  0  0
    3.1690   -1.1831    2.9095 C   0  0  0  0  0  0  0  0  0  0  0  0
    3.1664   -2.3779    3.8597 C   0  0  0  0  0  0  0  0  0  0  0  0
   -2.4289    0.7851    3.9444 C   0  0  0  0  0  0  0  0  0  0  0  0
   -3.0325   -0.3188    3.3505 C   0  0  0  0  0  0  0  0  0  0  0  0
   -2.4550   -1.5873    3.1418 N   0  0  0  0  0  0  0  0  0  0  0  0
   -3.1454   -2.6709    3.6984 C   0  0  0  0  0  0  0  0  0  0  0  0
   -3.2642   -3.8952    3.0413 C   0  0  0  0  0  0  0  0  0  0  0  0
   -3.9425   -4.9378    3.6302 C   0  0  0  0  0  0  0  0  0  0  0  0
   -4.5453   -4.7818    4.8756 C   0  0  0  0  0  0  0  0  0  0  0  0
   -5.3686   -6.1960    5.5375 S   0  0  0  0  0  0  0  0  0  0  0  0
   -6.3590   -5.5131    6.8976 C   0  0  0  0  0  0  0  0  0  0  0  0
   -4.4523   -3.5588    5.5241 C   0  0  0  0  0  0  0  0  0  0  0  0
   -3.7562   -2.5185    4.9409 C   0  0  0  0  0  0  0  0  0  0  0  0
   -1.4783   -1.7249    2.1603 C   0  0  0  0  0  0  0  0  0  0  0  0
   -0.6035   -2.8149    2.1600 C   0  0  0  0  0  0  0  0  0  0  0  0
    0.4603   -2.8686    1.2856 C   0  0  0  0  0  0  0  0  0  0  0  0
    0.6989   -1.8244    0.4019 C   0  0  0  0  0  0  0  0  0  0  0  0
    2.1734   -1.7095   -0.5709 S   0  0  0  0  0  0  0  0  0  0  0  0
    2.6678   -3.4310   -0.8348 C   0  0  0  0  0  0  0  0  0  0  0  0
   -0.1942   -0.7599    0.3569 C   0  0  0  0  0  0  0  0  0  0  0  0
   -1.2764   -0.7196    1.2095 C   0  0  0  0  0  0  0  0  0  0  0  0
   -4.3304   -0.0249    2.8814 C   0  0  0  0  0  0  0  0  0  0  0  0
   -5.5162   -0.9354    2.0079 S   0  0  0  0  0  0  0  0  0  0  0  0
   -6.4673    0.5306    1.7665 C   0  0  0  0  0  0  0  0  0  0  0  0
   -5.8390    1.6601    2.3224 C   0  0  0  0  0  0  0  0  0  0  0  0
   -6.2392    2.9627    2.0766 N   0  0  0  0  0  0  0  0  0  0  0  0
   -6.4359    3.3269    0.7295 C   0  0  0  0  0  0  0  0  0  0  0  0
   -7.4314    4.2283    0.3607 C   0  0  0  0  0  0  0  0  0  0  0  0
   -7.6641    4.4899   -0.9740 C   0  0  0  0  0  0  0  0  0  0  0  0
   -6.9102    3.8569   -1.9567 C   0  0  0  0  0  0  0  0  0  0  0  0
   -7.2902    4.1659   -3.6550 S   0  0  0  0  0  0  0  0  0  0  0  0
   -6.9462    2.5433   -4.4014 C   0  0  0  0  0  0  0  0  0  0  0  0
   -5.8751    3.0062   -1.5915 C   0  0  0  0  0  0  0  0  0  0  0  0
   -5.6435    2.7455   -0.2588 C   0  0  0  0  0  0  0  0  0  0  0  0
   -6.1519    3.9060    3.0997 C   0  0  0  0  0  0  0  0  0  0  0  0
   -6.4497    3.5251    4.4078 C   0  0  0  0  0  0  0  0  0  0  0  0
   -6.3946    4.4401    5.4381 C   0  0  0  0  0  0  0  0  0  0  0  0
   -6.0518    5.7588    5.1759 C   0  0  0  0  0  0  0  0  0  0  0  0
   -5.9935    7.0017    6.4343 S   0  0  0  0  0  0  0  0  0  0  0  0
   -7.2342    6.4134    7.6285 C   0  0  0  0  0  0  0  0  0  0  0  0
   -5.7283    6.1398    3.8775 C   0  0  0  0  0  0  0  0  0  0  0  0
   -5.7750    5.2254    2.8486 C   0  0  0  0  0  0  0  0  0  0  0  0
   -4.6751    1.3128    3.0187 C   0  0  0  0  0  0  0  0  0  0  0  0
   -3.4625    2.2140    3.8673 S   0  0  0  0  0  0  0  0  0  0  0  0
   -7.7072    0.5933    1.1174 C   0  0  0  0  0  0  0  0  0  0  0  0
   -8.4398   -0.3952    0.5288 C   0  0  0  0  0  0  0  0  0  0  0  0
   -8.1149   -1.8063    0.3861 C   0  0  0  0  0  0  0  0  0  0  0  0
   -7.1462   -2.3918    0.8427 O   0  0  0  0  0  0  0  0  0  0  0  0
   -9.2092   -2.4032   -0.4119 C   0  0  0  0  0  0  0  0  0  0  0  0
   -9.3841   -3.7084   -0.8301 C   0  0  0  0  0  0  0  0  0  0  0  0
  -10.5137   -4.0082   -1.5817 C   0  0  0  0  0  0  0  0  0  0  0  0
  -11.4396   -3.0268   -1.9044 C   0  0  0  0  0  0  0  0  0  0  0  0
  -11.2664   -1.7138   -1.4825 C   0  0  0  0  0  0  0  0  0  0  0  0
  -10.1462   -1.4117   -0.7335 C   0  0  0  0  0  0  0  0  0  0  0  0
   -9.7166   -0.1157   -0.1503 C   0  0  0  0  0  0  0  0  0  0  0  0
  -10.2933    0.9496   -0.2145 O   0  0  0  0  0  0  0  0  0  0  0  0
   -1.5466    0.0825   -2.8842 H   0  0  0  0  0  0  0  0  0  0  0  0
   -1.5054   -5.8156   -0.7395 H   0  0  0  0  0  0  0  0  0  0  0  0
   -3.5803   -6.5782    0.4199 H   0  0  0  0  0  0  0  0  0  0  0  0
   -5.4888   -2.8465   -0.4153 H   0  0  0  0  0  0  0  0  0  0  0  0
    1.2456    4.1623   -3.5717 H   0  0  0  0  0  0  0  0  0  0  0  0
    2.8754    5.4776   -2.2990 H   0  0  0  0  0  0  0  0  0  0  0  0
    4.1339    4.8292    0.7248 H   0  0  0  0  0  0  0  0  0  0  0  0
    5.4521    4.1152   -0.1909 H   0  0  0  0  0  0  0  0  0  0  0  0
    4.6939    5.6122   -0.7543 H   0  0  0  0  0  0  0  0  0  0  0  0
    3.8923    2.0270   -0.0062 H   0  0  0  0  0  0  0  0  0  0  0  0
    2.2378    0.7206   -1.2390 H   0  0  0  0  0  0  0  0  0  0  0  0
   -0.8686    3.2244   -1.8294 H   0  0  0  0  0  0  0  0  0  0  0  0
   -2.8129    4.4518   -2.7029 H   0  0  0  0  0  0  0  0  0  0  0  0
   -3.4384    5.3365   -5.6463 H   0  0  0  0  0  0  0  0  0  0  0  0
   -4.3379    3.8664   -6.0081 H   0  0  0  0  0  0  0  0  0  0  0  0
   -4.5374    4.6733   -4.4435 H   0  0  0  0  0  0  0  0  0  0  0  0
   -2.3319    2.5287   -6.4795 H   0  0  0  0  0  0  0  0  0  0  0  0
   -0.3981    1.2858   -5.6051 H   0  0  0  0  0  0  0  0  0  0  0  0
    5.8016   -1.8383   -6.1732 H   0  0  0  0  0  0  0  0  0  0  0  0
    8.1665   -2.1987   -6.7252 H   0  0  0  0  0  0  0  0  0  0  0  0
   10.3545   -4.6875   -4.9763 H   0  0  0  0  0  0  0  0  0  0  0  0
   10.5027   -2.9558   -5.2906 H   0  0  0  0  0  0  0  0  0  0  0  0
   10.0523   -4.0453   -6.5965 H   0  0  0  0  0  0  0  0  0  0  0  0
    8.4614   -5.0752   -3.5922 H   0  0  0  0  0  0  0  0  0  0  0  0
    6.1092   -4.7087   -3.0263 H   0  0  0  0  0  0  0  0  0  0  0  0
    3.9613   -5.2695   -2.8254 H   0  0  0  0  0  0  0  0  0  0  0  0
    2.3878   -7.0453   -3.4183 H   0  0  0  0  0  0  0  0  0  0  0  0
   -0.2091   -6.9601   -5.0738 H   0  0  0  0  0  0  0  0  0  0  0  0
    0.5642   -7.2375   -6.6334 H   0  0  0  0  0  0  0  0  0  0  0  0
    1.0771   -8.1571   -5.2091 H   0  0  0  0  0  0  0  0  0  0  0  0
    1.3294   -4.9440   -6.9742 H   0  0  0  0  0  0  0  0  0  0  0  0
    2.9131   -3.1609   -6.3899 H   0  0  0  0  0  0  0  0  0  0  0  0
    7.3044    0.2300   -5.5840 H   0  0  0  0  0  0  0  0  0  0  0  0
    7.4905    1.9053   -7.3918 H   0  0  0  0  0  0  0  0  0  0  0  0
    7.0322    4.2777   -6.9237 H   0  0  0  0  0  0  0  0  0  0  0  0
    6.3467    5.6097   -3.5277 H   0  0  0  0  0  0  0  0  0  0  0  0
    6.8767    6.0528   -5.1582 H   0  0  0  0  0  0  0  0  0  0  0  0
    4.6342    5.4714   -6.0582 H   0  0  0  0  0  0  0  0  0  0  0  0
    4.1082    4.9667   -4.4530 H   0  0  0  0  0  0  0  0  0  0  0  0
    4.4819    6.6685   -4.7685 H   0  0  0  0  0  0  0  0  0  0  0  0
    6.1831    3.3188   -2.8575 H   0  0  0  0  0  0  0  0  0  0  0  0
   -0.2734    4.5508    3.8684 H   0  0  0  0  0  0  0  0  0  0  0  0
   -1.4637    6.5926    4.5786 H   0  0  0  0  0  0  0  0  0  0  0  0
   -3.0578    6.5065    6.4492 H   0  0  0  0  0  0  0  0  0  0  0  0
   -4.3957    5.2085    7.9466 H   0  0  0  0  0  0  0  0  0  0  0  0
   -4.2642    3.4391    7.9966 H   0  0  0  0  0  0  0  0  0  0  0  0
   -3.5508    4.4441   10.1585 H   0  0  0  0  0  0  0  0  0  0  0  0
   -2.1817    3.6551    9.3671 H   0  0  0  0  0  0  0  0  0  0  0  0
   -2.3353    5.4106    9.3157 H   0  0  0  0  0  0  0  0  0  0  0  0
   -2.3039    2.3304    6.8969 H   0  0  0  0  0  0  0  0  0  0  0  0
    5.5900   -2.4435    1.0978 H   0  0  0  0  0  0  0  0  0  0  0  0
    5.6692   -2.0334    2.8370 H   0  0  0  0  0  0  0  0  0  0  0  0
    7.6341   -3.3619    2.1977 H   0  0  0  0  0  0  0  0  0  0  0  0
    8.1367   -1.7246    2.6358 H   0  0  0  0  0  0  0  0  0  0  0  0
    8.0509   -2.1997    0.9357 H   0  0  0  0  0  0  0  0  0  0  0  0
    3.7655   -1.3655    2.0191 H   0  0  0  0  0  0  0  0  0  0  0  0
    2.1411   -1.0009    2.5785 H   0  0  0  0  0  0  0  0  0  0  0  0
    4.1526   -2.5552    4.2837 H   0  0  0  0  0  0  0  0  0  0  0  0
    2.4722   -2.1970    4.6765 H   0  0  0  0  0  0  0  0  0  0  0  0
    2.8454   -3.2700    3.3305 H   0  0  0  0  0  0  0  0  0  0  0  0
   -2.8361   -4.0188    2.0587 H   0  0  0  0  0  0  0  0  0  0  0  0
   -4.0278   -5.8891    3.1282 H   0  0  0  0  0  0  0  0  0  0  0  0
   -5.7153   -5.1998    7.7148 H   0  0  0  0  0  0  0  0  0  0  0  0
   -6.9607   -4.6881    6.5284 H   0  0  0  0  0  0  0  0  0  0  0  0
   -7.0023   -6.3225    7.2278 H   0  0  0  0  0  0  0  0  0  0  0  0
   -4.9081   -3.4034    6.4888 H   0  0  0  0  0  0  0  0  0  0  0  0
   -3.6802   -1.5735    5.4587 H   0  0  0  0  0  0  0  0  0  0  0  0
   -0.7250   -3.5992    2.8905 H   0  0  0  0  0  0  0  0  0  0  0  0
    1.1232   -3.7183    1.3240 H   0  0  0  0  0  0  0  0  0  0  0  0
    1.8473   -3.9635   -1.3073 H   0  0  0  0  0  0  0  0  0  0  0  0
    2.9670   -3.8920    0.1024 H   0  0  0  0  0  0  0  0  0  0  0  0
    3.5185   -3.3735   -1.5063 H   0  0  0  0  0  0  0  0  0  0  0  0
   -0.0260    0.0478   -0.3394 H   0  0  0  0  0  0  0  0  0  0  0  0
   -1.9550    0.1191    1.1629 H   0  0  0  0  0  0  0  0  0  0  0  0
   -8.0389    4.6957    1.1212 H   0  0  0  0  0  0  0  0  0  0  0  0
   -8.4518    5.1661   -1.2669 H   0  0  0  0  0  0  0  0  0  0  0  0
   -7.4108    1.7731   -3.7925 H   0  0  0  0  0  0  0  0  0  0  0  0
   -5.8774    2.3713   -4.4896 H   0  0  0  0  0  0  0  0  0  0  0  0
   -7.4010    2.5676   -5.3867 H   0  0  0  0  0  0  0  0  0  0  0  0
   -5.2451    2.5503   -2.3385 H   0  0  0  0  0  0  0  0  0  0  0  0
   -4.8399    2.0795    0.0208 H   0  0  0  0  0  0  0  0  0  0  0  0
   -6.7385    2.5045    4.6120 H   0  0  0  0  0  0  0  0  0  0  0  0
   -6.6304    4.1182    6.4397 H   0  0  0  0  0  0  0  0  0  0  0  0
   -6.8371    5.5987    8.2277 H   0  0  0  0  0  0  0  0  0  0  0  0
   -8.1261    6.1043    7.0926 H   0  0  0  0  0  0  0  0  0  0  0  0
   -7.4574    7.2616    8.2680 H   0  0  0  0  0  0  0  0  0  0  0  0
   -5.4416    7.1619    3.6842 H   0  0  0  0  0  0  0  0  0  0  0  0
   -5.5217    5.5273    1.8437 H   0  0  0  0  0  0  0  0  0  0  0  0
   -8.1605    1.5793    1.0778 H   0  0  0  0  0  0  0  0  0  0  0  0
   -8.6655   -4.4707   -0.5718 H   0  0  0  0  0  0  0  0  0  0  0  0
  -10.6738   -5.0218   -1.9191 H   0  0  0  0  0  0  0  0  0  0  0  0
  -12.3089   -3.2882   -2.4901 H   0  0  0  0  0  0  0  0  0  0  0  0
  -11.9832   -0.9447   -1.7270 H   0  0  0  0  0  0  0  0  0  0  0  0
  1  2  2  0  0  0  0
  2  3  1  0  0  0  0
  3  4  2  0  0  0  0
  3  5  1  0  0  0  0
  5  6  2  0  0  0  0
  6  7  1  0  0  0  0
  7  8  2  0  0  0  0
  8  9  1  0  0  0  0
  8 10  1  0  0  0  0
 10 11  2  0  0  0  0
 11 12  1  0  0  0  0
 12 13  2  0  0  0  0
 13 14  1  0  0  0  0
 14 15  3  0  0  0  0
 13 16  1  0  0  0  0
 16 17  3  0  0  0  0
  1 18  1  0  0  0  0
 18 19  2  0  0  0  0
 19 20  1  0  0  0  0
 20 21  1  0  0  0  0
 21 22  2  0  0  0  0
 22 23  1  0  0  0  0
 23 24  2  0  0  0  0
 24 25  1  0  0  0  0
 24 26  1  0  0  0  0
 26 27  2  0  0  0  0
 20 28  1  0  0  0  0
 28 29  2  0  0  0  0
 29 30  1  0  0  0  0
 30 31  2  0  0  0  0
 31 32  1  0  0  0  0
 31 33  1  0  0  0  0
 33 34  2  0  0  0  0
 19 35  1  0  0  0  0
 35 36  1  0  0  0  0
 36 37  1  0  0  0  0
 37 38  2  0  0  0  0
 38 39  1  0  0  0  0
 39 40  1  0  0  0  0
 40 41  2  0  0  0  0
 41 42  1  0  0  0  0
 42 43  2  0  0  0  0
 43 44  1  0  0  0  0
 43 45  1  0  0  0  0
 45 46  2  0  0  0  0
 39 47  1  0  0  0  0
 47 48  2  0  0  0  0
 48 49  1  0  0  0  0
 49 50  2  0  0  0  0
 50 51  1  0  0  0  0
 50 52  1  0  0  0  0
 52 53  2  0  0  0  0
 38 54  1  0  0  0  0
 54 55  1  0  0  0  0
 37 56  1  0  0  0  0
 56 57  2  0  0  0  0
 57 58  1  0  0  0  0
 58 59  2  0  0  0  0
 59 60  1  0  0  0  0
 60 61  2  0  0  0  0
 61 62  1  0  0  0  0
 62 63  1  0  0  0  0
 63 64  1  0  0  0  0
 62 65  2  0  0  0  0
 57 66  1  0  0  0  0
 66 67  1  0  0  0  0
 67 68  1  0  0  0  0
 68 69  1  0  0  0  0
 69 70  1  0  0  0  0
 70 71  1  0  0  0  0
 71 72  2  0  0  0  0
 72 73  1  0  0  0  0
 73 74  1  0  0  0  0
 71 75  1  0  0  0  0
 75 76  1  0  0  0  0
 76 77  1  0  0  0  0
 77 78  1  0  0  0  0
 78 79  1  0  0  0  0
 79 80  1  0  0  0  0
 80 81  2  0  0  0  0
 81 82  1  0  0  0  0
 82 83  2  0  0  0  0
 83 84  1  0  0  0  0
 84 85  1  0  0  0  0
 85 86  1  0  0  0  0
 84 87  2  0  0  0  0
 79 88  2  0  0  0  0
 88 89  1  0  0  0  0
 89 90  1  0  0  0  0
 90 91  1  0  0  0  0
 91 92  1  0  0  0  0
 92 93  1  0  0  0  0
 93 94  1  0  0  0  0
 94 95  1  0  0  0  0
 95 96  1  0  0  0  0
 96 97  1  0  0  0  0
 97 98  1  0  0  0  0
 95 99  1  0  0  0  0
 99100  1  0  0  0  0
 92101  1  0  0  0  0
101102  1  0  0  0  0
 88103  1  0  0  0  0
103104  2  0  0  0  0
104105  1  0  0  0  0
105106  1  0  0  0  0
106107  2  0  0  0  0
107108  1  0  0  0  0
108109  2  0  0  0  0
109110  1  0  0  0  0
110111  1  0  0  0  0
109112  1  0  0  0  0
112113  2  0  0  0  0
105114  1  0  0  0  0
114115  2  0  0  0  0
115116  1  0  0  0  0
116117  2  0  0  0  0
117118  1  0  0  0  0
118119  1  0  0  0  0
117120  1  0  0  0  0
120121  2  0  0  0  0
104122  1  0  0  0  0
122123  1  0  0  0  0
123124  1  0  0  0  0
124125  2  0  0  0  0
125126  1  0  0  0  0
126127  1  0  0  0  0
127128  2  0  0  0  0
128129  1  0  0  0  0
129130  2  0  0  0  0
130131  1  0  0  0  0
131132  1  0  0  0  0
130133  1  0  0  0  0
133134  2  0  0  0  0
126135  1  0  0  0  0
135136  2  0  0  0  0
136137  1  0  0  0  0
137138  2  0  0  0  0
138139  1  0  0  0  0
139140  1  0  0  0  0
138141  1  0  0  0  0
141142  2  0  0  0  0
125143  1  0  0  0  0
143144  1  0  0  0  0
124145  1  0  0  0  0
145146  2  0  0  0  0
146147  1  0  0  0  0
147148  2  0  0  0  0
147149  1  0  0  0  0
149150  2  0  0  0  0
150151  1  0  0  0  0
151152  2  0  0  0  0
152153  1  0  0  0  0
153154  2  0  0  0  0
154155  1  0  0  0  0
155156  2  0  0  0  0
 12  2  1  0  0  0  0
 55 18  1  0  0  0  0
 98 56  1  0  0  0  0
144103  1  0  0  0  0
155146  1  0  0  0  0
 11  5  1  0  0  0  0
 27 21  1  0  0  0  0
 34 28  1  0  0  0  0
 54 35  2  0  0  0  0
 65 58  1  0  0  0  0
 97 66  2  0  0  0  0
113106  1  0  0  0  0
121114  1  0  0  0  0
143122  2  0  0  0  0
154149  1  0  0  0  0
 46 40  1  0  0  0  0
 53 47  1  0  0  0  0
 96 68  2  0  0  0  0
134127  1  0  0  0  0
142135  1  0  0  0  0
 94 69  2  0  0  0  0
 74 70  2  0  0  0  0
 93 75  2  0  0  0  0
 91 76  2  0  0  0  0
 90 78  2  0  0  0  0
 87 80  1  0  0  0  0
  1157  1  0  0  0  0
  6158  1  0  0  0  0
  7159  1  0  0  0  0
 10160  1  0  0  0  0
 22161  1  0  0  0  0
 23162  1  0  0  0  0
 25163  1  0  0  0  0
 25164  1  0  0  0  0
 25165  1  0  0  0  0
 26166  1  0  0  0  0
 27167  1  0  0  0  0
 29168  1  0  0  0  0
 30169  1  0  0  0  0
 32170  1  0  0  0  0
 32171  1  0  0  0  0
 32172  1  0  0  0  0
 33173  1  0  0  0  0
 34174  1  0  0  0  0
 41175  1  0  0  0  0
 42176  1  0  0  0  0
 44177  1  0  0  0  0
 44178  1  0  0  0  0
 44179  1  0  0  0  0
 45180  1  0  0  0  0
 46181  1  0  0  0  0
 48182  1  0  0  0  0
 49183  1  0  0  0  0
 51184  1  0  0  0  0
 51185  1  0  0  0  0
 51186  1  0  0  0  0
 52187  1  0  0  0  0
 53188  1  0  0  0  0
 59189  1  0  0  0  0
 60190  1  0  0  0  0
 61191  1  0  0  0  0
 63192  1  0  0  0  0
 63193  1  0  0  0  0
 64194  1  0  0  0  0
 64195  1  0  0  0  0
 64196  1  0  0  0  0
 65197  1  0  0  0  0
 81198  1  0  0  0  0
 82199  1  0  0  0  0
 83200  1  0  0  0  0
 85201  1  0  0  0  0
 85202  1  0  0  0  0
 86203  1  0  0  0  0
 86204  1  0  0  0  0
 86205  1  0  0  0  0
 87206  1  0  0  0  0
 99207  1  0  0  0  0
 99208  1  0  0  0  0
100209  1  0  0  0  0
100210  1  0  0  0  0
100211  1  0  0  0  0
101212  1  0  0  0  0
101213  1  0  0  0  0
102214  1  0  0  0  0
102215  1  0  0  0  0
102216  1  0  0  0  0
107217  1  0  0  0  0
108218  1  0  0  0  0
111219  1  0  0  0  0
111220  1  0  0  0  0
111221  1  0  0  0  0
112222  1  0  0  0  0
113223  1  0  0  0  0
115224  1  0  0  0  0
116225  1  0  0  0  0
119226  1  0  0  0  0
119227  1  0  0  0  0
119228  1  0  0  0  0
120229  1  0  0  0  0
121230  1  0  0  0  0
128231  1  0  0  0  0
129232  1  0  0  0  0
132233  1  0  0  0  0
132234  1  0  0  0  0
132235  1  0  0  0  0
133236  1  0  0  0  0
134237  1  0  0  0  0
136238  1  0  0  0  0
137239  1  0  0  0  0
140240  1  0  0  0  0
140241  1  0  0  0  0
140242  1  0  0  0  0
141243  1  0  0  0  0
142244  1  0  0  0  0
145245  1  0  0  0  0
150246  1  0  0  0  0
151247  1  0  0  0  0
152248  1  0  0  0  0
153249  1  0  0  0  0
M  END
