
  xtb     02072212163D
 energy: -414.283210241728 gnorm: 0.000538773884 xtb: 6.4.1 (unknown)
249274  0     0  0            999 V2000
   -5.1856   -4.1831    2.6901 C   0  0  0  0  0  0  0  0  0  0  0  0
   -4.8507   -5.4143    3.2157 C   0  0  0  0  0  0  0  0  0  0  0  0
   -3.7481   -5.6781    4.1349 C   0  0  0  0  0  0  0  0  0  0  0  0
   -2.9661   -4.8730    4.6171 O   0  0  0  0  0  0  0  0  0  0  0  0
   -3.7160   -7.1405    4.3280 C   0  0  0  0  0  0  0  0  0  0  0  0
   -2.8552   -7.8968    5.0987 C   0  0  0  0  0  0  0  0  0  0  0  0
   -3.0205   -9.2733    5.1158 C   0  0  0  0  0  0  0  0  0  0  0  0
   -4.0336   -9.8490    4.3625 C   0  0  0  0  0  0  0  0  0  0  0  0
   -4.2410  -11.7376    4.4030 Br  0  0  0  0  0  0  0  0  0  0  0  0
   -4.9072   -9.1016    3.5802 C   0  0  0  0  0  0  0  0  0  0  0  0
   -4.7422   -7.7278    3.5677 C   0  0  0  0  0  0  0  0  0  0  0  0
   -5.4811   -6.6667    2.8770 C   0  0  0  0  0  0  0  0  0  0  0  0
   -6.5913   -6.8622    2.0929 C   0  0  0  0  0  0  0  0  0  0  0  0
   -7.3640   -5.8478    1.4957 C   0  0  0  0  0  0  0  0  0  0  0  0
   -8.0684   -5.0878    0.9973 N   0  0  0  0  0  0  0  0  0  0  0  0
   -7.1463   -8.1266    1.8072 C   0  0  0  0  0  0  0  0  0  0  0  0
   -7.6519   -9.1226    1.5408 N   0  0  0  0  0  0  0  0  0  0  0  0
   -4.7105   -2.9100    2.9858 C   0  0  0  0  0  0  0  0  0  0  0  0
   -5.2123   -1.7540    2.3333 C   0  0  0  0  0  0  0  0  0  0  0  0
   -6.0287   -1.7615    1.2299 N   0  0  0  0  0  0  0  0  0  0  0  0
   -5.7396   -2.5904    0.1296 C   0  0  0  0  0  0  0  0  0  0  0  0
   -4.4164   -2.8803   -0.1992 C   0  0  0  0  0  0  0  0  0  0  0  0
   -4.1338   -3.6587   -1.3018 C   0  0  0  0  0  0  0  0  0  0  0  0
   -5.1492   -4.1719   -2.1022 C   0  0  0  0  0  0  0  0  0  0  0  0
   -4.8229   -5.0289   -3.2856 C   0  0  0  0  0  0  0  0  0  0  0  0
   -6.4641   -3.8769   -1.7637 C   0  0  0  0  0  0  0  0  0  0  0  0
   -6.7647   -3.0938   -0.6655 C   0  0  0  0  0  0  0  0  0  0  0  0
   -6.9965   -0.7489    1.1185 C   0  0  0  0  0  0  0  0  0  0  0  0
   -7.2397   -0.1068   -0.0916 C   0  0  0  0  0  0  0  0  0  0  0  0
   -8.1946    0.8879   -0.1653 C   0  0  0  0  0  0  0  0  0  0  0  0
   -8.9218    1.2733    0.9541 C   0  0  0  0  0  0  0  0  0  0  0  0
   -9.9382    2.3701    0.8770 C   0  0  0  0  0  0  0  0  0  0  0  0
   -8.6705    0.6264    2.1591 C   0  0  0  0  0  0  0  0  0  0  0  0
   -7.7259   -0.3748    2.2454 C   0  0  0  0  0  0  0  0  0  0  0  0
   -4.7205   -0.5857    2.9257 C   0  0  0  0  0  0  0  0  0  0  0  0
   -4.8362    1.0893    2.4932 S   0  0  0  0  0  0  0  0  0  0  0  0
   -3.5855    1.4813    3.6650 C   0  0  0  0  0  0  0  0  0  0  0  0
   -3.1034    0.3648    4.3360 C   0  0  0  0  0  0  0  0  0  0  0  0
   -2.0041    0.3521    5.1890 N   0  0  0  0  0  0  0  0  0  0  0  0
   -2.1518   -0.3199    6.4124 C   0  0  0  0  0  0  0  0  0  0  0  0
   -1.1188   -1.0623    6.9787 C   0  0  0  0  0  0  0  0  0  0  0  0
   -1.3124   -1.7138    8.1791 C   0  0  0  0  0  0  0  0  0  0  0  0
   -2.5300   -1.6556    8.8476 C   0  0  0  0  0  0  0  0  0  0  0  0
   -2.7277   -2.3882   10.1395 C   0  0  0  0  0  0  0  0  0  0  0  0
   -3.5574   -0.9211    8.2724 C   0  0  0  0  0  0  0  0  0  0  0  0
   -3.3747   -0.2595    7.0747 C   0  0  0  0  0  0  0  0  0  0  0  0
   -0.7990    0.9243    4.7744 C   0  0  0  0  0  0  0  0  0  0  0  0
   -0.5137    1.0817    3.4185 C   0  0  0  0  0  0  0  0  0  0  0  0
    0.6355    1.7304    3.0096 C   0  0  0  0  0  0  0  0  0  0  0  0
    1.5563    2.2111    3.9288 C   0  0  0  0  0  0  0  0  0  0  0  0
    2.8011    2.9275    3.5016 C   0  0  0  0  0  0  0  0  0  0  0  0
    1.2968    1.9990    5.2781 C   0  0  0  0  0  0  0  0  0  0  0  0
    0.1422    1.3734    5.6999 C   0  0  0  0  0  0  0  0  0  0  0  0
   -3.7926   -0.8073    3.9379 C   0  0  0  0  0  0  0  0  0  0  0  0
   -3.5506   -2.4903    4.2534 S   0  0  0  0  0  0  0  0  0  0  0  0
   -2.9731    2.7735    3.6065 C   0  0  0  0  0  0  0  0  0  0  0  0
   -2.3981    3.5387    4.6040 C   0  0  0  0  0  0  0  0  0  0  0  0
   -2.7365    3.4072    6.0238 C   0  0  0  0  0  0  0  0  0  0  0  0
   -1.6977    3.4449    6.9536 C   0  0  0  0  0  0  0  0  0  0  0  0
   -1.9335    3.2649    8.3003 C   0  0  0  0  0  0  0  0  0  0  0  0
   -3.2300    3.0776    8.7465 C   0  0  0  0  0  0  0  0  0  0  0  0
   -4.2725    3.1249    7.8422 C   0  0  0  0  0  0  0  0  0  0  0  0
   -4.0585    3.2896    6.4779 C   0  0  0  0  0  0  0  0  0  0  0  0
   -5.2699    3.4482    5.5936 C   0  0  0  0  0  0  0  0  0  0  0  0
   -6.1997    2.2343    5.6000 C   0  0  0  0  0  0  0  0  0  0  0  0
   -1.4621    4.4508    4.0539 C   0  0  0  0  0  0  0  0  0  0  0  0
   -0.1811    5.4424    4.7297 S   0  0  0  0  0  0  0  0  0  0  0  0
    0.4668    5.7029    3.1351 C   0  0  0  0  0  0  0  0  0  0  0  0
    1.6768    6.0724    2.5083 C   0  0  0  0  0  0  0  0  0  0  0  0
    2.9693    6.3681    3.0093 C   0  0  0  0  0  0  0  0  0  0  0  0
    4.1270    6.1267    2.1743 C   0  0  0  0  0  0  0  0  0  0  0  0
    5.2606    6.3000    2.8312 N   0  0  0  0  0  0  0  0  0  0  0  0
    4.9224    6.7430    4.3516 S   0  0  0  0  0  0  0  0  0  0  0  0
    3.3066    6.7147    4.2395 N   0  0  0  0  0  0  0  0  0  0  0  0
    3.9479    5.7417    0.8239 C   0  0  0  0  0  0  0  0  0  0  0  0
    4.7855    5.2044   -0.1829 C   0  0  0  0  0  0  0  0  0  0  0  0
    6.3476    4.4509   -0.3487 S   0  0  0  0  0  0  0  0  0  0  0  0
    5.8282    3.7058   -1.8540 C   0  0  0  0  0  0  0  0  0  0  0  0
    6.2947    2.5906   -2.5936 C   0  0  0  0  0  0  0  0  0  0  0  0
    7.6430    2.0419   -2.4260 C   0  0  0  0  0  0  0  0  0  0  0  0
    8.5200    1.9329   -3.5101 C   0  0  0  0  0  0  0  0  0  0  0  0
    8.1583    2.3608   -4.9070 C   0  0  0  0  0  0  0  0  0  0  0  0
    7.8818    1.1763   -5.8308 C   0  0  0  0  0  0  0  0  0  0  0  0
    9.8130    1.4836   -3.2698 C   0  0  0  0  0  0  0  0  0  0  0  0
   10.2488    1.1815   -1.9952 C   0  0  0  0  0  0  0  0  0  0  0  0
    9.3854    1.3256   -0.9223 C   0  0  0  0  0  0  0  0  0  0  0  0
    8.0903    1.7477   -1.1398 C   0  0  0  0  0  0  0  0  0  0  0  0
    5.3296    2.1485   -3.4842 C   0  0  0  0  0  0  0  0  0  0  0  0
    3.9396    3.2473   -3.5705 S   0  0  0  0  0  0  0  0  0  0  0  0
    4.5665    4.1502   -2.2465 C   0  0  0  0  0  0  0  0  0  0  0  0
    3.9794    4.9945   -1.3053 C   0  0  0  0  0  0  0  0  0  0  0  0
    2.6895    5.3919   -1.0608 N   0  0  0  0  0  0  0  0  0  0  0  0
    2.6413    5.7621    0.2716 C   0  0  0  0  0  0  0  0  0  0  0  0
    1.5230    5.7597    1.1320 C   0  0  0  0  0  0  0  0  0  0  0  0
    0.2733    5.2170    0.9221 N   0  0  0  0  0  0  0  0  0  0  0  0
   -0.3433    5.1497    2.1396 C   0  0  0  0  0  0  0  0  0  0  0  0
   -1.4185    4.4274    2.6615 C   0  0  0  0  0  0  0  0  0  0  0  0
   -2.5380    3.3078    1.9886 S   0  0  0  0  0  0  0  0  0  0  0  0
   -0.2079    4.4121   -0.1774 C   0  0  0  0  0  0  0  0  0  0  0  0
   -1.3964    5.0577   -0.8853 C   0  0  0  0  0  0  0  0  0  0  0  0
    1.8522    5.8934   -2.1301 C   0  0  0  0  0  0  0  0  0  0  0  0
    2.5472    7.0237   -2.8874 C   0  0  0  0  0  0  0  0  0  0  0  0
    5.0030    0.8410   -3.9678 C   0  0  0  0  0  0  0  0  0  0  0  0
    5.1471   -0.3710   -3.3061 C   0  0  0  0  0  0  0  0  0  0  0  0
    6.0590   -0.6542   -2.2750 N   0  0  0  0  0  0  0  0  0  0  0  0
    7.2730   -1.2531   -2.6141 C   0  0  0  0  0  0  0  0  0  0  0  0
    8.2761   -1.4277   -1.6606 C   0  0  0  0  0  0  0  0  0  0  0  0
    9.4910   -1.9728   -2.0157 C   0  0  0  0  0  0  0  0  0  0  0  0
    9.7613   -2.3539   -3.3249 C   0  0  0  0  0  0  0  0  0  0  0  0
   11.1009   -2.9140   -3.6962 C   0  0  0  0  0  0  0  0  0  0  0  0
    8.7587   -2.1876   -4.2678 C   0  0  0  0  0  0  0  0  0  0  0  0
    7.5312   -1.6562   -3.9223 C   0  0  0  0  0  0  0  0  0  0  0  0
    5.5110   -0.7660   -0.9791 C   0  0  0  0  0  0  0  0  0  0  0  0
    4.7443    0.2752   -0.4647 C   0  0  0  0  0  0  0  0  0  0  0  0
    4.2644    0.2175    0.8298 C   0  0  0  0  0  0  0  0  0  0  0  0
    4.5181   -0.8797    1.6425 C   0  0  0  0  0  0  0  0  0  0  0  0
    4.0691   -0.9199    3.0723 C   0  0  0  0  0  0  0  0  0  0  0  0
    5.2255   -1.9455    1.0970 C   0  0  0  0  0  0  0  0  0  0  0  0
    5.7106   -1.8988   -0.1942 C   0  0  0  0  0  0  0  0  0  0  0  0
    4.1418   -1.2850   -3.6979 C   0  0  0  0  0  0  0  0  0  0  0  0
    3.6154   -2.7919   -3.0483 S   0  0  0  0  0  0  0  0  0  0  0  0
    2.1348   -2.7163   -3.9984 C   0  0  0  0  0  0  0  0  0  0  0  0
    2.1242   -1.6167   -4.8681 C   0  0  0  0  0  0  0  0  0  0  0  0
    1.0446   -1.2093   -5.6117 N   0  0  0  0  0  0  0  0  0  0  0  0
    0.6639    0.1482   -5.5267 C   0  0  0  0  0  0  0  0  0  0  0  0
    0.2291    0.8251   -6.6598 C   0  0  0  0  0  0  0  0  0  0  0  0
   -0.1092    2.1619   -6.5748 C   0  0  0  0  0  0  0  0  0  0  0  0
   -0.0234    2.8500   -5.3700 C   0  0  0  0  0  0  0  0  0  0  0  0
   -0.3462    4.3114   -5.2963 C   0  0  0  0  0  0  0  0  0  0  0  0
    0.3894    2.1557   -4.2394 C   0  0  0  0  0  0  0  0  0  0  0  0
    0.7267    0.8190   -4.3078 C   0  0  0  0  0  0  0  0  0  0  0  0
    0.1607   -2.1552   -6.1458 C   0  0  0  0  0  0  0  0  0  0  0  0
    0.6613   -3.2999   -6.7664 C   0  0  0  0  0  0  0  0  0  0  0  0
   -0.2029   -4.2594   -7.2505 C   0  0  0  0  0  0  0  0  0  0  0  0
   -1.5819   -4.1091   -7.1332 C   0  0  0  0  0  0  0  0  0  0  0  0
   -2.4987   -5.1820   -7.6263 C   0  0  0  0  0  0  0  0  0  0  0  0
   -2.0707   -2.9563   -6.5312 C   0  0  0  0  0  0  0  0  0  0  0  0
   -1.2170   -1.9861   -6.0422 C   0  0  0  0  0  0  0  0  0  0  0  0
    3.2648   -0.8113   -4.6618 C   0  0  0  0  0  0  0  0  0  0  0  0
    3.7455    0.7635   -5.2023 S   0  0  0  0  0  0  0  0  0  0  0  0
    1.0519   -3.5656   -3.6610 C   0  0  0  0  0  0  0  0  0  0  0  0
    0.6427   -3.6780   -2.3538 C   0  0  0  0  0  0  0  0  0  0  0  0
    0.9742   -2.6420   -1.3549 C   0  0  0  0  0  0  0  0  0  0  0  0
    1.5572   -1.5930   -1.5436 O   0  0  0  0  0  0  0  0  0  0  0  0
    0.3073   -3.0695   -0.1112 C   0  0  0  0  0  0  0  0  0  0  0  0
   -0.4497   -4.2301   -0.3527 C   0  0  0  0  0  0  0  0  0  0  0  0
   -1.1546   -4.8160    0.6875 C   0  0  0  0  0  0  0  0  0  0  0  0
   -1.0445   -4.2663    1.9591 C   0  0  0  0  0  0  0  0  0  0  0  0
   -0.2755   -3.1377    2.1908 C   0  0  0  0  0  0  0  0  0  0  0  0
   -0.0713   -2.4857    3.9437 Br  0  0  0  0  0  0  0  0  0  0  0  0
    0.3862   -2.4913    1.1411 C   0  0  0  0  0  0  0  0  0  0  0  0
    1.2799   -1.0603    1.3954 Cl  0  0  0  0  0  0  0  0  0  0  0  0
   -0.3013   -4.5922   -1.7650 C   0  0  0  0  0  0  0  0  0  0  0  0
   -0.9586   -5.6214   -2.3961 C   0  0  0  0  0  0  0  0  0  0  0  0
   -0.8386   -5.9250   -3.7654 C   0  0  0  0  0  0  0  0  0  0  0  0
   -0.8091   -6.2191   -4.8758 N   0  0  0  0  0  0  0  0  0  0  0  0
   -1.8776   -6.4756   -1.7563 C   0  0  0  0  0  0  0  0  0  0  0  0
   -2.6462   -7.1905   -1.2894 N   0  0  0  0  0  0  0  0  0  0  0  0
   -5.9555   -4.1913    1.9286 H   0  0  0  0  0  0  0  0  0  0  0  0
   -2.0768   -7.4194    5.6737 H   0  0  0  0  0  0  0  0  0  0  0  0
   -2.3703   -9.8986    5.7078 H   0  0  0  0  0  0  0  0  0  0  0  0
   -5.6767   -9.5947    3.0094 H   0  0  0  0  0  0  0  0  0  0  0  0
   -3.6113   -2.4826    0.4030 H   0  0  0  0  0  0  0  0  0  0  0  0
   -3.1029   -3.8578   -1.5552 H   0  0  0  0  0  0  0  0  0  0  0  0
   -5.6651   -5.0847   -3.9702 H   0  0  0  0  0  0  0  0  0  0  0  0
   -3.9558   -4.6428   -3.8201 H   0  0  0  0  0  0  0  0  0  0  0  0
   -4.5853   -6.0404   -2.9546 H   0  0  0  0  0  0  0  0  0  0  0  0
   -7.2706   -4.2691   -2.3647 H   0  0  0  0  0  0  0  0  0  0  0  0
   -7.7906   -2.8754   -0.4159 H   0  0  0  0  0  0  0  0  0  0  0  0
   -6.6736   -0.3846   -0.9680 H   0  0  0  0  0  0  0  0  0  0  0  0
   -8.3723    1.3790   -1.1110 H   0  0  0  0  0  0  0  0  0  0  0  0
  -10.8067    2.1353    1.4885 H   0  0  0  0  0  0  0  0  0  0  0  0
   -9.5097    3.3016    1.2485 H   0  0  0  0  0  0  0  0  0  0  0  0
  -10.2613    2.5306   -0.1484 H   0  0  0  0  0  0  0  0  0  0  0  0
   -9.2307    0.9042    3.0400 H   0  0  0  0  0  0  0  0  0  0  0  0
   -7.5530   -0.8810    3.1840 H   0  0  0  0  0  0  0  0  0  0  0  0
   -0.1707   -1.1406    6.4701 H   0  0  0  0  0  0  0  0  0  0  0  0
   -0.5016   -2.2892    8.6017 H   0  0  0  0  0  0  0  0  0  0  0  0
   -1.8455   -2.3031   10.7708 H   0  0  0  0  0  0  0  0  0  0  0  0
   -3.5873   -1.9995   10.6801 H   0  0  0  0  0  0  0  0  0  0  0  0
   -2.8981   -3.4474    9.9449 H   0  0  0  0  0  0  0  0  0  0  0  0
   -4.5147   -0.8579    8.7700 H   0  0  0  0  0  0  0  0  0  0  0  0
   -4.1808    0.3215    6.6536 H   0  0  0  0  0  0  0  0  0  0  0  0
   -1.1943    0.6914    2.6757 H   0  0  0  0  0  0  0  0  0  0  0  0
    0.8209    1.8583    1.9513 H   0  0  0  0  0  0  0  0  0  0  0  0
    2.9220    3.8443    4.0759 H   0  0  0  0  0  0  0  0  0  0  0  0
    2.7668    3.1830    2.4438 H   0  0  0  0  0  0  0  0  0  0  0  0
    3.6819    2.3095    3.6789 H   0  0  0  0  0  0  0  0  0  0  0  0
    2.0065    2.3511    6.0129 H   0  0  0  0  0  0  0  0  0  0  0  0
   -0.0460    1.2449    6.7539 H   0  0  0  0  0  0  0  0  0  0  0  0
   -0.6913    3.6048    6.6016 H   0  0  0  0  0  0  0  0  0  0  0  0
   -1.1104    3.2768    8.9986 H   0  0  0  0  0  0  0  0  0  0  0  0
   -3.4307    2.9268    9.7966 H   0  0  0  0  0  0  0  0  0  0  0  0
   -5.2875    3.0449    8.2038 H   0  0  0  0  0  0  0  0  0  0  0  0
   -5.8340    4.3120    5.9605 H   0  0  0  0  0  0  0  0  0  0  0  0
   -4.9723    3.6666    4.5683 H   0  0  0  0  0  0  0  0  0  0  0  0
   -7.0339    2.4031    4.9224 H   0  0  0  0  0  0  0  0  0  0  0  0
   -6.5966    2.0510    6.5953 H   0  0  0  0  0  0  0  0  0  0  0  0
   -5.6750    1.3407    5.2730 H   0  0  0  0  0  0  0  0  0  0  0  0
    7.2849    3.0152   -4.8913 H   0  0  0  0  0  0  0  0  0  0  0  0
    8.9957    2.9333   -5.3148 H   0  0  0  0  0  0  0  0  0  0  0  0
    6.9905    0.6465   -5.5070 H   0  0  0  0  0  0  0  0  0  0  0  0
    7.7272    1.5225   -6.8505 H   0  0  0  0  0  0  0  0  0  0  0  0
    8.7161    0.4796   -5.8178 H   0  0  0  0  0  0  0  0  0  0  0  0
   10.4957    1.3955   -4.1030 H   0  0  0  0  0  0  0  0  0  0  0  0
   11.2634    0.8485   -1.8361 H   0  0  0  0  0  0  0  0  0  0  0  0
    9.7210    1.1103    0.0810 H   0  0  0  0  0  0  0  0  0  0  0  0
    7.4054    1.8408   -0.3101 H   0  0  0  0  0  0  0  0  0  0  0  0
    0.6131    4.2164   -0.8642 H   0  0  0  0  0  0  0  0  0  0  0  0
   -0.5333    3.4497    0.2339 H   0  0  0  0  0  0  0  0  0  0  0  0
   -1.7205    4.4252   -1.7073 H   0  0  0  0  0  0  0  0  0  0  0  0
   -1.1462    6.0418   -1.2750 H   0  0  0  0  0  0  0  0  0  0  0  0
   -2.2260    5.1678   -0.1918 H   0  0  0  0  0  0  0  0  0  0  0  0
    0.9282    6.2731   -1.6974 H   0  0  0  0  0  0  0  0  0  0  0  0
    1.6308    5.0748   -2.8238 H   0  0  0  0  0  0  0  0  0  0  0  0
    1.8821    7.4145   -3.6529 H   0  0  0  0  0  0  0  0  0  0  0  0
    3.4544    6.6639   -3.3659 H   0  0  0  0  0  0  0  0  0  0  0  0
    2.8093    7.8306   -2.2063 H   0  0  0  0  0  0  0  0  0  0  0  0
    8.1015   -1.1276   -0.6398 H   0  0  0  0  0  0  0  0  0  0  0  0
   10.2519   -2.0990   -1.2587 H   0  0  0  0  0  0  0  0  0  0  0  0
   11.8511   -2.1225   -3.7011 H   0  0  0  0  0  0  0  0  0  0  0  0
   11.0738   -3.3651   -4.6851 H   0  0  0  0  0  0  0  0  0  0  0  0
   11.4169   -3.6666   -2.9760 H   0  0  0  0  0  0  0  0  0  0  0  0
    8.9309   -2.4876   -5.2921 H   0  0  0  0  0  0  0  0  0  0  0  0
    6.7653   -1.5643   -4.6782 H   0  0  0  0  0  0  0  0  0  0  0  0
    4.5352    1.1392   -1.0767 H   0  0  0  0  0  0  0  0  0  0  0  0
    3.6903    1.0471    1.2178 H   0  0  0  0  0  0  0  0  0  0  0  0
    4.9134   -0.7069    3.7296 H   0  0  0  0  0  0  0  0  0  0  0  0
    3.6888   -1.9059    3.3332 H   0  0  0  0  0  0  0  0  0  0  0  0
    3.2923   -0.1849    3.2688 H   0  0  0  0  0  0  0  0  0  0  0  0
    5.3986   -2.8290    1.6954 H   0  0  0  0  0  0  0  0  0  0  0  0
    6.2485   -2.7422   -0.6016 H   0  0  0  0  0  0  0  0  0  0  0  0
    0.1647    0.2997   -7.6009 H   0  0  0  0  0  0  0  0  0  0  0  0
   -0.4371    2.6825   -7.4627 H   0  0  0  0  0  0  0  0  0  0  0  0
   -0.7135    4.5807   -4.3083 H   0  0  0  0  0  0  0  0  0  0  0  0
   -1.0952    4.5818   -6.0367 H   0  0  0  0  0  0  0  0  0  0  0  0
    0.5514    4.8978   -5.4966 H   0  0  0  0  0  0  0  0  0  0  0  0
    0.4429    2.6638   -3.2870 H   0  0  0  0  0  0  0  0  0  0  0  0
    1.0351    0.2894   -3.4176 H   0  0  0  0  0  0  0  0  0  0  0  0
    1.7303   -3.4285   -6.8567 H   0  0  0  0  0  0  0  0  0  0  0  0
    0.1941   -5.1474   -7.7179 H   0  0  0  0  0  0  0  0  0  0  0  0
   -2.2630   -5.4451   -8.6559 H   0  0  0  0  0  0  0  0  0  0  0  0
   -2.3695   -6.0746   -7.0156 H   0  0  0  0  0  0  0  0  0  0  0  0
   -3.5377   -4.8678   -7.5705 H   0  0  0  0  0  0  0  0  0  0  0  0
   -3.1376   -2.8187   -6.4282 H   0  0  0  0  0  0  0  0  0  0  0  0
   -1.6114   -1.1037   -5.5596 H   0  0  0  0  0  0  0  0  0  0  0  0
    0.5078   -4.0684   -4.4495 H   0  0  0  0  0  0  0  0  0  0  0  0
   -1.7661   -5.6906    0.5394 H   0  0  0  0  0  0  0  0  0  0  0  0
   -1.5569   -4.7177    2.7941 H   0  0  0  0  0  0  0  0  0  0  0  0
  1  2  2  0  0  0  0
  2  3  1  0  0  0  0
  3  4  2  0  0  0  0
  3  5  1  0  0  0  0
  5  6  2  0  0  0  0
  6  7  1  0  0  0  0
  7  8  2  0  0  0  0
  8  9  1  0  0  0  0
  8 10  1  0  0  0  0
 10 11  2  0  0  0  0
 11 12  1  0  0  0  0
 12 13  2  0  0  0  0
 13 14  1  0  0  0  0
 14 15  3  0  0  0  0
 13 16  1  0  0  0  0
 16 17  3  0  0  0  0
  1 18  1  0  0  0  0
 18 19  2  0  0  0  0
 19 20  1  0  0  0  0
 20 21  1  0  0  0  0
 21 22  2  0  0  0  0
 22 23  1  0  0  0  0
 23 24  2  0  0  0  0
 24 25  1  0  0  0  0
 24 26  1  0  0  0  0
 26 27  2  0  0  0  0
 20 28  1  0  0  0  0
 28 29  2  0  0  0  0
 29 30  1  0  0  0  0
 30 31  2  0  0  0  0
 31 32  1  0  0  0  0
 31 33  1  0  0  0  0
 33 34  2  0  0  0  0
 19 35  1  0  0  0  0
 35 36  1  0  0  0  0
 36 37  1  0  0  0  0
 37 38  2  0  0  0  0
 38 39  1  0  0  0  0
 39 40  1  0  0  0  0
 40 41  2  0  0  0  0
 41 42  1  0  0  0  0
 42 43  2  0  0  0  0
 43 44  1  0  0  0  0
 43 45  1  0  0  0  0
 45 46  2  0  0  0  0
 39 47  1  0  0  0  0
 47 48  2  0  0  0  0
 48 49  1  0  0  0  0
 49 50  2  0  0  0  0
 50 51  1  0  0  0  0
 50 52  1  0  0  0  0
 52 53  2  0  0  0  0
 38 54  1  0  0  0  0
 54 55  1  0  0  0  0
 37 56  1  0  0  0  0
 56 57  2  0  0  0  0
 57 58  1  0  0  0  0
 58 59  2  0  0  0  0
 59 60  1  0  0  0  0
 60 61  2  0  0  0  0
 61 62  1  0  0  0  0
 62 63  2  0  0  0  0
 63 64  1  0  0  0  0
 64 65  1  0  0  0  0
 57 66  1  0  0  0  0
 66 67  1  0  0  0  0
 67 68  1  0  0  0  0
 68 69  1  0  0  0  0
 69 70  1  0  0  0  0
 70 71  1  0  0  0  0
 71 72  2  0  0  0  0
 72 73  1  0  0  0  0
 73 74  1  0  0  0  0
 71 75  1  0  0  0  0
 75 76  1  0  0  0  0
 76 77  1  0  0  0  0
 77 78  1  0  0  0  0
 78 79  1  0  0  0  0
 79 80  1  0  0  0  0
 80 81  2  0  0  0  0
 81 82  1  0  0  0  0
 82 83  1  0  0  0  0
 81 84  1  0  0  0  0
 84 85  2  0  0  0  0
 85 86  1  0  0  0  0
 86 87  2  0  0  0  0
 79 88  2  0  0  0  0
 88 89  1  0  0  0  0
 89 90  1  0  0  0  0
 90 91  1  0  0  0  0
 91 92  1  0  0  0  0
 92 93  1  0  0  0  0
 93 94  1  0  0  0  0
 94 95  1  0  0  0  0
 95 96  1  0  0  0  0
 96 97  1  0  0  0  0
 97 98  1  0  0  0  0
 95 99  1  0  0  0  0
 99100  1  0  0  0  0
 92101  1  0  0  0  0
101102  1  0  0  0  0
 88103  1  0  0  0  0
103104  2  0  0  0  0
104105  1  0  0  0  0
105106  1  0  0  0  0
106107  2  0  0  0  0
107108  1  0  0  0  0
108109  2  0  0  0  0
109110  1  0  0  0  0
109111  1  0  0  0  0
111112  2  0  0  0  0
105113  1  0  0  0  0
113114  2  0  0  0  0
114115  1  0  0  0  0
115116  2  0  0  0  0
116117  1  0  0  0  0
116118  1  0  0  0  0
118119  2  0  0  0  0
104120  1  0  0  0  0
120121  1  0  0  0  0
121122  1  0  0  0  0
122123  2  0  0  0  0
123124  1  0  0  0  0
124125  1  0  0  0  0
125126  2  0  0  0  0
126127  1  0  0  0  0
127128  2  0  0  0  0
128129  1  0  0  0  0
128130  1  0  0  0  0
130131  2  0  0  0  0
124132  1  0  0  0  0
132133  2  0  0  0  0
133134  1  0  0  0  0
134135  2  0  0  0  0
135136  1  0  0  0  0
135137  1  0  0  0  0
137138  2  0  0  0  0
123139  1  0  0  0  0
139140  1  0  0  0  0
122141  1  0  0  0  0
141142  2  0  0  0  0
142143  1  0  0  0  0
143144  2  0  0  0  0
143145  1  0  0  0  0
145146  2  0  0  0  0
146147  1  0  0  0  0
147148  2  0  0  0  0
148149  1  0  0  0  0
149150  1  0  0  0  0
149151  2  0  0  0  0
151152  1  0  0  0  0
146153  1  0  0  0  0
153154  2  0  0  0  0
154155  1  0  0  0  0
155156  3  0  0  0  0
154157  1  0  0  0  0
157158  3  0  0  0  0
 12  2  1  0  0  0  0
 55 18  1  0  0  0  0
 98 56  1  0  0  0  0
140103  1  0  0  0  0
153142  1  0  0  0  0
 11  5  1  0  0  0  0
 27 21  1  0  0  0  0
 34 28  1  0  0  0  0
 54 35  2  0  0  0  0
 63 58  1  0  0  0  0
 97 66  2  0  0  0  0
112106  1  0  0  0  0
119113  1  0  0  0  0
139120  2  0  0  0  0
151145  1  0  0  0  0
 46 40  1  0  0  0  0
 53 47  1  0  0  0  0
 96 68  2  0  0  0  0
131125  1  0  0  0  0
138132  1  0  0  0  0
 94 69  2  0  0  0  0
 74 70  2  0  0  0  0
 93 75  2  0  0  0  0
 91 76  2  0  0  0  0
 90 78  2  0  0  0  0
 87 80  1  0  0  0  0
  1159  1  0  0  0  0
  6160  1  0  0  0  0
  7161  1  0  0  0  0
 10162  1  0  0  0  0
 22163  1  0  0  0  0
 23164  1  0  0  0  0
 25165  1  0  0  0  0
 25166  1  0  0  0  0
 25167  1  0  0  0  0
 26168  1  0  0  0  0
 27169  1  0  0  0  0
 29170  1  0  0  0  0
 30171  1  0  0  0  0
 32172  1  0  0  0  0
 32173  1  0  0  0  0
 32174  1  0  0  0  0
 33175  1  0  0  0  0
 34176  1  0  0  0  0
 41177  1  0  0  0  0
 42178  1  0  0  0  0
 44179  1  0  0  0  0
 44180  1  0  0  0  0
 44181  1  0  0  0  0
 45182  1  0  0  0  0
 46183  1  0  0  0  0
 48184  1  0  0  0  0
 49185  1  0  0  0  0
 51186  1  0  0  0  0
 51187  1  0  0  0  0
 51188  1  0  0  0  0
 52189  1  0  0  0  0
 53190  1  0  0  0  0
 59191  1  0  0  0  0
 60192  1  0  0  0  0
 61193  1  0  0  0  0
 62194  1  0  0  0  0
 64195  1  0  0  0  0
 64196  1  0  0  0  0
 65197  1  0  0  0  0
 65198  1  0  0  0  0
 65199  1  0  0  0  0
 82200  1  0  0  0  0
 82201  1  0  0  0  0
 83202  1  0  0  0  0
 83203  1  0  0  0  0
 83204  1  0  0  0  0
 84205  1  0  0  0  0
 85206  1  0  0  0  0
 86207  1  0  0  0  0
 87208  1  0  0  0  0
 99209  1  0  0  0  0
 99210  1  0  0  0  0
100211  1  0  0  0  0
100212  1  0  0  0  0
100213  1  0  0  0  0
101214  1  0  0  0  0
101215  1  0  0  0  0
102216  1  0  0  0  0
102217  1  0  0  0  0
102218  1  0  0  0  0
107219  1  0  0  0  0
108220  1  0  0  0  0
110221  1  0  0  0  0
110222  1  0  0  0  0
110223  1  0  0  0  0
111224  1  0  0  0  0
112225  1  0  0  0  0
114226  1  0  0  0  0
115227  1  0  0  0  0
117228  1  0  0  0  0
117229  1  0  0  0  0
117230  1  0  0  0  0
118231  1  0  0  0  0
119232  1  0  0  0  0
126233  1  0  0  0  0
127234  1  0  0  0  0
129235  1  0  0  0  0
129236  1  0  0  0  0
129237  1  0  0  0  0
130238  1  0  0  0  0
131239  1  0  0  0  0
133240  1  0  0  0  0
134241  1  0  0  0  0
136242  1  0  0  0  0
136243  1  0  0  0  0
136244  1  0  0  0  0
137245  1  0  0  0  0
138246  1  0  0  0  0
141247  1  0  0  0  0
147248  1  0  0  0  0
148249  1  0  0  0  0
M  END
