
  xtb     02082204243D
 energy: -388.121440925268 gnorm: 0.000661334618 xtb: 6.4.1 (unknown)
235258  0     0  0            999 V2000
    5.2245    6.4710   -7.5431 C   0  0  0  0  0  0  0  0  0  0  0  0
    4.4405    7.3036   -8.3047 C   0  0  0  0  0  0  0  0  0  0  0  0
    4.8605    8.7006   -8.5393 C   0  0  0  0  0  0  0  0  0  0  0  0
    5.9362    9.1975   -8.2803 O   0  0  0  0  0  0  0  0  0  0  0  0
    3.6684    9.3712   -9.1098 C   0  0  0  0  0  0  0  0  0  0  0  0
    3.4676   10.7063   -9.3992 C   0  0  0  0  0  0  0  0  0  0  0  0
    2.2296   11.1008   -9.8860 C   0  0  0  0  0  0  0  0  0  0  0  0
    1.2299   10.1557  -10.0634 C   0  0  0  0  0  0  0  0  0  0  0  0
   -0.4692   10.7261  -10.6966 Br  0  0  0  0  0  0  0  0  0  0  0  0
    1.4172    8.8057   -9.7904 C   0  0  0  0  0  0  0  0  0  0  0  0
    2.6559    8.4170   -9.3151 C   0  0  0  0  0  0  0  0  0  0  0  0
    3.1764    7.0964   -8.9542 C   0  0  0  0  0  0  0  0  0  0  0  0
    2.6791    5.9046   -9.4276 C   0  0  0  0  0  0  0  0  0  0  0  0
    1.5207    5.8096  -10.2187 C   0  0  0  0  0  0  0  0  0  0  0  0
    0.5865    5.6822  -10.8754 N   0  0  0  0  0  0  0  0  0  0  0  0
    3.3465    4.6734   -9.2957 C   0  0  0  0  0  0  0  0  0  0  0  0
    3.8920    3.6615   -9.2669 N   0  0  0  0  0  0  0  0  0  0  0  0
    4.8212    5.3248   -6.8506 C   0  0  0  0  0  0  0  0  0  0  0  0
    5.6077    4.2302   -6.4426 C   0  0  0  0  0  0  0  0  0  0  0  0
    6.9464    4.0733   -6.6637 N   0  0  0  0  0  0  0  0  0  0  0  0
    7.8414    5.1493   -6.5677 C   0  0  0  0  0  0  0  0  0  0  0  0
    8.8968    5.2737   -7.4662 C   0  0  0  0  0  0  0  0  0  0  0  0
    9.7689    6.3395   -7.3624 C   0  0  0  0  0  0  0  0  0  0  0  0
    9.6141    7.3025   -6.3722 C   0  0  0  0  0  0  0  0  0  0  0  0
   10.5322    8.4808   -6.2897 C   0  0  0  0  0  0  0  0  0  0  0  0
    8.5642    7.1618   -5.4707 C   0  0  0  0  0  0  0  0  0  0  0  0
    7.6888    6.0990   -5.5586 C   0  0  0  0  0  0  0  0  0  0  0  0
    7.4308    2.7931   -7.0014 C   0  0  0  0  0  0  0  0  0  0  0  0
    6.7216    1.9975   -7.8990 C   0  0  0  0  0  0  0  0  0  0  0  0
    7.1947    0.7432   -8.2232 C   0  0  0  0  0  0  0  0  0  0  0  0
    8.3792    0.2571   -7.6774 C   0  0  0  0  0  0  0  0  0  0  0  0
    8.8747   -1.1068   -8.0466 C   0  0  0  0  0  0  0  0  0  0  0  0
    9.0830    1.0665   -6.7953 C   0  0  0  0  0  0  0  0  0  0  0  0
    8.6179    2.3221   -6.4535 C   0  0  0  0  0  0  0  0  0  0  0  0
    4.8034    3.2289   -5.8541 C   0  0  0  0  0  0  0  0  0  0  0  0
    5.1460    1.6933   -5.1310 S   0  0  0  0  0  0  0  0  0  0  0  0
    3.4504    1.4840   -4.7427 C   0  0  0  0  0  0  0  0  0  0  0  0
    2.6749    2.5805   -5.0942 C   0  0  0  0  0  0  0  0  0  0  0  0
    1.3289    2.7276   -4.8189 N   0  0  0  0  0  0  0  0  0  0  0  0
    0.5040    3.3708   -5.7558 C   0  0  0  0  0  0  0  0  0  0  0  0
   -0.5393    4.1895   -5.3329 C   0  0  0  0  0  0  0  0  0  0  0  0
   -1.3401    4.8248   -6.2609 C   0  0  0  0  0  0  0  0  0  0  0  0
   -1.1304    4.6630   -7.6259 C   0  0  0  0  0  0  0  0  0  0  0  0
   -2.0133    5.3377   -8.6293 C   0  0  0  0  0  0  0  0  0  0  0  0
   -0.0897    3.8393   -8.0365 C   0  0  0  0  0  0  0  0  0  0  0  0
    0.7254    3.2072   -7.1198 C   0  0  0  0  0  0  0  0  0  0  0  0
    0.7941    2.2127   -3.6297 C   0  0  0  0  0  0  0  0  0  0  0  0
   -0.4541    1.5937   -3.6186 C   0  0  0  0  0  0  0  0  0  0  0  0
   -0.9315    1.0162   -2.4606 C   0  0  0  0  0  0  0  0  0  0  0  0
   -0.1964    1.0543   -1.2801 C   0  0  0  0  0  0  0  0  0  0  0  0
   -0.7004    0.3705   -0.0460 C   0  0  0  0  0  0  0  0  0  0  0  0
    1.0162    1.7281   -1.2838 C   0  0  0  0  0  0  0  0  0  0  0  0
    1.5109    2.3003   -2.4398 C   0  0  0  0  0  0  0  0  0  0  0  0
    3.4618    3.5573   -5.7443 C   0  0  0  0  0  0  0  0  0  0  0  0
    3.1227    5.1157   -6.3972 S   0  0  0  0  0  0  0  0  0  0  0  0
    2.9365    0.2850   -4.1434 C   0  0  0  0  0  0  0  0  0  0  0  0
    1.8714   -0.4510   -4.6190 C   0  0  0  0  0  0  0  0  0  0  0  0
    1.3355   -0.3045   -5.9714 C   0  0  0  0  0  0  0  0  0  0  0  0
   -0.0256   -0.4561   -6.2239 C   0  0  0  0  0  0  0  0  0  0  0  0
   -0.5056   -0.2892   -7.5074 C   0  0  0  0  0  0  0  0  0  0  0  0
    0.3519    0.0113   -8.5528 C   0  0  0  0  0  0  0  0  0  0  0  0
    1.7177    0.1308   -8.3309 C   0  0  0  0  0  0  0  0  0  0  0  0
    2.7117    0.4500   -9.4162 C   0  0  0  0  0  0  0  0  0  0  0  0
    2.1628    0.4153  -10.8363 C   0  0  0  0  0  0  0  0  0  0  0  0
    2.1911   -0.0331   -7.0345 C   0  0  0  0  0  0  0  0  0  0  0  0
    1.4271   -1.3800   -3.6531 C   0  0  0  0  0  0  0  0  0  0  0  0
    0.1172   -2.5313   -3.6329 S   0  0  0  0  0  0  0  0  0  0  0  0
    0.5566   -2.9730   -2.0190 C   0  0  0  0  0  0  0  0  0  0  0  0
    0.1565   -3.8716   -1.0149 C   0  0  0  0  0  0  0  0  0  0  0  0
   -0.7852   -4.9236   -1.0193 C   0  0  0  0  0  0  0  0  0  0  0  0
   -0.8466   -5.8051    0.1147 C   0  0  0  0  0  0  0  0  0  0  0  0
   -1.7377   -6.7710   -0.0462 N   0  0  0  0  0  0  0  0  0  0  0  0
   -2.4398   -6.5893   -1.4952 S   0  0  0  0  0  0  0  0  0  0  0  0
   -1.6350   -5.2670   -1.9740 N   0  0  0  0  0  0  0  0  0  0  0  0
   -0.0782   -5.5011    1.2598 C   0  0  0  0  0  0  0  0  0  0  0  0
   -0.1043   -6.0362    2.5614 C   0  0  0  0  0  0  0  0  0  0  0  0
   -0.9063   -7.2872    3.4540 S   0  0  0  0  0  0  0  0  0  0  0  0
   -0.3162   -6.5800    4.9426 C   0  0  0  0  0  0  0  0  0  0  0  0
   -0.7122   -6.7497    6.2963 C   0  0  0  0  0  0  0  0  0  0  0  0
   -1.5853   -7.8289    6.7585 C   0  0  0  0  0  0  0  0  0  0  0  0
   -1.4787   -9.0916    6.1763 C   0  0  0  0  0  0  0  0  0  0  0  0
   -2.2714  -10.1306    6.6230 C   0  0  0  0  0  0  0  0  0  0  0  0
   -3.1754   -9.9310    7.6527 C   0  0  0  0  0  0  0  0  0  0  0  0
   -3.3074   -8.6779    8.2352 C   0  0  0  0  0  0  0  0  0  0  0  0
   -4.2546   -8.4372    9.3764 C   0  0  0  0  0  0  0  0  0  0  0  0
   -3.4895   -8.3314   10.6970 C   0  0  0  0  0  0  0  0  0  0  0  0
   -2.5127   -7.6381    7.7767 C   0  0  0  0  0  0  0  0  0  0  0  0
   -0.1768   -5.7659    7.0926 C   0  0  0  0  0  0  0  0  0  0  0  0
    0.8702   -4.6706    6.2101 S   0  0  0  0  0  0  0  0  0  0  0  0
    0.4999   -5.4752    4.7281 C   0  0  0  0  0  0  0  0  0  0  0  0
    0.6456   -5.1793    3.3646 C   0  0  0  0  0  0  0  0  0  0  0  0
    1.2016   -4.1804    2.6090 N   0  0  0  0  0  0  0  0  0  0  0  0
    0.7640   -4.3570    1.3044 C   0  0  0  0  0  0  0  0  0  0  0  0
    0.9982   -3.6325    0.1061 C   0  0  0  0  0  0  0  0  0  0  0  0
    1.9184   -2.6607   -0.2390 N   0  0  0  0  0  0  0  0  0  0  0  0
    1.6516   -2.2636   -1.5231 C   0  0  0  0  0  0  0  0  0  0  0  0
    2.1625   -1.3623   -2.4682 C   0  0  0  0  0  0  0  0  0  0  0  0
    3.4584   -0.2221   -2.5465 S   0  0  0  0  0  0  0  0  0  0  0  0
    3.1690   -2.3045    0.3882 C   0  0  0  0  0  0  0  0  0  0  0  0
    3.1554   -0.8705    0.9170 C   0  0  0  0  0  0  0  0  0  0  0  0
    1.5818   -2.9543    3.2751 C   0  0  0  0  0  0  0  0  0  0  0  0
    0.3863   -2.0134    3.4116 C   0  0  0  0  0  0  0  0  0  0  0  0
   -0.7271   -5.2014    8.3283 C   0  0  0  0  0  0  0  0  0  0  0  0
   -0.3663   -5.4151    9.6350 C   0  0  0  0  0  0  0  0  0  0  0  0
   -0.9617   -4.6686   10.6592 C   0  0  0  0  0  0  0  0  0  0  0  0
   -1.8977   -3.6784   10.4167 C   0  0  0  0  0  0  0  0  0  0  0  0
   -2.3554   -3.4894    9.0776 C   0  0  0  0  0  0  0  0  0  0  0  0
   -3.4041   -2.7113    8.7715 N   0  0  0  0  0  0  0  0  0  0  0  0
   -3.7818   -2.5643    7.5200 C   0  0  0  0  0  0  0  0  0  0  0  0
   -5.0226   -1.8302    7.2719 C   0  0  0  0  0  0  0  0  0  0  0  0
   -5.8635   -2.1385    6.2035 C   0  0  0  0  0  0  0  0  0  0  0  0
   -7.0163   -1.4069    5.9937 C   0  0  0  0  0  0  0  0  0  0  0  0
   -7.3667   -0.3560    6.8335 C   0  0  0  0  0  0  0  0  0  0  0  0
   -8.5898    0.4734    6.5762 C   0  0  0  0  0  0  0  0  0  0  0  0
   -8.2057    1.8579    6.0501 C   0  0  0  0  0  0  0  0  0  0  0  0
   -6.5419   -0.0703    7.9174 C   0  0  0  0  0  0  0  0  0  0  0  0
   -5.3961   -0.8036    8.1392 C   0  0  0  0  0  0  0  0  0  0  0  0
   -3.0066   -3.1606    6.4683 C   0  0  0  0  0  0  0  0  0  0  0  0
   -2.0630   -4.0117    6.7752 N   0  0  0  0  0  0  0  0  0  0  0  0
   -1.7361   -4.2371    8.0532 C   0  0  0  0  0  0  0  0  0  0  0  0
   -3.1426   -2.9480    5.0232 C   0  0  0  0  0  0  0  0  0  0  0  0
   -3.3668   -1.7025    4.4453 C   0  0  0  0  0  0  0  0  0  0  0  0
   -3.3576   -1.5681    3.0683 C   0  0  0  0  0  0  0  0  0  0  0  0
   -3.1254   -2.6583    2.2376 C   0  0  0  0  0  0  0  0  0  0  0  0
   -3.1105   -2.5234    0.7423 C   0  0  0  0  0  0  0  0  0  0  0  0
   -4.2833   -3.2622    0.0966 C   0  0  0  0  0  0  0  0  0  0  0  0
   -2.9096   -3.9027    2.8214 C   0  0  0  0  0  0  0  0  0  0  0  0
   -2.9132   -4.0463    4.1912 C   0  0  0  0  0  0  0  0  0  0  0  0
   -2.4688   -2.8913   11.4800 C   0  0  0  0  0  0  0  0  0  0  0  0
   -2.7702   -1.5780   11.3450 C   0  0  0  0  0  0  0  0  0  0  0  0
   -2.2904   -0.7153   10.2296 C   0  0  0  0  0  0  0  0  0  0  0  0
   -1.3812   -0.9264    9.4598 O   0  0  0  0  0  0  0  0  0  0  0  0
   -3.0829    0.5306   10.3409 C   0  0  0  0  0  0  0  0  0  0  0  0
   -3.1442    1.5872    9.4563 C   0  0  0  0  0  0  0  0  0  0  0  0
   -4.0477    2.6080    9.7309 C   0  0  0  0  0  0  0  0  0  0  0  0
   -4.1205    3.6610    8.8344 O   0  0  0  0  0  0  0  0  0  0  0  0
   -5.3183    4.0202    8.3253 C   0  0  0  0  0  0  0  0  0  0  0  0
   -6.3429    3.4413    8.5570 O   0  0  0  0  0  0  0  0  0  0  0  0
   -5.1686    5.2204    7.4364 C   0  0  0  0  0  0  0  0  0  0  0  0
   -4.8344    2.5806   10.8787 C   0  0  0  0  0  0  0  0  0  0  0  0
   -4.7445    1.5300   11.7782 C   0  0  0  0  0  0  0  0  0  0  0  0
   -3.8673    0.4894   11.5074 C   0  0  0  0  0  0  0  0  0  0  0  0
   -3.6012   -0.7591   12.2161 C   0  0  0  0  0  0  0  0  0  0  0  0
   -4.0536   -1.0802   13.4652 C   0  0  0  0  0  0  0  0  0  0  0  0
   -3.7566   -2.2793   14.1486 C   0  0  0  0  0  0  0  0  0  0  0  0
   -3.5472   -3.2236   14.7666 N   0  0  0  0  0  0  0  0  0  0  0  0
   -4.8457   -0.2250   14.2618 C   0  0  0  0  0  0  0  0  0  0  0  0
   -5.4825    0.4273   14.9587 N   0  0  0  0  0  0  0  0  0  0  0  0
    6.2513    6.7985   -7.4220 H   0  0  0  0  0  0  0  0  0  0  0  0
    4.2597   11.4225   -9.2457 H   0  0  0  0  0  0  0  0  0  0  0  0
    2.0368   12.1361  -10.1210 H   0  0  0  0  0  0  0  0  0  0  0  0
    0.6121    8.1034   -9.9348 H   0  0  0  0  0  0  0  0  0  0  0  0
    9.0192    4.5392   -8.2481 H   0  0  0  0  0  0  0  0  0  0  0  0
   10.5781    6.4306   -8.0720 H   0  0  0  0  0  0  0  0  0  0  0  0
   11.4746    8.2786   -6.7925 H   0  0  0  0  0  0  0  0  0  0  0  0
   10.0661    9.3405   -6.7719 H   0  0  0  0  0  0  0  0  0  0  0  0
   10.7312    8.7461   -5.2536 H   0  0  0  0  0  0  0  0  0  0  0  0
    8.4316    7.8952   -4.6892 H   0  0  0  0  0  0  0  0  0  0  0  0
    6.8789    5.9970   -4.8507 H   0  0  0  0  0  0  0  0  0  0  0  0
    5.8130    2.3733   -8.3459 H   0  0  0  0  0  0  0  0  0  0  0  0
    6.6418    0.1322   -8.9215 H   0  0  0  0  0  0  0  0  0  0  0  0
    9.8124   -1.3312   -7.5449 H   0  0  0  0  0  0  0  0  0  0  0  0
    9.0301   -1.1754   -9.1226 H   0  0  0  0  0  0  0  0  0  0  0  0
    8.1416   -1.8632   -7.7692 H   0  0  0  0  0  0  0  0  0  0  0  0
   10.0058    0.7094   -6.3617 H   0  0  0  0  0  0  0  0  0  0  0  0
    9.1688    2.9401   -5.7598 H   0  0  0  0  0  0  0  0  0  0  0  0
   -0.7137    4.3272   -4.2756 H   0  0  0  0  0  0  0  0  0  0  0  0
   -2.1417    5.4635   -5.9180 H   0  0  0  0  0  0  0  0  0  0  0  0
   -2.8722    4.7051   -8.8557 H   0  0  0  0  0  0  0  0  0  0  0  0
   -2.3862    6.2847   -8.2449 H   0  0  0  0  0  0  0  0  0  0  0  0
   -1.4734    5.5143   -9.5569 H   0  0  0  0  0  0  0  0  0  0  0  0
    0.0837    3.6851   -9.0909 H   0  0  0  0  0  0  0  0  0  0  0  0
    1.5278    2.5711   -7.4587 H   0  0  0  0  0  0  0  0  0  0  0  0
   -1.0307    1.5556   -4.5300 H   0  0  0  0  0  0  0  0  0  0  0  0
   -1.8865    0.5110   -2.4744 H   0  0  0  0  0  0  0  0  0  0  0  0
   -0.1095    0.6492    0.8234 H   0  0  0  0  0  0  0  0  0  0  0  0
   -0.6455   -0.7116   -0.1710 H   0  0  0  0  0  0  0  0  0  0  0  0
   -1.7403    0.6321    0.1407 H   0  0  0  0  0  0  0  0  0  0  0  0
    1.5901    1.8039   -0.3711 H   0  0  0  0  0  0  0  0  0  0  0  0
    2.4633    2.8107   -2.4259 H   0  0  0  0  0  0  0  0  0  0  0  0
   -0.6995   -0.6935   -5.4158 H   0  0  0  0  0  0  0  0  0  0  0  0
   -1.5635   -0.3941   -7.6990 H   0  0  0  0  0  0  0  0  0  0  0  0
   -0.0542    0.1432   -9.5425 H   0  0  0  0  0  0  0  0  0  0  0  0
    3.1235    1.4469   -9.2261 H   0  0  0  0  0  0  0  0  0  0  0  0
    3.5430   -0.2566   -9.3340 H   0  0  0  0  0  0  0  0  0  0  0  0
    1.4083    1.1849  -10.9811 H   0  0  0  0  0  0  0  0  0  0  0  0
    1.7261   -0.5555  -11.0619 H   0  0  0  0  0  0  0  0  0  0  0  0
    2.9685    0.6015  -11.5429 H   0  0  0  0  0  0  0  0  0  0  0  0
    3.2550    0.0382   -6.8555 H   0  0  0  0  0  0  0  0  0  0  0  0
   -0.7637   -9.2595    5.3854 H   0  0  0  0  0  0  0  0  0  0  0  0
   -2.1800  -11.1063    6.1689 H   0  0  0  0  0  0  0  0  0  0  0  0
   -3.7855  -10.7515    8.0021 H   0  0  0  0  0  0  0  0  0  0  0  0
   -4.9764   -9.2534    9.4397 H   0  0  0  0  0  0  0  0  0  0  0  0
   -4.8047   -7.5081    9.2071 H   0  0  0  0  0  0  0  0  0  0  0  0
   -2.7773   -7.5093   10.6590 H   0  0  0  0  0  0  0  0  0  0  0  0
   -4.1761   -8.1572   11.5221 H   0  0  0  0  0  0  0  0  0  0  0  0
   -2.9408   -9.2508   10.8895 H   0  0  0  0  0  0  0  0  0  0  0  0
   -2.6343   -6.6595    8.2144 H   0  0  0  0  0  0  0  0  0  0  0  0
    3.9570   -2.3877   -0.3693 H   0  0  0  0  0  0  0  0  0  0  0  0
    3.3894   -3.0324    1.1707 H   0  0  0  0  0  0  0  0  0  0  0  0
    3.1082   -0.1739    0.0847 H   0  0  0  0  0  0  0  0  0  0  0  0
    2.2959   -0.6920    1.5578 H   0  0  0  0  0  0  0  0  0  0  0  0
    4.0651   -0.6744    1.4784 H   0  0  0  0  0  0  0  0  0  0  0  0
    1.9431   -3.2333    4.2682 H   0  0  0  0  0  0  0  0  0  0  0  0
    2.3936   -2.4607    2.7511 H   0  0  0  0  0  0  0  0  0  0  0  0
    0.6862   -1.1042    3.9257 H   0  0  0  0  0  0  0  0  0  0  0  0
   -0.4050   -2.4900    3.9851 H   0  0  0  0  0  0  0  0  0  0  0  0
   -0.0120   -1.7541    2.4325 H   0  0  0  0  0  0  0  0  0  0  0  0
    0.3901   -6.1461    9.8775 H   0  0  0  0  0  0  0  0  0  0  0  0
   -0.6357   -4.8314   11.6765 H   0  0  0  0  0  0  0  0  0  0  0  0
   -5.6281   -2.9635    5.5479 H   0  0  0  0  0  0  0  0  0  0  0  0
   -7.6579   -1.6599    5.1616 H   0  0  0  0  0  0  0  0  0  0  0  0
   -9.2318   -0.0291    5.8499 H   0  0  0  0  0  0  0  0  0  0  0  0
   -9.1510    0.5931    7.5054 H   0  0  0  0  0  0  0  0  0  0  0  0
   -7.6195    1.7665    5.1377 H   0  0  0  0  0  0  0  0  0  0  0  0
   -7.6177    2.3926    6.7916 H   0  0  0  0  0  0  0  0  0  0  0  0
   -9.0989    2.4386    5.8323 H   0  0  0  0  0  0  0  0  0  0  0  0
   -6.8015    0.7372    8.5866 H   0  0  0  0  0  0  0  0  0  0  0  0
   -4.7625   -0.5882    8.9832 H   0  0  0  0  0  0  0  0  0  0  0  0
   -3.5267   -0.8379    5.0731 H   0  0  0  0  0  0  0  0  0  0  0  0
   -3.5235   -0.5931    2.6321 H   0  0  0  0  0  0  0  0  0  0  0  0
   -2.1770   -2.9406    0.3534 H   0  0  0  0  0  0  0  0  0  0  0  0
   -3.1530   -1.4689    0.4645 H   0  0  0  0  0  0  0  0  0  0  0  0
   -4.2290   -3.1766   -0.9861 H   0  0  0  0  0  0  0  0  0  0  0  0
   -4.2637   -4.3173    0.3587 H   0  0  0  0  0  0  0  0  0  0  0  0
   -5.2286   -2.8430    0.4348 H   0  0  0  0  0  0  0  0  0  0  0  0
   -2.7263   -4.7635    2.1956 H   0  0  0  0  0  0  0  0  0  0  0  0
   -2.7390   -5.0116    4.6411 H   0  0  0  0  0  0  0  0  0  0  0  0
   -2.7155   -3.4179   12.3925 H   0  0  0  0  0  0  0  0  0  0  0  0
   -2.5374    1.6049    8.5650 H   0  0  0  0  0  0  0  0  0  0  0  0
   -5.1896    6.1156    8.0560 H   0  0  0  0  0  0  0  0  0  0  0  0
   -5.9958    5.2606    6.7340 H   0  0  0  0  0  0  0  0  0  0  0  0
   -4.2175    5.1864    6.9138 H   0  0  0  0  0  0  0  0  0  0  0  0
   -5.5286    3.3854   11.0641 H   0  0  0  0  0  0  0  0  0  0  0  0
   -5.3660    1.5307   12.6585 H   0  0  0  0  0  0  0  0  0  0  0  0
  1  2  2  0  0  0  0
  2  3  1  0  0  0  0
  3  4  2  0  0  0  0
  3  5  1  0  0  0  0
  5  6  2  0  0  0  0
  6  7  1  0  0  0  0
  7  8  2  0  0  0  0
  8  9  1  0  0  0  0
  8 10  1  0  0  0  0
 10 11  2  0  0  0  0
 11 12  1  0  0  0  0
 12 13  2  0  0  0  0
 13 14  1  0  0  0  0
 14 15  3  0  0  0  0
 13 16  1  0  0  0  0
 16 17  3  0  0  0  0
  1 18  1  0  0  0  0
 18 19  2  0  0  0  0
 19 20  1  0  0  0  0
 20 21  1  0  0  0  0
 21 22  2  0  0  0  0
 22 23  1  0  0  0  0
 23 24  2  0  0  0  0
 24 25  1  0  0  0  0
 24 26  1  0  0  0  0
 26 27  2  0  0  0  0
 20 28  1  0  0  0  0
 28 29  2  0  0  0  0
 29 30  1  0  0  0  0
 30 31  2  0  0  0  0
 31 32  1  0  0  0  0
 31 33  1  0  0  0  0
 33 34  2  0  0  0  0
 19 35  1  0  0  0  0
 35 36  1  0  0  0  0
 36 37  1  0  0  0  0
 37 38  2  0  0  0  0
 38 39  1  0  0  0  0
 39 40  1  0  0  0  0
 40 41  2  0  0  0  0
 41 42  1  0  0  0  0
 42 43  2  0  0  0  0
 43 44  1  0  0  0  0
 43 45  1  0  0  0  0
 45 46  2  0  0  0  0
 39 47  1  0  0  0  0
 47 48  2  0  0  0  0
 48 49  1  0  0  0  0
 49 50  2  0  0  0  0
 50 51  1  0  0  0  0
 50 52  1  0  0  0  0
 52 53  2  0  0  0  0
 38 54  1  0  0  0  0
 54 55  1  0  0  0  0
 37 56  1  0  0  0  0
 56 57  2  0  0  0  0
 57 58  1  0  0  0  0
 58 59  2  0  0  0  0
 59 60  1  0  0  0  0
 60 61  2  0  0  0  0
 61 62  1  0  0  0  0
 62 63  1  0  0  0  0
 63 64  1  0  0  0  0
 62 65  2  0  0  0  0
 57 66  1  0  0  0  0
 66 67  1  0  0  0  0
 67 68  1  0  0  0  0
 68 69  1  0  0  0  0
 69 70  1  0  0  0  0
 70 71  1  0  0  0  0
 71 72  2  0  0  0  0
 72 73  1  0  0  0  0
 73 74  1  0  0  0  0
 71 75  1  0  0  0  0
 75 76  1  0  0  0  0
 76 77  1  0  0  0  0
 77 78  1  0  0  0  0
 78 79  1  0  0  0  0
 79 80  1  0  0  0  0
 80 81  2  0  0  0  0
 81 82  1  0  0  0  0
 82 83  2  0  0  0  0
 83 84  1  0  0  0  0
 84 85  1  0  0  0  0
 85 86  1  0  0  0  0
 84 87  2  0  0  0  0
 79 88  2  0  0  0  0
 88 89  1  0  0  0  0
 89 90  1  0  0  0  0
 90 91  1  0  0  0  0
 91 92  1  0  0  0  0
 92 93  1  0  0  0  0
 93 94  1  0  0  0  0
 94 95  1  0  0  0  0
 95 96  1  0  0  0  0
 96 97  1  0  0  0  0
 97 98  1  0  0  0  0
 95 99  1  0  0  0  0
 99100  1  0  0  0  0
 92101  1  0  0  0  0
101102  1  0  0  0  0
 88103  1  0  0  0  0
103104  2  0  0  0  0
104105  1  0  0  0  0
105106  2  0  0  0  0
106107  1  0  0  0  0
107108  2  0  0  0  0
108109  1  0  0  0  0
109110  1  0  0  0  0
110111  2  0  0  0  0
111112  1  0  0  0  0
112113  2  0  0  0  0
113114  1  0  0  0  0
114115  1  0  0  0  0
113116  1  0  0  0  0
116117  2  0  0  0  0
109118  2  0  0  0  0
118119  1  0  0  0  0
119120  2  0  0  0  0
118121  1  0  0  0  0
121122  2  0  0  0  0
122123  1  0  0  0  0
123124  2  0  0  0  0
124125  1  0  0  0  0
125126  1  0  0  0  0
124127  1  0  0  0  0
127128  2  0  0  0  0
106129  1  0  0  0  0
129130  2  0  0  0  0
130131  1  0  0  0  0
131132  2  0  0  0  0
131133  1  0  0  0  0
133134  2  0  0  0  0
134135  1  0  0  0  0
135136  1  0  0  0  0
136137  1  0  0  0  0
137138  2  0  0  0  0
137139  1  0  0  0  0
135140  2  0  0  0  0
140141  1  0  0  0  0
141142  2  0  0  0  0
142143  1  0  0  0  0
143144  2  0  0  0  0
144145  1  0  0  0  0
145146  3  0  0  0  0
144147  1  0  0  0  0
147148  3  0  0  0  0
 12  2  1  0  0  0  0
 55 18  1  0  0  0  0
 98 56  1  0  0  0  0
120103  1  0  0  0  0
128121  1  0  0  0  0
143130  1  0  0  0  0
 11  5  1  0  0  0  0
 27 21  1  0  0  0  0
 34 28  1  0  0  0  0
 54 35  2  0  0  0  0
 65 58  1  0  0  0  0
 97 66  2  0  0  0  0
120107  1  0  0  0  0
142133  1  0  0  0  0
 46 40  1  0  0  0  0
 53 47  1  0  0  0  0
 96 68  2  0  0  0  0
117110  1  0  0  0  0
 94 69  2  0  0  0  0
 74 70  2  0  0  0  0
 93 75  2  0  0  0  0
 91 76  2  0  0  0  0
 90 78  2  0  0  0  0
 87 80  1  0  0  0  0
  1149  1  0  0  0  0
  6150  1  0  0  0  0
  7151  1  0  0  0  0
 10152  1  0  0  0  0
 22153  1  0  0  0  0
 23154  1  0  0  0  0
 25155  1  0  0  0  0
 25156  1  0  0  0  0
 25157  1  0  0  0  0
 26158  1  0  0  0  0
 27159  1  0  0  0  0
 29160  1  0  0  0  0
 30161  1  0  0  0  0
 32162  1  0  0  0  0
 32163  1  0  0  0  0
 32164  1  0  0  0  0
 33165  1  0  0  0  0
 34166  1  0  0  0  0
 41167  1  0  0  0  0
 42168  1  0  0  0  0
 44169  1  0  0  0  0
 44170  1  0  0  0  0
 44171  1  0  0  0  0
 45172  1  0  0  0  0
 46173  1  0  0  0  0
 48174  1  0  0  0  0
 49175  1  0  0  0  0
 51176  1  0  0  0  0
 51177  1  0  0  0  0
 51178  1  0  0  0  0
 52179  1  0  0  0  0
 53180  1  0  0  0  0
 59181  1  0  0  0  0
 60182  1  0  0  0  0
 61183  1  0  0  0  0
 63184  1  0  0  0  0
 63185  1  0  0  0  0
 64186  1  0  0  0  0
 64187  1  0  0  0  0
 64188  1  0  0  0  0
 65189  1  0  0  0  0
 81190  1  0  0  0  0
 82191  1  0  0  0  0
 83192  1  0  0  0  0
 85193  1  0  0  0  0
 85194  1  0  0  0  0
 86195  1  0  0  0  0
 86196  1  0  0  0  0
 86197  1  0  0  0  0
 87198  1  0  0  0  0
 99199  1  0  0  0  0
 99200  1  0  0  0  0
100201  1  0  0  0  0
100202  1  0  0  0  0
100203  1  0  0  0  0
101204  1  0  0  0  0
101205  1  0  0  0  0
102206  1  0  0  0  0
102207  1  0  0  0  0
102208  1  0  0  0  0
104209  1  0  0  0  0
105210  1  0  0  0  0
111211  1  0  0  0  0
112212  1  0  0  0  0
114213  1  0  0  0  0
114214  1  0  0  0  0
115215  1  0  0  0  0
115216  1  0  0  0  0
115217  1  0  0  0  0
116218  1  0  0  0  0
117219  1  0  0  0  0
122220  1  0  0  0  0
123221  1  0  0  0  0
125222  1  0  0  0  0
125223  1  0  0  0  0
126224  1  0  0  0  0
126225  1  0  0  0  0
126226  1  0  0  0  0
127227  1  0  0  0  0
128228  1  0  0  0  0
129229  1  0  0  0  0
134230  1  0  0  0  0
139231  1  0  0  0  0
139232  1  0  0  0  0
139233  1  0  0  0  0
140234  1  0  0  0  0
141235  1  0  0  0  0
M  END
