
  xtb     02072223593D
 energy: -386.761445917045 gnorm: 0.000392581175 xtb: 6.4.1 (unknown)
228252  0     0  0            999 V2000
    3.8491    1.6216  -12.0225 C   0  0  0  0  0  0  0  0  0  0  0  0
    5.0233    2.3283  -11.9419 C   0  0  0  0  0  0  0  0  0  0  0  0
    6.0501    2.1819  -12.9939 C   0  0  0  0  0  0  0  0  0  0  0  0
    5.9286    1.6300  -14.0669 O   0  0  0  0  0  0  0  0  0  0  0  0
    7.2685    2.8155  -12.4369 C   0  0  0  0  0  0  0  0  0  0  0  0
    8.5482    2.8594  -12.9537 C   0  0  0  0  0  0  0  0  0  0  0  0
    9.5424    3.4813  -12.2122 C   0  0  0  0  0  0  0  0  0  0  0  0
    9.2322    4.0352  -10.9788 C   0  0  0  0  0  0  0  0  0  0  0  0
   10.6181    4.8541   -9.9676 Br  0  0  0  0  0  0  0  0  0  0  0  0
    7.9476    4.0129  -10.4482 C   0  0  0  0  0  0  0  0  0  0  0  0
    6.9592    3.3992  -11.1953 C   0  0  0  0  0  0  0  0  0  0  0  0
    5.5259    3.2312  -10.9433 C   0  0  0  0  0  0  0  0  0  0  0  0
    4.7826    4.0305  -10.1073 C   0  0  0  0  0  0  0  0  0  0  0  0
    5.3382    5.0100   -9.2671 C   0  0  0  0  0  0  0  0  0  0  0  0
    5.7423    5.8312   -8.5720 N   0  0  0  0  0  0  0  0  0  0  0  0
    3.3755    4.0639  -10.1073 C   0  0  0  0  0  0  0  0  0  0  0  0
    2.2318    4.1764  -10.1252 N   0  0  0  0  0  0  0  0  0  0  0  0
    2.9896    1.2593  -10.9819 C   0  0  0  0  0  0  0  0  0  0  0  0
    1.6948    0.7206  -11.1112 C   0  0  0  0  0  0  0  0  0  0  0  0
    0.9902    0.6511  -12.2739 N   0  0  0  0  0  0  0  0  0  0  0  0
    1.1722    1.5704  -13.3309 C   0  0  0  0  0  0  0  0  0  0  0  0
    1.3103    2.9314  -13.0771 C   0  0  0  0  0  0  0  0  0  0  0  0
    1.4867    3.8082  -14.1284 C   0  0  0  0  0  0  0  0  0  0  0  0
    1.5123    3.3604  -15.4449 C   0  0  0  0  0  0  0  0  0  0  0  0
    1.7380    4.3148  -16.5757 C   0  0  0  0  0  0  0  0  0  0  0  0
    1.3434    2.0022  -15.6850 C   0  0  0  0  0  0  0  0  0  0  0  0
    1.1739    1.1112  -14.6432 C   0  0  0  0  0  0  0  0  0  0  0  0
   -0.0465   -0.2959  -12.3986 C   0  0  0  0  0  0  0  0  0  0  0  0
    0.1739   -1.6238  -12.0421 C   0  0  0  0  0  0  0  0  0  0  0  0
   -0.8444   -2.5467  -12.1584 C   0  0  0  0  0  0  0  0  0  0  0  0
   -2.0995   -2.1745  -12.6265 C   0  0  0  0  0  0  0  0  0  0  0  0
   -3.2000   -3.1855  -12.7040 C   0  0  0  0  0  0  0  0  0  0  0  0
   -2.3014   -0.8522  -13.0015 C   0  0  0  0  0  0  0  0  0  0  0  0
   -1.2891    0.0816  -12.8949 C   0  0  0  0  0  0  0  0  0  0  0  0
    1.1929    0.3141   -9.8547 C   0  0  0  0  0  0  0  0  0  0  0  0
   -0.2978   -0.3877   -9.3273 S   0  0  0  0  0  0  0  0  0  0  0  0
    0.2488   -0.3352   -7.6598 C   0  0  0  0  0  0  0  0  0  0  0  0
    1.5372    0.1742   -7.5255 C   0  0  0  0  0  0  0  0  0  0  0  0
    2.2649    0.2754   -6.3534 N   0  0  0  0  0  0  0  0  0  0  0  0
    3.1533    1.3554   -6.1866 C   0  0  0  0  0  0  0  0  0  0  0  0
    4.3766    1.1509   -5.5562 C   0  0  0  0  0  0  0  0  0  0  0  0
    5.2399    2.2099   -5.3580 C   0  0  0  0  0  0  0  0  0  0  0  0
    4.9163    3.4919   -5.7866 C   0  0  0  0  0  0  0  0  0  0  0  0
    5.8335    4.6468   -5.5360 C   0  0  0  0  0  0  0  0  0  0  0  0
    3.6998    3.6817   -6.4337 C   0  0  0  0  0  0  0  0  0  0  0  0
    2.8225    2.6333   -6.6300 C   0  0  0  0  0  0  0  0  0  0  0  0
    2.0737   -0.6261   -5.2978 C   0  0  0  0  0  0  0  0  0  0  0  0
    1.8285   -1.9733   -5.5515 C   0  0  0  0  0  0  0  0  0  0  0  0
    1.4824   -2.8280   -4.5252 C   0  0  0  0  0  0  0  0  0  0  0  0
    1.4018   -2.3758   -3.2133 C   0  0  0  0  0  0  0  0  0  0  0  0
    0.9439   -3.2899   -2.1185 C   0  0  0  0  0  0  0  0  0  0  0  0
    1.7342   -1.0515   -2.9549 C   0  0  0  0  0  0  0  0  0  0  0  0
    2.0639   -0.1826   -3.9761 C   0  0  0  0  0  0  0  0  0  0  0  0
    2.0523    0.5466   -8.7904 C   0  0  0  0  0  0  0  0  0  0  0  0
    3.5370    1.2629   -9.2995 S   0  0  0  0  0  0  0  0  0  0  0  0
   -0.6258   -0.7947   -6.6272 C   0  0  0  0  0  0  0  0  0  0  0  0
   -1.4253   -1.9200   -6.6129 C   0  0  0  0  0  0  0  0  0  0  0  0
   -1.5313   -2.9269   -7.6718 C   0  0  0  0  0  0  0  0  0  0  0  0
   -2.7834   -3.4340   -8.0094 C   0  0  0  0  0  0  0  0  0  0  0  0
   -2.8926   -4.4306   -8.9599 C   0  0  0  0  0  0  0  0  0  0  0  0
   -1.7609   -4.9452   -9.5679 C   0  0  0  0  0  0  0  0  0  0  0  0
   -0.5035   -4.4537   -9.2426 C   0  0  0  0  0  0  0  0  0  0  0  0
    0.7422   -5.0472   -9.8377 C   0  0  0  0  0  0  0  0  0  0  0  0
    1.3538   -6.0708   -8.8791 C   0  0  0  0  0  0  0  0  0  0  0  0
   -0.4043   -3.4400   -8.3027 C   0  0  0  0  0  0  0  0  0  0  0  0
   -2.0827   -2.0599   -5.3719 C   0  0  0  0  0  0  0  0  0  0  0  0
   -3.0730   -3.3341   -4.7022 S   0  0  0  0  0  0  0  0  0  0  0  0
   -3.0487   -2.5178   -3.1747 C   0  0  0  0  0  0  0  0  0  0  0  0
   -3.5282   -2.6877   -1.8657 C   0  0  0  0  0  0  0  0  0  0  0  0
   -4.4132   -3.6417   -1.3185 C   0  0  0  0  0  0  0  0  0  0  0  0
   -4.8139   -3.5090    0.0525 C   0  0  0  0  0  0  0  0  0  0  0  0
   -5.6872   -4.4346    0.4168 N   0  0  0  0  0  0  0  0  0  0  0  0
   -5.9776   -5.3937   -0.8554 S   0  0  0  0  0  0  0  0  0  0  0  0
   -4.9993   -4.6649   -1.9204 N   0  0  0  0  0  0  0  0  0  0  0  0
   -4.2135   -2.5049    0.8427 C   0  0  0  0  0  0  0  0  0  0  0  0
   -4.2814   -2.2589    2.2231 C   0  0  0  0  0  0  0  0  0  0  0  0
   -5.1033   -2.8604    3.6234 S   0  0  0  0  0  0  0  0  0  0  0  0
   -4.1575   -1.7726    4.6102 C   0  0  0  0  0  0  0  0  0  0  0  0
   -4.1122   -1.5529    5.9996 C   0  0  0  0  0  0  0  0  0  0  0  0
   -4.9602   -2.2715    6.9582 C   0  0  0  0  0  0  0  0  0  0  0  0
   -4.9089   -3.6598    7.0172 C   0  0  0  0  0  0  0  0  0  0  0  0
   -5.6745   -4.3351    7.9490 C   0  0  0  0  0  0  0  0  0  0  0  0
   -6.4876   -3.6360    8.8233 C   0  0  0  0  0  0  0  0  0  0  0  0
   -6.5683   -2.2509    8.7616 C   0  0  0  0  0  0  0  0  0  0  0  0
   -7.4737   -1.4919    9.6876 C   0  0  0  0  0  0  0  0  0  0  0  0
   -8.8577   -1.3113    9.0619 C   0  0  0  0  0  0  0  0  0  0  0  0
   -5.8137   -1.5796    7.8109 C   0  0  0  0  0  0  0  0  0  0  0  0
   -3.1479   -0.6190    6.3318 C   0  0  0  0  0  0  0  0  0  0  0  0
   -2.3275    0.0263    4.9109 S   0  0  0  0  0  0  0  0  0  0  0  0
   -3.2672   -0.9878    3.8744 C   0  0  0  0  0  0  0  0  0  0  0  0
   -3.3495   -1.2565    2.5029 C   0  0  0  0  0  0  0  0  0  0  0  0
   -2.7456   -0.8400    1.3471 N   0  0  0  0  0  0  0  0  0  0  0  0
   -3.2633   -1.5918    0.3046 C   0  0  0  0  0  0  0  0  0  0  0  0
   -3.0168   -1.6062   -1.0941 C   0  0  0  0  0  0  0  0  0  0  0  0
   -2.2943   -0.7748   -1.9371 N   0  0  0  0  0  0  0  0  0  0  0  0
   -2.3220   -1.3263   -3.1888 C   0  0  0  0  0  0  0  0  0  0  0  0
   -1.7841   -1.0549   -4.4531 C   0  0  0  0  0  0  0  0  0  0  0  0
   -0.7750    0.1545   -5.1533 S   0  0  0  0  0  0  0  0  0  0  0  0
   -1.9060    0.6085   -1.7763 C   0  0  0  0  0  0  0  0  0  0  0  0
   -3.0974    1.4881   -1.4064 C   0  0  0  0  0  0  0  0  0  0  0  0
   -1.5376   -0.0497    1.4128 C   0  0  0  0  0  0  0  0  0  0  0  0
   -0.3100   -0.8625    1.0093 C   0  0  0  0  0  0  0  0  0  0  0  0
   -2.6565   -0.2302    7.6087 C   0  0  0  0  0  0  0  0  0  0  0  0
   -1.5629    0.5581    7.8462 C   0  0  0  0  0  0  0  0  0  0  0  0
   -1.2358    0.6933    9.2140 C   0  0  0  0  0  0  0  0  0  0  0  0
   -0.1705    1.4132    9.7895 C   0  0  0  0  0  0  0  0  0  0  0  0
    0.8146    2.0683    8.9529 C   0  0  0  0  0  0  0  0  0  0  0  0
    1.3868    1.5859    7.8101 C   0  0  0  0  0  0  0  0  0  0  0  0
    2.2945    2.4745    7.1904 C   0  0  0  0  0  0  0  0  0  0  0  0
    2.9975    2.1754    5.9047 C   0  0  0  0  0  0  0  0  0  0  0  0
    2.0309    2.2780    4.7235 C   0  0  0  0  0  0  0  0  0  0  0  0
    2.3913    3.6412    7.8922 C   0  0  0  0  0  0  0  0  0  0  0  0
    3.3634    4.9930    7.4998 Cl  0  0  0  0  0  0  0  0  0  0  0  0
    1.4024    3.6664    9.3160 S   0  0  0  0  0  0  0  0  0  0  0  0
   -0.1049    1.4327   11.1792 C   0  0  0  0  0  0  0  0  0  0  0  0
   -1.0537    0.7693   12.0034 C   0  0  0  0  0  0  0  0  0  0  0  0
   -2.1397    0.0627   11.4271 C   0  0  0  0  0  0  0  0  0  0  0  0
   -3.1786   -0.5302   12.2383 C   0  0  0  0  0  0  0  0  0  0  0  0
   -3.7240   -0.0384   13.3932 C   0  0  0  0  0  0  0  0  0  0  0  0
   -4.7706   -0.8212   13.9290 C   0  0  0  0  0  0  0  0  0  0  0  0
   -5.4866   -0.4976   15.2012 C   0  0  0  0  0  0  0  0  0  0  0  0
   -4.6533   -0.9151   16.4143 C   0  0  0  0  0  0  0  0  0  0  0  0
   -5.0032   -1.9213   13.1539 C   0  0  0  0  0  0  0  0  0  0  0  0
   -3.9678   -2.0133   11.7671 S   0  0  0  0  0  0  0  0  0  0  0  0
   -6.1791   -3.1330   13.4175 Cl  0  0  0  0  0  0  0  0  0  0  0  0
   -2.1640    0.0108   10.0418 C   0  0  0  0  0  0  0  0  0  0  0  0
   -3.3635   -0.8259    9.0950 S   0  0  0  0  0  0  0  0  0  0  0  0
   -0.7051    0.8686   13.3567 C   0  0  0  0  0  0  0  0  0  0  0  0
    0.4508    1.5907   13.5950 C   0  0  0  0  0  0  0  0  0  0  0  0
    1.1614    2.1824   12.1084 S   0  0  0  0  0  0  0  0  0  0  0  0
    0.9321    1.7860   14.9059 C   0  0  0  0  0  0  0  0  0  0  0  0
    2.0461    2.4325   15.3594 C   0  0  0  0  0  0  0  0  0  0  0  0
    3.0848    3.0661   14.5257 C   0  0  0  0  0  0  0  0  0  0  0  0
    3.0969    3.1840   13.3165 O   0  0  0  0  0  0  0  0  0  0  0  0
    4.1260    3.5262   15.4624 C   0  0  0  0  0  0  0  0  0  0  0  0
    5.3179    4.1587   15.1791 C   0  0  0  0  0  0  0  0  0  0  0  0
    6.1656    4.5035   16.2304 C   0  0  0  0  0  0  0  0  0  0  0  0
    7.4757    5.1700   15.9574 C   0  0  0  0  0  0  0  0  0  0  0  0
    5.7821    4.1964   17.5341 C   0  0  0  0  0  0  0  0  0  0  0  0
    4.5836    3.5624   17.8260 C   0  0  0  0  0  0  0  0  0  0  0  0
    3.7394    3.2214   16.7800 C   0  0  0  0  0  0  0  0  0  0  0  0
    2.4362    2.5655   16.7528 C   0  0  0  0  0  0  0  0  0  0  0  0
    1.7181    2.1810   17.8559 C   0  0  0  0  0  0  0  0  0  0  0  0
    2.1625    2.3478   19.1847 C   0  0  0  0  0  0  0  0  0  0  0  0
    2.4611    2.4491   20.2886 N   0  0  0  0  0  0  0  0  0  0  0  0
    0.4389    1.5871   17.8456 C   0  0  0  0  0  0  0  0  0  0  0  0
   -0.6037    1.1106   17.9292 N   0  0  0  0  0  0  0  0  0  0  0  0
    3.6278    1.2115  -13.0023 H   0  0  0  0  0  0  0  0  0  0  0  0
    8.7638    2.4156  -13.9131 H   0  0  0  0  0  0  0  0  0  0  0  0
   10.5540    3.5326  -12.5842 H   0  0  0  0  0  0  0  0  0  0  0  0
    7.7491    4.4499   -9.4828 H   0  0  0  0  0  0  0  0  0  0  0  0
    1.2854    3.2977  -12.0617 H   0  0  0  0  0  0  0  0  0  0  0  0
    1.5969    4.8623  -13.9204 H   0  0  0  0  0  0  0  0  0  0  0  0
    1.3865    5.3115  -16.3199 H   0  0  0  0  0  0  0  0  0  0  0  0
    1.2297    3.9786  -17.4765 H   0  0  0  0  0  0  0  0  0  0  0  0
    2.8043    4.3790  -16.7955 H   0  0  0  0  0  0  0  0  0  0  0  0
    1.3527    1.6345  -16.7005 H   0  0  0  0  0  0  0  0  0  0  0  0
    1.0508    0.0560  -14.8391 H   0  0  0  0  0  0  0  0  0  0  0  0
    1.1474   -1.9248  -11.6832 H   0  0  0  0  0  0  0  0  0  0  0  0
   -0.6661   -3.5732  -11.8804 H   0  0  0  0  0  0  0  0  0  0  0  0
   -4.0621   -2.7875  -13.2323 H   0  0  0  0  0  0  0  0  0  0  0  0
   -2.8595   -4.0854  -13.2128 H   0  0  0  0  0  0  0  0  0  0  0  0
   -3.5079   -3.4687  -11.6976 H   0  0  0  0  0  0  0  0  0  0  0  0
   -3.2667   -0.5440  -13.3755 H   0  0  0  0  0  0  0  0  0  0  0  0
   -1.4571    1.1086  -13.1829 H   0  0  0  0  0  0  0  0  0  0  0  0
    4.6407    0.1592   -5.2183 H   0  0  0  0  0  0  0  0  0  0  0  0
    6.1841    2.0359   -4.8621 H   0  0  0  0  0  0  0  0  0  0  0  0
    6.8186    4.3039   -5.2297 H   0  0  0  0  0  0  0  0  0  0  0  0
    5.9313    5.2592   -6.4307 H   0  0  0  0  0  0  0  0  0  0  0  0
    5.4286    5.2795   -4.7459 H   0  0  0  0  0  0  0  0  0  0  0  0
    3.4305    4.6693   -6.7789 H   0  0  0  0  0  0  0  0  0  0  0  0
    1.8737    2.8060   -7.1173 H   0  0  0  0  0  0  0  0  0  0  0  0
    1.9005   -2.3412   -6.5634 H   0  0  0  0  0  0  0  0  0  0  0  0
    1.2622   -3.8621   -4.7477 H   0  0  0  0  0  0  0  0  0  0  0  0
    1.2899   -2.9422   -1.1478 H   0  0  0  0  0  0  0  0  0  0  0  0
   -0.1469   -3.3304   -2.0999 H   0  0  0  0  0  0  0  0  0  0  0  0
    1.3085   -4.3017   -2.2807 H   0  0  0  0  0  0  0  0  0  0  0  0
    1.7106   -0.6845   -1.9386 H   0  0  0  0  0  0  0  0  0  0  0  0
    2.2789    0.8535   -3.7621 H   0  0  0  0  0  0  0  0  0  0  0  0
   -3.6672   -3.0403   -7.5309 H   0  0  0  0  0  0  0  0  0  0  0  0
   -3.8671   -4.8194   -9.2173 H   0  0  0  0  0  0  0  0  0  0  0  0
   -1.8538   -5.7385  -10.2963 H   0  0  0  0  0  0  0  0  0  0  0  0
    0.5094   -5.5406  -10.7837 H   0  0  0  0  0  0  0  0  0  0  0  0
    1.4719   -4.2580  -10.0335 H   0  0  0  0  0  0  0  0  0  0  0  0
    0.6457   -6.8725   -8.6814 H   0  0  0  0  0  0  0  0  0  0  0  0
    2.2563   -6.5015   -9.3068 H   0  0  0  0  0  0  0  0  0  0  0  0
    1.6085   -5.6001   -7.9322 H   0  0  0  0  0  0  0  0  0  0  0  0
    0.5716   -3.0604   -8.0404 H   0  0  0  0  0  0  0  0  0  0  0  0
   -4.2562   -4.2008    6.3485 H   0  0  0  0  0  0  0  0  0  0  0  0
   -5.6275   -5.4127    8.0006 H   0  0  0  0  0  0  0  0  0  0  0  0
   -7.0656   -4.1697    9.5638 H   0  0  0  0  0  0  0  0  0  0  0  0
   -7.5719   -2.0341   10.6299 H   0  0  0  0  0  0  0  0  0  0  0  0
   -7.0416   -0.5121    9.9022 H   0  0  0  0  0  0  0  0  0  0  0  0
   -8.7816   -0.7611    8.1266 H   0  0  0  0  0  0  0  0  0  0  0  0
   -9.3071   -2.2795    8.8527 H   0  0  0  0  0  0  0  0  0  0  0  0
   -9.5117   -0.7629    9.7359 H   0  0  0  0  0  0  0  0  0  0  0  0
   -5.8809   -0.5032    7.7360 H   0  0  0  0  0  0  0  0  0  0  0  0
   -1.0981    0.7023   -1.0496 H   0  0  0  0  0  0  0  0  0  0  0  0
   -1.5050    0.9294   -2.7409 H   0  0  0  0  0  0  0  0  0  0  0  0
   -3.5614    1.1555   -0.4808 H   0  0  0  0  0  0  0  0  0  0  0  0
   -2.7741    2.5188   -1.2883 H   0  0  0  0  0  0  0  0  0  0  0  0
   -3.8464    1.4481   -2.1938 H   0  0  0  0  0  0  0  0  0  0  0  0
   -1.4324    0.2700    2.4526 H   0  0  0  0  0  0  0  0  0  0  0  0
   -1.6361    0.8532    0.8088 H   0  0  0  0  0  0  0  0  0  0  0  0
    0.5789   -0.2389    1.0607 H   0  0  0  0  0  0  0  0  0  0  0  0
   -0.4124   -1.2526   -0.0005 H   0  0  0  0  0  0  0  0  0  0  0  0
   -0.1832   -1.7035    1.6873 H   0  0  0  0  0  0  0  0  0  0  0  0
   -1.0172    1.0394    7.0551 H   0  0  0  0  0  0  0  0  0  0  0  0
    1.2022    0.5949    7.4360 H   0  0  0  0  0  0  0  0  0  0  0  0
    3.4104    1.1653    5.9496 H   0  0  0  0  0  0  0  0  0  0  0  0
    3.8195    2.8785    5.7669 H   0  0  0  0  0  0  0  0  0  0  0  0
    1.6218    3.2834    4.6590 H   0  0  0  0  0  0  0  0  0  0  0  0
    2.5477    2.0533    3.7936 H   0  0  0  0  0  0  0  0  0  0  0  0
    1.2062    1.5784    4.8412 H   0  0  0  0  0  0  0  0  0  0  0  0
   -3.4262    0.8971   13.8313 H   0  0  0  0  0  0  0  0  0  0  0  0
   -5.6746    0.5771   15.2419 H   0  0  0  0  0  0  0  0  0  0  0  0
   -6.4455   -1.0173   15.2206 H   0  0  0  0  0  0  0  0  0  0  0  0
   -5.1851   -0.6807   17.3326 H   0  0  0  0  0  0  0  0  0  0  0  0
   -4.4600   -1.9849   16.3892 H   0  0  0  0  0  0  0  0  0  0  0  0
   -3.7000   -0.3925   16.4255 H   0  0  0  0  0  0  0  0  0  0  0  0
   -1.2524    0.3959   14.1521 H   0  0  0  0  0  0  0  0  0  0  0  0
    0.2955    1.3289   15.6539 H   0  0  0  0  0  0  0  0  0  0  0  0
    5.5794    4.3789   14.1549 H   0  0  0  0  0  0  0  0  0  0  0  0
    8.2351    4.4161   15.7465 H   0  0  0  0  0  0  0  0  0  0  0  0
    7.4042    5.8225   15.0905 H   0  0  0  0  0  0  0  0  0  0  0  0
    7.8061    5.7500   16.8154 H   0  0  0  0  0  0  0  0  0  0  0  0
    6.4408    4.4621   18.3482 H   0  0  0  0  0  0  0  0  0  0  0  0
    4.3304    3.3454   18.8507 H   0  0  0  0  0  0  0  0  0  0  0  0
  1  2  2  0  0  0  0
  2  3  1  0  0  0  0
  3  4  2  0  0  0  0
  3  5  1  0  0  0  0
  5  6  2  0  0  0  0
  6  7  1  0  0  0  0
  7  8  2  0  0  0  0
  8  9  1  0  0  0  0
  8 10  1  0  0  0  0
 10 11  2  0  0  0  0
 11 12  1  0  0  0  0
 12 13  2  0  0  0  0
 13 14  1  0  0  0  0
 14 15  3  0  0  0  0
 13 16  1  0  0  0  0
 16 17  3  0  0  0  0
  1 18  1  0  0  0  0
 18 19  2  0  0  0  0
 19 20  1  0  0  0  0
 20 21  1  0  0  0  0
 21 22  2  0  0  0  0
 22 23  1  0  0  0  0
 23 24  2  0  0  0  0
 24 25  1  0  0  0  0
 24 26  1  0  0  0  0
 26 27  2  0  0  0  0
 20 28  1  0  0  0  0
 28 29  2  0  0  0  0
 29 30  1  0  0  0  0
 30 31  2  0  0  0  0
 31 32  1  0  0  0  0
 31 33  1  0  0  0  0
 33 34  2  0  0  0  0
 19 35  1  0  0  0  0
 35 36  1  0  0  0  0
 36 37  1  0  0  0  0
 37 38  2  0  0  0  0
 38 39  1  0  0  0  0
 39 40  1  0  0  0  0
 40 41  2  0  0  0  0
 41 42  1  0  0  0  0
 42 43  2  0  0  0  0
 43 44  1  0  0  0  0
 43 45  1  0  0  0  0
 45 46  2  0  0  0  0
 39 47  1  0  0  0  0
 47 48  2  0  0  0  0
 48 49  1  0  0  0  0
 49 50  2  0  0  0  0
 50 51  1  0  0  0  0
 50 52  1  0  0  0  0
 52 53  2  0  0  0  0
 38 54  1  0  0  0  0
 54 55  1  0  0  0  0
 37 56  1  0  0  0  0
 56 57  2  0  0  0  0
 57 58  1  0  0  0  0
 58 59  2  0  0  0  0
 59 60  1  0  0  0  0
 60 61  2  0  0  0  0
 61 62  1  0  0  0  0
 62 63  1  0  0  0  0
 63 64  1  0  0  0  0
 62 65  2  0  0  0  0
 57 66  1  0  0  0  0
 66 67  1  0  0  0  0
 67 68  1  0  0  0  0
 68 69  1  0  0  0  0
 69 70  1  0  0  0  0
 70 71  1  0  0  0  0
 71 72  2  0  0  0  0
 72 73  1  0  0  0  0
 73 74  1  0  0  0  0
 71 75  1  0  0  0  0
 75 76  1  0  0  0  0
 76 77  1  0  0  0  0
 77 78  1  0  0  0  0
 78 79  1  0  0  0  0
 79 80  1  0  0  0  0
 80 81  2  0  0  0  0
 81 82  1  0  0  0  0
 82 83  2  0  0  0  0
 83 84  1  0  0  0  0
 84 85  1  0  0  0  0
 85 86  1  0  0  0  0
 84 87  2  0  0  0  0
 79 88  2  0  0  0  0
 88 89  1  0  0  0  0
 89 90  1  0  0  0  0
 90 91  1  0  0  0  0
 91 92  1  0  0  0  0
 92 93  1  0  0  0  0
 93 94  1  0  0  0  0
 94 95  1  0  0  0  0
 95 96  1  0  0  0  0
 96 97  1  0  0  0  0
 97 98  1  0  0  0  0
 95 99  1  0  0  0  0
 99100  1  0  0  0  0
 92101  1  0  0  0  0
101102  1  0  0  0  0
 88103  1  0  0  0  0
103104  2  0  0  0  0
104105  1  0  0  0  0
105106  2  0  0  0  0
106107  1  0  0  0  0
107108  2  0  0  0  0
108109  1  0  0  0  0
109110  1  0  0  0  0
110111  1  0  0  0  0
109112  2  0  0  0  0
112113  1  0  0  0  0
112114  1  0  0  0  0
106115  1  0  0  0  0
115116  2  0  0  0  0
116117  1  0  0  0  0
117118  1  0  0  0  0
118119  2  0  0  0  0
119120  1  0  0  0  0
120121  1  0  0  0  0
121122  1  0  0  0  0
120123  2  0  0  0  0
123124  1  0  0  0  0
123125  1  0  0  0  0
117126  2  0  0  0  0
126127  1  0  0  0  0
116128  1  0  0  0  0
128129  2  0  0  0  0
129130  1  0  0  0  0
129131  1  0  0  0  0
131132  2  0  0  0  0
132133  1  0  0  0  0
133134  2  0  0  0  0
133135  1  0  0  0  0
135136  2  0  0  0  0
136137  1  0  0  0  0
137138  1  0  0  0  0
137139  2  0  0  0  0
139140  1  0  0  0  0
140141  2  0  0  0  0
141142  1  0  0  0  0
142143  2  0  0  0  0
143144  1  0  0  0  0
144145  3  0  0  0  0
143146  1  0  0  0  0
146147  3  0  0  0  0
 12  2  1  0  0  0  0
 55 18  1  0  0  0  0
 98 56  1  0  0  0  0
127103  1  0  0  0  0
142132  1  0  0  0  0
 11  5  1  0  0  0  0
 27 21  1  0  0  0  0
 34 28  1  0  0  0  0
 54 35  2  0  0  0  0
 65 58  1  0  0  0  0
 97 66  2  0  0  0  0
126105  1  0  0  0  0
141135  1  0  0  0  0
 46 40  1  0  0  0  0
 53 47  1  0  0  0  0
 96 68  2  0  0  0  0
114107  1  0  0  0  0
130115  1  0  0  0  0
 94 69  2  0  0  0  0
124118  1  0  0  0  0
 74 70  2  0  0  0  0
 93 75  2  0  0  0  0
 91 76  2  0  0  0  0
 90 78  2  0  0  0  0
 87 80  1  0  0  0  0
  1148  1  0  0  0  0
  6149  1  0  0  0  0
  7150  1  0  0  0  0
 10151  1  0  0  0  0
 22152  1  0  0  0  0
 23153  1  0  0  0  0
 25154  1  0  0  0  0
 25155  1  0  0  0  0
 25156  1  0  0  0  0
 26157  1  0  0  0  0
 27158  1  0  0  0  0
 29159  1  0  0  0  0
 30160  1  0  0  0  0
 32161  1  0  0  0  0
 32162  1  0  0  0  0
 32163  1  0  0  0  0
 33164  1  0  0  0  0
 34165  1  0  0  0  0
 41166  1  0  0  0  0
 42167  1  0  0  0  0
 44168  1  0  0  0  0
 44169  1  0  0  0  0
 44170  1  0  0  0  0
 45171  1  0  0  0  0
 46172  1  0  0  0  0
 48173  1  0  0  0  0
 49174  1  0  0  0  0
 51175  1  0  0  0  0
 51176  1  0  0  0  0
 51177  1  0  0  0  0
 52178  1  0  0  0  0
 53179  1  0  0  0  0
 59180  1  0  0  0  0
 60181  1  0  0  0  0
 61182  1  0  0  0  0
 63183  1  0  0  0  0
 63184  1  0  0  0  0
 64185  1  0  0  0  0
 64186  1  0  0  0  0
 64187  1  0  0  0  0
 65188  1  0  0  0  0
 81189  1  0  0  0  0
 82190  1  0  0  0  0
 83191  1  0  0  0  0
 85192  1  0  0  0  0
 85193  1  0  0  0  0
 86194  1  0  0  0  0
 86195  1  0  0  0  0
 86196  1  0  0  0  0
 87197  1  0  0  0  0
 99198  1  0  0  0  0
 99199  1  0  0  0  0
100200  1  0  0  0  0
100201  1  0  0  0  0
100202  1  0  0  0  0
101203  1  0  0  0  0
101204  1  0  0  0  0
102205  1  0  0  0  0
102206  1  0  0  0  0
102207  1  0  0  0  0
104208  1  0  0  0  0
108209  1  0  0  0  0
110210  1  0  0  0  0
110211  1  0  0  0  0
111212  1  0  0  0  0
111213  1  0  0  0  0
111214  1  0  0  0  0
119215  1  0  0  0  0
121216  1  0  0  0  0
121217  1  0  0  0  0
122218  1  0  0  0  0
122219  1  0  0  0  0
122220  1  0  0  0  0
128221  1  0  0  0  0
131222  1  0  0  0  0
136223  1  0  0  0  0
138224  1  0  0  0  0
138225  1  0  0  0  0
138226  1  0  0  0  0
139227  1  0  0  0  0
140228  1  0  0  0  0
M  END
