249

C         -1.06710       -0.89150       -2.92010
C         -1.79930       -1.94460       -2.38830
C         -1.29740       -3.27480       -2.03750
O         -0.23190       -3.79940       -2.32070
C         -2.36160       -3.92110       -1.24480
C         -2.37250       -5.17680       -0.67090
C         -3.52600       -5.59690       -0.02600
C         -4.62200       -4.74700        0.04230
Br        -6.18600       -5.36570        0.90450
C         -4.61920       -3.47440       -0.51830
C         -3.47400       -3.06850       -1.17860
C         -3.16310       -1.85270       -1.93360
C         -4.08920       -0.88940       -2.25570
C         -3.88410        0.18870       -3.13420
N         -3.86850        1.07240       -3.87030
C         -5.44660       -0.90080       -1.87980
N         -6.57410       -0.81540       -1.67230
C          0.23150       -0.87340       -3.41910
C          1.03230        0.29470       -3.57620
N          0.67850        1.57300       -3.20200
C          1.62340        2.34750       -2.49560
C          1.81740        3.69460       -2.78360
C          2.74390        4.43030       -2.06770
C          3.51180        3.85070       -1.06520
C          4.50830        4.64990       -0.28380
C          3.31280        2.50290       -0.78540
C          2.37850        1.76300       -1.47910
C         -0.49420        2.19260       -3.66820
C         -1.19210        3.07730       -2.85010
C         -2.27810        3.76890       -3.34760
C         -2.69330        3.60160       -4.66380
C         -3.82310        4.40910       -5.21930
C         -2.01290        2.68700       -5.46000
C         -0.92980        1.98380       -4.97400
C          2.33400       -0.04180       -3.95630
S          3.79540        0.88560       -4.09340
C          4.74140       -0.61830       -4.01090
C          3.94130       -1.74760       -4.18600
N          4.42940       -3.02830       -4.22740
C          5.79650       -3.24000       -4.55230
C          6.38910       -2.54130       -5.60010
C          7.71790       -2.74610       -5.90820
C          8.48880       -3.65570       -5.19120
C          9.93350       -3.85350       -5.53150
C          7.88430       -4.36040       -4.16070
C          6.55380       -4.15840       -3.83970
C          3.52970       -4.08430       -4.55910
C          3.38900       -5.19180       -3.73620
C          2.49890       -6.19350       -4.07340
C          1.73640       -6.11820       -5.23160
C          0.73980       -7.18510       -5.56170
C          1.90270       -5.01710       -6.06150
C          2.79100       -4.01180       -5.73510
C          2.56720       -1.40610       -4.12130
S          1.14690       -2.33000       -3.81620
C          5.93670       -0.51520       -3.24060
C          6.63920        0.66560       -3.04740
C          6.74750        1.67030       -4.10140
C          7.09910        1.27270       -5.38980
C          7.20590        2.21290       -6.39590
C          6.94910        3.54690       -6.13200
C          6.58130        3.95750       -4.85610
C          6.22140        5.38990       -4.58920
C          4.76740        5.64310       -4.99240
C          6.48920        3.01340       -3.84650
C          7.06700        0.79920       -1.71200
S          7.53590        2.20600       -0.77600
C          7.02160        1.39100        0.67100
C          6.50060        1.74430        1.93240
C          6.42470        2.97110        2.62990
C          5.48930        3.10290        3.71940
N          5.50730        4.31280        4.25160
S          6.60100        5.21140        3.46310
N          7.08750        4.09130        2.39770
C          4.59740        2.03730        3.98760
C          3.32040        2.02210        4.57810
S          2.17210        3.15490        5.22800
C          0.89360        1.98770        4.95180
C         -0.50760        2.09530        4.92480
C         -1.22420        3.30990        5.33200
C         -0.97570        4.51730        4.68800
C         -1.64520        5.65800        5.08810
C         -2.54070        5.60970        6.14130
C         -2.78360        4.41570        6.80790
C         -3.69730        4.37320        7.99790
C         -2.89130        4.47620        9.29390
C         -2.12410        3.26970        6.39170
C         -1.09930        0.94210        4.42430
S          0.08230       -0.32840        4.13420
C          1.37180        0.75640        4.50210
C          2.75160        0.78010        4.27580
N          3.63380        0.01620        3.56400
C          4.76230        0.77740        3.34570
C          5.80780        0.59970        2.40920
N          6.02570       -0.45860        1.53900
C          6.68620        0.05210        0.44800
C          6.73180       -0.29020       -0.90660
S          6.03290       -1.58290       -1.82330
C          6.12220       -1.86550        1.86180
C          7.58220       -2.31530        1.90970
C          3.16900       -1.18310        2.90950
C          3.16640       -2.37790        3.85970
C         -2.42890        0.78510        3.94440
C         -3.03250       -0.31880        3.35050
N         -2.45500       -1.58730        3.14180
C         -3.14540       -2.67090        3.69840
C         -3.26420       -3.89520        3.04130
C         -3.94250       -4.93780        3.63020
C         -4.54530       -4.78180        4.87560
S         -5.36860       -6.19600        5.53750
C         -6.35900       -5.51310        6.89760
C         -4.45230       -3.55880        5.52410
C         -3.75620       -2.51850        4.94090
C         -1.47830       -1.72490        2.16030
C         -0.60350       -2.81490        2.16000
C          0.46030       -2.86860        1.28560
C          0.69890       -1.82440        0.40190
S          2.17340       -1.70950       -0.57090
C          2.66780       -3.43100       -0.83480
C         -0.19420       -0.75990        0.35690
C         -1.27640       -0.71960        1.20950
C         -4.33040       -0.02490        2.88140
S         -5.51620       -0.93540        2.00790
C         -6.46730        0.53060        1.76650
C         -5.83900        1.66010        2.32240
N         -6.23920        2.96270        2.07660
C         -6.43590        3.32690        0.72950
C         -7.43140        4.22830        0.36070
C         -7.66410        4.48990       -0.97400
C         -6.91020        3.85690       -1.95670
S         -7.29020        4.16590       -3.65500
C         -6.94620        2.54330       -4.40140
C         -5.87510        3.00620       -1.59150
C         -5.64350        2.74550       -0.25880
C         -6.15190        3.90600        3.09970
C         -6.44970        3.52510        4.40780
C         -6.39460        4.44010        5.43810
C         -6.05180        5.75880        5.17590
S         -5.99350        7.00170        6.43430
C         -7.23420        6.41340        7.62850
C         -5.72830        6.13980        3.87750
C         -5.77500        5.22540        2.84860
C         -4.67510        1.31280        3.01870
S         -3.46250        2.21400        3.86730
C         -7.70720        0.59330        1.11740
C         -8.43980       -0.39520        0.52880
C         -8.11490       -1.80630        0.38610
O         -7.14620       -2.39180        0.84270
C         -9.20920       -2.40320       -0.41190
C         -9.38410       -3.70840       -0.83010
C        -10.51370       -4.00820       -1.58170
C        -11.43960       -3.02680       -1.90440
C        -11.26640       -1.71380       -1.48250
C        -10.14620       -1.41170       -0.73350
C         -9.71660       -0.11570       -0.15030
O        -10.29330        0.94960       -0.21450
H         -1.54660        0.08250       -2.88420
H         -1.50540       -5.81560       -0.73950
H         -3.58030       -6.57820        0.41990
H         -5.48880       -2.84650       -0.41530
H          1.24560        4.16230       -3.57170
H          2.87540        5.47760       -2.29900
H          4.13390        4.82920        0.72480
H          5.45210        4.11520       -0.19090
H          4.69390        5.61220       -0.75430
H          3.89230        2.02700       -0.00620
H          2.23780        0.72060       -1.23900
H         -0.86860        3.22440       -1.82940
H         -2.81290        4.45180       -2.70290
H         -3.43840        5.33650       -5.64630
H         -4.33790        3.86640       -6.00810
H         -4.53740        4.67330       -4.44350
H         -2.33190        2.52870       -6.47950
H         -0.39810        1.28580       -5.60510
H          5.80160       -1.83830       -6.17320
H          8.16650       -2.19870       -6.72520
H         10.35450       -4.68750       -4.97630
H         10.50270       -2.95580       -5.29060
H         10.05230       -4.04530       -6.59650
H          8.46140       -5.07520       -3.59220
H          6.10920       -4.70870       -3.02630
H          3.96130       -5.26950       -2.82540
H          2.38780       -7.04530       -3.41830
H         -0.20910       -6.96010       -5.07380
H          0.56420       -7.23750       -6.63340
H          1.07710       -8.15710       -5.20910
H          1.32940       -4.94400       -6.97420
H          2.91310       -3.16090       -6.38990
H          7.30440        0.23000       -5.58400
H          7.49050        1.90530       -7.39180
H          7.03220        4.27770       -6.92370
H          6.34670        5.60970       -3.52770
H          6.87670        6.05280       -5.15820
H          4.63420        5.47140       -6.05820
H          4.10820        4.96670       -4.45300
H          4.48190        6.66850       -4.76850
H          6.18310        3.31880       -2.85750
H         -0.27340        4.55080        3.86840
H         -1.46370        6.59260        4.57860
H         -3.05780        6.50650        6.44920
H         -4.39570        5.20850        7.94660
H         -4.26420        3.43910        7.99660
H         -3.55080        4.44410       10.15850
H         -2.18170        3.65510        9.36710
H         -2.33530        5.41060        9.31570
H         -2.30390        2.33040        6.89690
H          5.59000       -2.44350        1.09780
H          5.66920       -2.03340        2.83700
H          7.63410       -3.36190        2.19770
H          8.13670       -1.72460        2.63580
H          8.05090       -2.19970        0.93570
H          3.76550       -1.36550        2.01910
H          2.14110       -1.00090        2.57850
H          4.15260       -2.55520        4.28370
H          2.47220       -2.19700        4.67650
H          2.84540       -3.27000        3.33050
H         -2.83610       -4.01880        2.05870
H         -4.02780       -5.88910        3.12820
H         -5.71530       -5.19980        7.71480
H         -6.96070       -4.68810        6.52840
H         -7.00230       -6.32250        7.22780
H         -4.90810       -3.40340        6.48880
H         -3.68020       -1.57350        5.45870
H         -0.72500       -3.59920        2.89050
H          1.12320       -3.71830        1.32400
H          1.84730       -3.96350       -1.30730
H          2.96700       -3.89200        0.10240
H          3.51850       -3.37350       -1.50630
H         -0.02600        0.04780       -0.33940
H         -1.95500        0.11910        1.16290
H         -8.03890        4.69570        1.12120
H         -8.45180        5.16610       -1.26690
H         -7.41080        1.77310       -3.79250
H         -5.87740        2.37130       -4.48960
H         -7.40100        2.56760       -5.38670
H         -5.24510        2.55030       -2.33850
H         -4.83990        2.07950        0.02080
H         -6.73850        2.50450        4.61200
H         -6.63040        4.11820        6.43970
H         -6.83710        5.59870        8.22770
H         -8.12610        6.10430        7.09260
H         -7.45740        7.26160        8.26800
H         -5.44160        7.16190        3.68420
H         -5.52170        5.52730        1.84370
H         -8.16050        1.57930        1.07780
H         -8.66550       -4.47070       -0.57180
H        -10.67380       -5.02180       -1.91910
H        -12.30890       -3.28820       -2.49010
H        -11.98320       -0.94470       -1.72700
