
  xtb     02062206553D
 energy: -380.431609093497 gnorm: 0.000754866741 xtb: 6.4.1 (unknown)
229252  0     0  0            999 V2000
    5.8832   11.3441    0.1983 C   0  0  0  0  0  0  0  0  0  0  0  0
    6.4403   11.5225    1.4517 C   0  0  0  0  0  0  0  0  0  0  0  0
    6.1990   10.6199    2.5843 C   0  0  0  0  0  0  0  0  0  0  0  0
    5.5321    9.6014    2.5952 O   0  0  0  0  0  0  0  0  0  0  0  0
    6.8285   11.2772    3.7528 C   0  0  0  0  0  0  0  0  0  0  0  0
    6.8829   10.8522    5.0641 C   0  0  0  0  0  0  0  0  0  0  0  0
    7.5581   11.6373    5.9878 C   0  0  0  0  0  0  0  0  0  0  0  0
    8.1455   12.8238    5.5766 C   0  0  0  0  0  0  0  0  0  0  0  0
    9.0689   13.8819    6.8599 Br  0  0  0  0  0  0  0  0  0  0  0  0
    8.0894   13.2729    4.2618 C   0  0  0  0  0  0  0  0  0  0  0  0
    7.4233   12.4823    3.3439 C   0  0  0  0  0  0  0  0  0  0  0  0
    7.2065   12.6441    1.9051 C   0  0  0  0  0  0  0  0  0  0  0  0
    7.7838   13.6028    1.1072 C   0  0  0  0  0  0  0  0  0  0  0  0
    7.6601   13.6328   -0.2955 C   0  0  0  0  0  0  0  0  0  0  0  0
    7.6296   13.6973   -1.4421 N   0  0  0  0  0  0  0  0  0  0  0  0
    8.6373   14.6144    1.5822 C   0  0  0  0  0  0  0  0  0  0  0  0
    9.3555   15.4457    1.9189 N   0  0  0  0  0  0  0  0  0  0  0  0
    5.5105   10.1265   -0.3656 C   0  0  0  0  0  0  0  0  0  0  0  0
    5.9424    8.8042   -0.1115 C   0  0  0  0  0  0  0  0  0  0  0  0
    6.9778    8.4194    0.6881 N   0  0  0  0  0  0  0  0  0  0  0  0
    8.0633    9.2511    0.9926 C   0  0  0  0  0  0  0  0  0  0  0  0
    8.6123   10.1056    0.0366 C   0  0  0  0  0  0  0  0  0  0  0  0
    9.6577   10.9397    0.3707 C   0  0  0  0  0  0  0  0  0  0  0  0
   10.1901   10.9517    1.6587 C   0  0  0  0  0  0  0  0  0  0  0  0
   11.2901   11.9012    2.0139 C   0  0  0  0  0  0  0  0  0  0  0  0
    9.6676   10.0666    2.5917 C   0  0  0  0  0  0  0  0  0  0  0  0
    8.6203    9.2234    2.2697 C   0  0  0  0  0  0  0  0  0  0  0  0
    6.9766    7.1124    1.2252 C   0  0  0  0  0  0  0  0  0  0  0  0
    5.8347    6.6077    1.8392 C   0  0  0  0  0  0  0  0  0  0  0  0
    5.8425    5.3285    2.3572 C   0  0  0  0  0  0  0  0  0  0  0  0
    6.9787    4.5303    2.2813 C   0  0  0  0  0  0  0  0  0  0  0  0
    6.9645    3.1338    2.8216 C   0  0  0  0  0  0  0  0  0  0  0  0
    8.1177    5.0526    1.6805 C   0  0  0  0  0  0  0  0  0  0  0  0
    8.1238    6.3303    1.1551 C   0  0  0  0  0  0  0  0  0  0  0  0
    5.2191    7.8903   -0.9129 C   0  0  0  0  0  0  0  0  0  0  0  0
    5.2360    6.1657   -1.0758 S   0  0  0  0  0  0  0  0  0  0  0  0
    4.0313    6.2530   -2.3479 C   0  0  0  0  0  0  0  0  0  0  0  0
    3.5986    7.5491   -2.5894 C   0  0  0  0  0  0  0  0  0  0  0  0
    2.5613    7.8941   -3.4389 N   0  0  0  0  0  0  0  0  0  0  0  0
    2.6322    9.0966   -4.1592 C   0  0  0  0  0  0  0  0  0  0  0  0
    3.8528    9.5499   -4.6560 C   0  0  0  0  0  0  0  0  0  0  0  0
    3.9218   10.7441   -5.3437 C   0  0  0  0  0  0  0  0  0  0  0  0
    2.7838   11.5104   -5.5675 C   0  0  0  0  0  0  0  0  0  0  0  0
    2.8824   12.8112   -6.3027 C   0  0  0  0  0  0  0  0  0  0  0  0
    1.5687   11.0417   -5.0842 C   0  0  0  0  0  0  0  0  0  0  0  0
    1.4869    9.8536   -4.3847 C   0  0  0  0  0  0  0  0  0  0  0  0
    1.4538    7.0394   -3.5717 C   0  0  0  0  0  0  0  0  0  0  0  0
    0.9388    6.3745   -2.4631 C   0  0  0  0  0  0  0  0  0  0  0  0
   -0.0695    5.4426   -2.6164 C   0  0  0  0  0  0  0  0  0  0  0  0
   -0.5975    5.1556   -3.8673 C   0  0  0  0  0  0  0  0  0  0  0  0
   -1.6405    4.0963   -4.0495 C   0  0  0  0  0  0  0  0  0  0  0  0
   -0.1246    5.8742   -4.9603 C   0  0  0  0  0  0  0  0  0  0  0  0
    0.8829    6.8062   -4.8211 C   0  0  0  0  0  0  0  0  0  0  0  0
    4.3136    8.4728   -1.7899 C   0  0  0  0  0  0  0  0  0  0  0  0
    4.3151   10.1915   -1.6727 S   0  0  0  0  0  0  0  0  0  0  0  0
    3.5015    5.0534   -2.9278 C   0  0  0  0  0  0  0  0  0  0  0  0
    3.2914    4.7658   -4.2587 C   0  0  0  0  0  0  0  0  0  0  0  0
    3.9091    5.5849   -5.3540 C   0  0  0  0  0  0  0  0  0  0  0  0
    3.4680    5.2012   -6.7587 C   0  0  0  0  0  0  0  0  0  0  0  0
    2.5356    3.5840   -4.4034 C   0  0  0  0  0  0  0  0  0  0  0  0
    1.8509    2.7486   -5.7810 S   0  0  0  0  0  0  0  0  0  0  0  0
    1.1376    1.5887   -4.7161 C   0  0  0  0  0  0  0  0  0  0  0  0
    0.3876    0.4013   -4.7751 C   0  0  0  0  0  0  0  0  0  0  0  0
   -0.0255   -0.3722   -5.8847 C   0  0  0  0  0  0  0  0  0  0  0  0
   -0.6134   -1.6648   -5.6381 C   0  0  0  0  0  0  0  0  0  0  0  0
   -0.9095   -2.3571   -6.7211 N   0  0  0  0  0  0  0  0  0  0  0  0
   -0.4668   -1.4052   -8.1386 Se  0  0  0  0  0  2  0  0  0  0  0  0
    0.1243   -0.0626   -7.1582 N   0  0  0  0  0  0  0  0  0  0  0  0
   -0.8614   -2.0493   -4.2996 C   0  0  0  0  0  0  0  0  0  0  0  0
   -1.4858   -3.1956   -3.7758 C   0  0  0  0  0  0  0  0  0  0  0  0
   -2.1528   -4.6931   -4.3269 S   0  0  0  0  0  0  0  0  0  0  0  0
   -2.5569   -5.0936   -2.6748 C   0  0  0  0  0  0  0  0  0  0  0  0
   -3.1838   -6.2144   -2.0994 C   0  0  0  0  0  0  0  0  0  0  0  0
   -3.6667   -7.3741   -2.9092 C   0  0  0  0  0  0  0  0  0  0  0  0
   -2.5201   -8.3265   -3.2501 C   0  0  0  0  0  0  0  0  0  0  0  0
   -3.3097   -6.0679   -0.7373 C   0  0  0  0  0  0  0  0  0  0  0  0
   -2.6223   -4.5529   -0.1531 S   0  0  0  0  0  0  0  0  0  0  0  0
   -2.1991   -4.1011   -1.7635 C   0  0  0  0  0  0  0  0  0  0  0  0
   -1.5805   -3.0148   -2.3958 C   0  0  0  0  0  0  0  0  0  0  0  0
   -1.0209   -1.8144   -2.0338 N   0  0  0  0  0  0  0  0  0  0  0  0
   -0.5534   -1.2114   -3.1948 C   0  0  0  0  0  0  0  0  0  0  0  0
    0.1905   -0.0259   -3.4326 C   0  0  0  0  0  0  0  0  0  0  0  0
    0.8401    0.8595   -2.5954 N   0  0  0  0  0  0  0  0  0  0  0  0
    1.4099    1.8334   -3.3701 C   0  0  0  0  0  0  0  0  0  0  0  0
    2.2080    2.9702   -3.1918 C   0  0  0  0  0  0  0  0  0  0  0  0
    2.8633    3.8241   -1.8467 S   0  0  0  0  0  0  0  0  0  0  0  0
    1.2084    0.7434   -1.2048 C   0  0  0  0  0  0  0  0  0  0  0  0
    0.4254    1.7163   -0.3242 C   0  0  0  0  0  0  0  0  0  0  0  0
   -1.5080   -1.1801   -0.8263 C   0  0  0  0  0  0  0  0  0  0  0  0
   -2.6922   -0.2678   -1.1373 C   0  0  0  0  0  0  0  0  0  0  0  0
   -3.8982   -6.9709    0.2030 C   0  0  0  0  0  0  0  0  0  0  0  0
   -4.7600   -6.6742    1.2505 C   0  0  0  0  0  0  0  0  0  0  0  0
   -5.2981   -5.4300    1.5201 N   0  0  0  0  0  0  0  0  0  0  0  0
   -5.5991   -4.5213    0.5010 C   0  0  0  0  0  0  0  0  0  0  0  0
   -5.9920   -4.9571   -0.7641 C   0  0  0  0  0  0  0  0  0  0  0  0
   -6.1949   -4.0479   -1.7811 C   0  0  0  0  0  0  0  0  0  0  0  0
   -6.0424   -2.6822   -1.5677 C   0  0  0  0  0  0  0  0  0  0  0  0
   -6.2326   -1.7149   -2.6965 C   0  0  0  0  0  0  0  0  0  0  0  0
   -5.7065   -2.2518   -0.2908 C   0  0  0  0  0  0  0  0  0  0  0  0
   -5.4787   -3.1527    0.7308 C   0  0  0  0  0  0  0  0  0  0  0  0
   -5.6115   -5.1240    2.8585 C   0  0  0  0  0  0  0  0  0  0  0  0
   -6.8345   -4.5498    3.1862 C   0  0  0  0  0  0  0  0  0  0  0  0
   -7.1505   -4.3077    4.5083 C   0  0  0  0  0  0  0  0  0  0  0  0
   -6.2661   -4.6323    5.5290 C   0  0  0  0  0  0  0  0  0  0  0  0
   -6.6322   -4.4290    6.9662 C   0  0  0  0  0  0  0  0  0  0  0  0
   -5.0363   -5.1825    5.1895 C   0  0  0  0  0  0  0  0  0  0  0  0
   -4.7052   -5.4233    3.8718 C   0  0  0  0  0  0  0  0  0  0  0  0
   -5.0844   -7.8383    1.9912 C   0  0  0  0  0  0  0  0  0  0  0  0
   -6.0165   -8.1224    3.4170 S   0  0  0  0  0  0  0  0  0  0  0  0
   -5.6816   -9.8552    3.3033 C   0  0  0  0  0  0  0  0  0  0  0  0
   -4.8015  -10.1566    2.2283 C   0  0  0  0  0  0  0  0  0  0  0  0
   -4.2915  -11.3884    1.9273 N   0  0  0  0  0  0  0  0  0  0  0  0
   -3.9634  -11.6618    0.5826 C   0  0  0  0  0  0  0  0  0  0  0  0
   -4.8751  -11.3699   -0.4270 C   0  0  0  0  0  0  0  0  0  0  0  0
   -4.5460  -11.6083   -1.7473 C   0  0  0  0  0  0  0  0  0  0  0  0
   -3.3129  -12.1461   -2.0905 C   0  0  0  0  0  0  0  0  0  0  0  0
   -2.9447  -12.4017   -3.5189 C   0  0  0  0  0  0  0  0  0  0  0  0
   -2.4165  -12.4527   -1.0711 C   0  0  0  0  0  0  0  0  0  0  0  0
   -2.7307  -12.2160    0.2511 C   0  0  0  0  0  0  0  0  0  0  0  0
   -3.9436  -12.3386    2.9057 C   0  0  0  0  0  0  0  0  0  0  0  0
   -3.4143  -11.9415    4.1312 C   0  0  0  0  0  0  0  0  0  0  0  0
   -3.0906  -12.8885    5.0819 C   0  0  0  0  0  0  0  0  0  0  0  0
   -3.2636  -14.2454    4.8329 C   0  0  0  0  0  0  0  0  0  0  0  0
   -2.9411  -15.2735    5.8723 C   0  0  0  0  0  0  0  0  0  0  0  0
   -3.7586  -14.6315    3.5927 C   0  0  0  0  0  0  0  0  0  0  0  0
   -4.1015  -13.6958    2.6375 C   0  0  0  0  0  0  0  0  0  0  0  0
   -4.5022   -8.9980    1.4940 C   0  0  0  0  0  0  0  0  0  0  0  0
   -3.5241   -8.6844    0.0997 S   0  0  0  0  0  0  0  0  0  0  0  0
   -6.2825  -10.8297    4.0898 C   0  0  0  0  0  0  0  0  0  0  0  0
   -7.0940  -10.7136    5.2014 C   0  0  0  0  0  0  0  0  0  0  0  0
   -7.4180   -9.4782    5.9127 C   0  0  0  0  0  0  0  0  0  0  0  0
   -7.1413   -8.3315    5.6034 O   0  0  0  0  0  0  0  0  0  0  0  0
   -8.1456   -9.8918    7.1312 C   0  0  0  0  0  0  0  0  0  0  0  0
   -8.6606   -9.1071    8.1435 C   0  0  0  0  0  0  0  0  0  0  0  0
   -9.3065   -9.7299    9.2009 C   0  0  0  0  0  0  0  0  0  0  0  0
   -9.4188  -11.1124    9.2126 C   0  0  0  0  0  0  0  0  0  0  0  0
  -10.3069  -11.9449   10.6734 Br  0  0  0  0  0  0  0  0  0  0  0  0
   -8.9101  -11.9169    8.1990 C   0  0  0  0  0  0  0  0  0  0  0  0
   -8.2640  -11.2920    7.1467 C   0  0  0  0  0  0  0  0  0  0  0  0
   -7.6404  -11.8275    5.9334 C   0  0  0  0  0  0  0  0  0  0  0  0
   -7.6210  -13.1553    5.5771 C   0  0  0  0  0  0  0  0  0  0  0  0
   -7.1545  -13.6675    4.3518 C   0  0  0  0  0  0  0  0  0  0  0  0
   -6.8309  -14.1661    3.3672 N   0  0  0  0  0  0  0  0  0  0  0  0
   -8.1022  -14.1991    6.3916 C   0  0  0  0  0  0  0  0  0  0  0  0
   -8.4553  -15.0975    7.0142 N   0  0  0  0  0  0  0  0  0  0  0  0
    5.6710   12.2224   -0.3999 H   0  0  0  0  0  0  0  0  0  0  0  0
    6.4158    9.9245    5.3567 H   0  0  0  0  0  0  0  0  0  0  0  0
    7.6303   11.3323    7.0204 H   0  0  0  0  0  0  0  0  0  0  0  0
    8.5512   14.2078    3.9885 H   0  0  0  0  0  0  0  0  0  0  0  0
    8.2150   10.1167   -0.9673 H   0  0  0  0  0  0  0  0  0  0  0  0
   10.0664   11.6014   -0.3791 H   0  0  0  0  0  0  0  0  0  0  0  0
   12.1160   11.8100    1.3103 H   0  0  0  0  0  0  0  0  0  0  0  0
   10.9327   12.9303    1.9678 H   0  0  0  0  0  0  0  0  0  0  0  0
   11.6609   11.7108    3.0177 H   0  0  0  0  0  0  0  0  0  0  0  0
   10.0738   10.0434    3.5926 H   0  0  0  0  0  0  0  0  0  0  0  0
    8.2181    8.5473    3.0091 H   0  0  0  0  0  0  0  0  0  0  0  0
    4.9644    7.2388    1.9287 H   0  0  0  0  0  0  0  0  0  0  0  0
    4.9535    4.9444    2.8355 H   0  0  0  0  0  0  0  0  0  0  0  0
    6.3652    3.0754    3.7275 H   0  0  0  0  0  0  0  0  0  0  0  0
    7.9721    2.7895    3.0407 H   0  0  0  0  0  0  0  0  0  0  0  0
    6.5267    2.4579    2.0863 H   0  0  0  0  0  0  0  0  0  0  0  0
    9.0123    4.4504    1.6177 H   0  0  0  0  0  0  0  0  0  0  0  0
    9.0131    6.7262    0.6867 H   0  0  0  0  0  0  0  0  0  0  0  0
    4.7455    8.9595   -4.5054 H   0  0  0  0  0  0  0  0  0  0  0  0
    4.8755   11.0863   -5.7179 H   0  0  0  0  0  0  0  0  0  0  0  0
    3.4211   12.6821   -7.2401 H   0  0  0  0  0  0  0  0  0  0  0  0
    3.4297   13.5385   -5.7034 H   0  0  0  0  0  0  0  0  0  0  0  0
    1.8962   13.2144   -6.5177 H   0  0  0  0  0  0  0  0  0  0  0  0
    0.6707   11.6199   -5.2472 H   0  0  0  0  0  0  0  0  0  0  0  0
    0.5372    9.5075   -4.0044 H   0  0  0  0  0  0  0  0  0  0  0  0
    1.3440    6.5780   -1.4823 H   0  0  0  0  0  0  0  0  0  0  0  0
   -0.4451    4.9246   -1.7451 H   0  0  0  0  0  0  0  0  0  0  0  0
   -2.5262    4.5081   -4.5310 H   0  0  0  0  0  0  0  0  0  0  0  0
   -1.9307    3.6674   -3.0931 H   0  0  0  0  0  0  0  0  0  0  0  0
   -1.2587    3.2980   -4.6864 H   0  0  0  0  0  0  0  0  0  0  0  0
   -0.5382    5.6811   -5.9395 H   0  0  0  0  0  0  0  0  0  0  0  0
    1.2485    7.3456   -5.6822 H   0  0  0  0  0  0  0  0  0  0  0  0
    3.6849    6.6387   -5.1847 H   0  0  0  0  0  0  0  0  0  0  0  0
    4.9966    5.4768   -5.2753 H   0  0  0  0  0  0  0  0  0  0  0  0
    3.9242    5.8760   -7.4796 H   0  0  0  0  0  0  0  0  0  0  0  0
    2.3880    5.2720   -6.8556 H   0  0  0  0  0  0  0  0  0  0  0  0
    3.7730    4.1867   -7.0015 H   0  0  0  0  0  0  0  0  0  0  0  0
   -4.4409   -7.9170   -2.3653 H   0  0  0  0  0  0  0  0  0  0  0  0
   -4.0960   -6.9867   -3.8362 H   0  0  0  0  0  0  0  0  0  0  0  0
   -1.7395   -7.7971   -3.7910 H   0  0  0  0  0  0  0  0  0  0  0  0
   -2.8855   -9.1399   -3.8708 H   0  0  0  0  0  0  0  0  0  0  0  0
   -2.0949   -8.7493   -2.3425 H   0  0  0  0  0  0  0  0  0  0  0  0
    1.0852   -0.2938   -0.8910 H   0  0  0  0  0  0  0  0  0  0  0  0
    2.2740    0.9864   -1.1261 H   0  0  0  0  0  0  0  0  0  0  0  0
    0.6885    2.7376   -0.5863 H   0  0  0  0  0  0  0  0  0  0  0  0
   -0.6465    1.5950   -0.4532 H   0  0  0  0  0  0  0  0  0  0  0  0
    0.6774    1.5551    0.7204 H   0  0  0  0  0  0  0  0  0  0  0  0
   -1.8291   -1.9837   -0.1587 H   0  0  0  0  0  0  0  0  0  0  0  0
   -0.7221   -0.6237   -0.3236 H   0  0  0  0  0  0  0  0  0  0  0  0
   -3.4983   -0.8458   -1.5823 H   0  0  0  0  0  0  0  0  0  0  0  0
   -3.0566    0.1927   -0.2228 H   0  0  0  0  0  0  0  0  0  0  0  0
   -2.4000    0.5127   -1.8375 H   0  0  0  0  0  0  0  0  0  0  0  0
   -6.1354   -6.0114   -0.9475 H   0  0  0  0  0  0  0  0  0  0  0  0
   -6.4800   -4.4037   -2.7606 H   0  0  0  0  0  0  0  0  0  0  0  0
   -6.2044   -0.6874   -2.3409 H   0  0  0  0  0  0  0  0  0  0  0  0
   -7.1880   -1.8863   -3.1903 H   0  0  0  0  0  0  0  0  0  0  0  0
   -5.4479   -1.8462   -3.4433 H   0  0  0  0  0  0  0  0  0  0  0  0
   -5.6082   -1.1943   -0.0910 H   0  0  0  0  0  0  0  0  0  0  0  0
   -5.1893   -2.8033    1.7107 H   0  0  0  0  0  0  0  0  0  0  0  0
   -7.5371   -4.3098    2.4015 H   0  0  0  0  0  0  0  0  0  0  0  0
   -8.1104   -3.8752    4.7511 H   0  0  0  0  0  0  0  0  0  0  0  0
   -5.7945   -4.0189    7.5273 H   0  0  0  0  0  0  0  0  0  0  0  0
   -7.4847   -3.7615    7.0638 H   0  0  0  0  0  0  0  0  0  0  0  0
   -6.8943   -5.3894    7.4101 H   0  0  0  0  0  0  0  0  0  0  0  0
   -4.3310   -5.4308    5.9691 H   0  0  0  0  0  0  0  0  0  0  0  0
   -3.7454   -5.8501    3.6173 H   0  0  0  0  0  0  0  0  0  0  0  0
   -5.8404  -10.9590   -0.1692 H   0  0  0  0  0  0  0  0  0  0  0  0
   -5.2625  -11.3752   -2.5213 H   0  0  0  0  0  0  0  0  0  0  0  0
   -3.7314  -12.0689   -4.1909 H   0  0  0  0  0  0  0  0  0  0  0  0
   -2.7778  -13.4658   -3.6817 H   0  0  0  0  0  0  0  0  0  0  0  0
   -2.0230  -11.8796   -3.7718 H   0  0  0  0  0  0  0  0  0  0  0  0
   -1.4540  -12.8743   -1.3210 H   0  0  0  0  0  0  0  0  0  0  0  0
   -2.0232  -12.4479    1.0333 H   0  0  0  0  0  0  0  0  0  0  0  0
   -3.2670  -10.8912    4.3369 H   0  0  0  0  0  0  0  0  0  0  0  0
   -2.6886  -12.5662    6.0317 H   0  0  0  0  0  0  0  0  0  0  0  0
   -2.4094  -14.8301    6.7105 H   0  0  0  0  0  0  0  0  0  0  0  0
   -3.8599  -15.7250    6.2467 H   0  0  0  0  0  0  0  0  0  0  0  0
   -2.3309  -16.0691    5.4487 H   0  0  0  0  0  0  0  0  0  0  0  0
   -3.8979  -15.6802    3.3785 H   0  0  0  0  0  0  0  0  0  0  0  0
   -4.5058  -14.0090    1.6879 H   0  0  0  0  0  0  0  0  0  0  0  0
   -6.0630  -11.8430    3.7793 H   0  0  0  0  0  0  0  0  0  0  0  0
   -8.5605   -8.0335    8.1041 H   0  0  0  0  0  0  0  0  0  0  0  0
   -9.7215   -9.1506   10.0111 H   0  0  0  0  0  0  0  0  0  0  0  0
   -9.0240  -12.9873    8.2511 H   0  0  0  0  0  0  0  0  0  0  0  0
  1  2  2  0  0  0  0
  2  3  1  0  0  0  0
  3  4  2  0  0  0  0
  3  5  1  0  0  0  0
  5  6  2  0  0  0  0
  6  7  1  0  0  0  0
  7  8  2  0  0  0  0
  8  9  1  0  0  0  0
  8 10  1  0  0  0  0
 10 11  2  0  0  0  0
 11 12  1  0  0  0  0
 12 13  2  0  0  0  0
 13 14  1  0  0  0  0
 14 15  3  0  0  0  0
 13 16  1  0  0  0  0
 16 17  3  0  0  0  0
  1 18  1  0  0  0  0
 18 19  2  0  0  0  0
 19 20  1  0  0  0  0
 20 21  1  0  0  0  0
 21 22  2  0  0  0  0
 22 23  1  0  0  0  0
 23 24  2  0  0  0  0
 24 25  1  0  0  0  0
 24 26  1  0  0  0  0
 26 27  2  0  0  0  0
 20 28  1  0  0  0  0
 28 29  2  0  0  0  0
 29 30  1  0  0  0  0
 30 31  2  0  0  0  0
 31 32  1  0  0  0  0
 31 33  1  0  0  0  0
 33 34  2  0  0  0  0
 19 35  1  0  0  0  0
 35 36  1  0  0  0  0
 36 37  1  0  0  0  0
 37 38  2  0  0  0  0
 38 39  1  0  0  0  0
 39 40  1  0  0  0  0
 40 41  2  0  0  0  0
 41 42  1  0  0  0  0
 42 43  2  0  0  0  0
 43 44  1  0  0  0  0
 43 45  1  0  0  0  0
 45 46  2  0  0  0  0
 39 47  1  0  0  0  0
 47 48  2  0  0  0  0
 48 49  1  0  0  0  0
 49 50  2  0  0  0  0
 50 51  1  0  0  0  0
 50 52  1  0  0  0  0
 52 53  2  0  0  0  0
 38 54  1  0  0  0  0
 54 55  1  0  0  0  0
 37 56  1  0  0  0  0
 56 57  2  0  0  0  0
 57 58  1  0  0  0  0
 58 59  1  0  0  0  0
 57 60  1  0  0  0  0
 60 61  1  0  0  0  0
 61 62  1  0  0  0  0
 62 63  1  0  0  0  0
 63 64  1  0  0  0  0
 64 65  1  0  0  0  0
 65 66  2  0  0  0  0
 66 67  1  0  0  0  0
 67 68  1  0  0  0  0
 65 69  1  0  0  0  0
 69 70  1  0  0  0  0
 70 71  1  0  0  0  0
 71 72  1  0  0  0  0
 72 73  1  0  0  0  0
 73 74  1  0  0  0  0
 74 75  1  0  0  0  0
 73 76  2  0  0  0  0
 76 77  1  0  0  0  0
 77 78  1  0  0  0  0
 78 79  1  0  0  0  0
 79 80  1  0  0  0  0
 80 81  1  0  0  0  0
 81 82  1  0  0  0  0
 82 83  1  0  0  0  0
 83 84  1  0  0  0  0
 84 85  1  0  0  0  0
 85 86  1  0  0  0  0
 83 87  1  0  0  0  0
 87 88  1  0  0  0  0
 80 89  1  0  0  0  0
 89 90  1  0  0  0  0
 76 91  1  0  0  0  0
 91 92  2  0  0  0  0
 92 93  1  0  0  0  0
 93 94  1  0  0  0  0
 94 95  2  0  0  0  0
 95 96  1  0  0  0  0
 96 97  2  0  0  0  0
 97 98  1  0  0  0  0
 97 99  1  0  0  0  0
 99100  2  0  0  0  0
 93101  1  0  0  0  0
101102  2  0  0  0  0
102103  1  0  0  0  0
103104  2  0  0  0  0
104105  1  0  0  0  0
104106  1  0  0  0  0
106107  2  0  0  0  0
 92108  1  0  0  0  0
108109  1  0  0  0  0
109110  1  0  0  0  0
110111  2  0  0  0  0
111112  1  0  0  0  0
112113  1  0  0  0  0
113114  2  0  0  0  0
114115  1  0  0  0  0
115116  2  0  0  0  0
116117  1  0  0  0  0
116118  1  0  0  0  0
118119  2  0  0  0  0
112120  1  0  0  0  0
120121  2  0  0  0  0
121122  1  0  0  0  0
122123  2  0  0  0  0
123124  1  0  0  0  0
123125  1  0  0  0  0
125126  2  0  0  0  0
111127  1  0  0  0  0
127128  1  0  0  0  0
110129  1  0  0  0  0
129130  2  0  0  0  0
130131  1  0  0  0  0
131132  2  0  0  0  0
131133  1  0  0  0  0
133134  2  0  0  0  0
134135  1  0  0  0  0
135136  2  0  0  0  0
136137  1  0  0  0  0
136138  1  0  0  0  0
138139  2  0  0  0  0
139140  1  0  0  0  0
140141  2  0  0  0  0
141142  1  0  0  0  0
142143  3  0  0  0  0
141144  1  0  0  0  0
144145  3  0  0  0  0
 12  2  1  0  0  0  0
 55 18  1  0  0  0  0
 86 56  1  0  0  0  0
128 91  1  0  0  0  0
140130  1  0  0  0  0
 11  5  1  0  0  0  0
 27 21  1  0  0  0  0
 34 28  1  0  0  0  0
 54 35  2  0  0  0  0
 85 60  2  0  0  0  0
100 94  1  0  0  0  0
107101  1  0  0  0  0
127108  2  0  0  0  0
139133  1  0  0  0  0
 46 40  1  0  0  0  0
 53 47  1  0  0  0  0
 84 62  2  0  0  0  0
119113  1  0  0  0  0
126120  1  0  0  0  0
 82 63  2  0  0  0  0
 68 64  2  0  0  0  0
 81 69  2  0  0  0  0
 79 70  2  0  0  0  0
 78 72  2  0  0  0  0
  1146  1  0  0  0  0
  6147  1  0  0  0  0
  7148  1  0  0  0  0
 10149  1  0  0  0  0
 22150  1  0  0  0  0
 23151  1  0  0  0  0
 25152  1  0  0  0  0
 25153  1  0  0  0  0
 25154  1  0  0  0  0
 26155  1  0  0  0  0
 27156  1  0  0  0  0
 29157  1  0  0  0  0
 30158  1  0  0  0  0
 32159  1  0  0  0  0
 32160  1  0  0  0  0
 32161  1  0  0  0  0
 33162  1  0  0  0  0
 34163  1  0  0  0  0
 41164  1  0  0  0  0
 42165  1  0  0  0  0
 44166  1  0  0  0  0
 44167  1  0  0  0  0
 44168  1  0  0  0  0
 45169  1  0  0  0  0
 46170  1  0  0  0  0
 48171  1  0  0  0  0
 49172  1  0  0  0  0
 51173  1  0  0  0  0
 51174  1  0  0  0  0
 51175  1  0  0  0  0
 52176  1  0  0  0  0
 53177  1  0  0  0  0
 58178  1  0  0  0  0
 58179  1  0  0  0  0
 59180  1  0  0  0  0
 59181  1  0  0  0  0
 59182  1  0  0  0  0
 74183  1  0  0  0  0
 74184  1  0  0  0  0
 75185  1  0  0  0  0
 75186  1  0  0  0  0
 75187  1  0  0  0  0
 87188  1  0  0  0  0
 87189  1  0  0  0  0
 88190  1  0  0  0  0
 88191  1  0  0  0  0
 88192  1  0  0  0  0
 89193  1  0  0  0  0
 89194  1  0  0  0  0
 90195  1  0  0  0  0
 90196  1  0  0  0  0
 90197  1  0  0  0  0
 95198  1  0  0  0  0
 96199  1  0  0  0  0
 98200  1  0  0  0  0
 98201  1  0  0  0  0
 98202  1  0  0  0  0
 99203  1  0  0  0  0
100204  1  0  0  0  0
102205  1  0  0  0  0
103206  1  0  0  0  0
105207  1  0  0  0  0
105208  1  0  0  0  0
105209  1  0  0  0  0
106210  1  0  0  0  0
107211  1  0  0  0  0
114212  1  0  0  0  0
115213  1  0  0  0  0
117214  1  0  0  0  0
117215  1  0  0  0  0
117216  1  0  0  0  0
118217  1  0  0  0  0
119218  1  0  0  0  0
121219  1  0  0  0  0
122220  1  0  0  0  0
124221  1  0  0  0  0
124222  1  0  0  0  0
124223  1  0  0  0  0
125224  1  0  0  0  0
126225  1  0  0  0  0
129226  1  0  0  0  0
134227  1  0  0  0  0
135228  1  0  0  0  0
138229  1  0  0  0  0
M  END
