249

C         -5.18560       -4.18310        2.69010
C         -4.85070       -5.41430        3.21570
C         -3.74810       -5.67810        4.13490
O         -2.96610       -4.87300        4.61710
C         -3.71600       -7.14050        4.32800
C         -2.85520       -7.89680        5.09870
C         -3.02050       -9.27330        5.11580
C         -4.03360       -9.84900        4.36250
Br        -4.24100      -11.73760        4.40300
C         -4.90720       -9.10160        3.58020
C         -4.74220       -7.72780        3.56770
C         -5.48110       -6.66670        2.87700
C         -6.59130       -6.86220        2.09290
C         -7.36400       -5.84780        1.49570
N         -8.06840       -5.08780        0.99730
C         -7.14630       -8.12660        1.80720
N         -7.65190       -9.12260        1.54080
C         -4.71050       -2.91000        2.98580
C         -5.21230       -1.75400        2.33330
N         -6.02870       -1.76150        1.22990
C         -5.73960       -2.59040        0.12960
C         -4.41640       -2.88030       -0.19920
C         -4.13380       -3.65870       -1.30180
C         -5.14920       -4.17190       -2.10220
C         -4.82290       -5.02890       -3.28560
C         -6.46410       -3.87690       -1.76370
C         -6.76470       -3.09380       -0.66550
C         -6.99650       -0.74890        1.11850
C         -7.23970       -0.10680       -0.09160
C         -8.19460        0.88790       -0.16530
C         -8.92180        1.27330        0.95410
C         -9.93820        2.37010        0.87700
C         -8.67050        0.62640        2.15910
C         -7.72590       -0.37480        2.24540
C         -4.72050       -0.58570        2.92570
S         -4.83620        1.08930        2.49320
C         -3.58550        1.48130        3.66500
C         -3.10340        0.36480        4.33600
N         -2.00410        0.35210        5.18900
C         -2.15180       -0.31990        6.41240
C         -1.11880       -1.06230        6.97870
C         -1.31240       -1.71380        8.17910
C         -2.53000       -1.65560        8.84760
C         -2.72770       -2.38820       10.13950
C         -3.55740       -0.92110        8.27240
C         -3.37470       -0.25950        7.07470
C         -0.79900        0.92430        4.77440
C         -0.51370        1.08170        3.41850
C          0.63550        1.73040        3.00960
C          1.55630        2.21110        3.92880
C          2.80110        2.92750        3.50160
C          1.29680        1.99900        5.27810
C          0.14220        1.37340        5.69990
C         -3.79260       -0.80730        3.93790
S         -3.55060       -2.49030        4.25340
C         -2.97310        2.77350        3.60650
C         -2.39810        3.53870        4.60400
C         -2.73650        3.40720        6.02380
C         -1.69770        3.44490        6.95360
C         -1.93350        3.26490        8.30030
C         -3.23000        3.07760        8.74650
C         -4.27250        3.12490        7.84220
C         -4.05850        3.28960        6.47790
C         -5.26990        3.44820        5.59360
C         -6.19970        2.23430        5.60000
C         -1.46210        4.45080        4.05390
S         -0.18110        5.44240        4.72970
C          0.46680        5.70290        3.13510
C          1.67680        6.07240        2.50830
C          2.96930        6.36810        3.00930
C          4.12700        6.12670        2.17430
N          5.26060        6.30000        2.83120
S          4.92240        6.74300        4.35160
N          3.30660        6.71470        4.23950
C          3.94790        5.74170        0.82390
C          4.78550        5.20440       -0.18290
S          6.34760        4.45090       -0.34870
C          5.82820        3.70580       -1.85400
C          6.29470        2.59060       -2.59360
C          7.64300        2.04190       -2.42600
C          8.52000        1.93290       -3.51010
C          8.15830        2.36080       -4.90700
C          7.88180        1.17630       -5.83080
C          9.81300        1.48360       -3.26980
C         10.24880        1.18150       -1.99520
C          9.38540        1.32560       -0.92230
C          8.09030        1.74770       -1.13980
C          5.32960        2.14850       -3.48420
S          3.93960        3.24730       -3.57050
C          4.56650        4.15020       -2.24650
C          3.97940        4.99450       -1.30530
N          2.68950        5.39190       -1.06080
C          2.64130        5.76210        0.27160
C          1.52300        5.75970        1.13200
N          0.27330        5.21700        0.92210
C         -0.34330        5.14970        2.13960
C         -1.41850        4.42740        2.66150
S         -2.53800        3.30780        1.98860
C         -0.20790        4.41210       -0.17740
C         -1.39640        5.05770       -0.88530
C          1.85220        5.89340       -2.13010
C          2.54720        7.02370       -2.88740
C          5.00300        0.84100       -3.96780
C          5.14710       -0.37100       -3.30610
N          6.05900       -0.65420       -2.27500
C          7.27300       -1.25310       -2.61410
C          8.27610       -1.42770       -1.66060
C          9.49100       -1.97280       -2.01570
C          9.76130       -2.35390       -3.32490
C         11.10090       -2.91400       -3.69620
C          8.75870       -2.18760       -4.26780
C          7.53120       -1.65620       -3.92230
C          5.51100       -0.76600       -0.97910
C          4.74430        0.27520       -0.46470
C          4.26440        0.21750        0.82980
C          4.51810       -0.87970        1.64250
C          4.06910       -0.91990        3.07230
C          5.22550       -1.94550        1.09700
C          5.71060       -1.89880       -0.19420
C          4.14180       -1.28500       -3.69790
S          3.61540       -2.79190       -3.04830
C          2.13480       -2.71630       -3.99840
C          2.12420       -1.61670       -4.86810
N          1.04460       -1.20930       -5.61170
C          0.66390        0.14820       -5.52670
C          0.22910        0.82510       -6.65980
C         -0.10920        2.16190       -6.57480
C         -0.02340        2.85000       -5.37000
C         -0.34620        4.31140       -5.29630
C          0.38940        2.15570       -4.23940
C          0.72670        0.81900       -4.30780
C          0.16070       -2.15520       -6.14580
C          0.66130       -3.29990       -6.76640
C         -0.20290       -4.25940       -7.25050
C         -1.58190       -4.10910       -7.13320
C         -2.49870       -5.18200       -7.62630
C         -2.07070       -2.95630       -6.53120
C         -1.21700       -1.98610       -6.04220
C          3.26480       -0.81130       -4.66180
S          3.74550        0.76350       -5.20230
C          1.05190       -3.56560       -3.66100
C          0.64270       -3.67800       -2.35380
C          0.97420       -2.64200       -1.35490
O          1.55720       -1.59300       -1.54360
C          0.30730       -3.06950       -0.11120
C         -0.44970       -4.23010       -0.35270
C         -1.15460       -4.81600        0.68750
C         -1.04450       -4.26630        1.95910
C         -0.27550       -3.13770        2.19080
Br        -0.07130       -2.48570        3.94370
C          0.38620       -2.49130        1.14110
Cl         1.27990       -1.06030        1.39540
C         -0.30130       -4.59220       -1.76500
C         -0.95860       -5.62140       -2.39610
C         -0.83860       -5.92500       -3.76540
N         -0.80910       -6.21910       -4.87580
C         -1.87760       -6.47560       -1.75630
N         -2.64620       -7.19050       -1.28940
H         -5.95550       -4.19130        1.92860
H         -2.07680       -7.41940        5.67370
H         -2.37030       -9.89860        5.70780
H         -5.67670       -9.59470        3.00940
H         -3.61130       -2.48260        0.40300
H         -3.10290       -3.85780       -1.55520
H         -5.66510       -5.08470       -3.97020
H         -3.95580       -4.64280       -3.82010
H         -4.58530       -6.04040       -2.95460
H         -7.27060       -4.26910       -2.36470
H         -7.79060       -2.87540       -0.41590
H         -6.67360       -0.38460       -0.96800
H         -8.37230        1.37900       -1.11100
H        -10.80670        2.13530        1.48850
H         -9.50970        3.30160        1.24850
H        -10.26130        2.53060       -0.14840
H         -9.23070        0.90420        3.04000
H         -7.55300       -0.88100        3.18400
H         -0.17070       -1.14060        6.47010
H         -0.50160       -2.28920        8.60170
H         -1.84550       -2.30310       10.77080
H         -3.58730       -1.99950       10.68010
H         -2.89810       -3.44740        9.94490
H         -4.51470       -0.85790        8.77000
H         -4.18080        0.32150        6.65360
H         -1.19430        0.69140        2.67570
H          0.82090        1.85830        1.95130
H          2.92200        3.84430        4.07590
H          2.76680        3.18300        2.44380
H          3.68190        2.30950        3.67890
H          2.00650        2.35110        6.01290
H         -0.04600        1.24490        6.75390
H         -0.69130        3.60480        6.60160
H         -1.11040        3.27680        8.99860
H         -3.43070        2.92680        9.79660
H         -5.28750        3.04490        8.20380
H         -5.83400        4.31200        5.96050
H         -4.97230        3.66660        4.56830
H         -7.03390        2.40310        4.92240
H         -6.59660        2.05100        6.59530
H         -5.67500        1.34070        5.27300
H          7.28490        3.01520       -4.89130
H          8.99570        2.93330       -5.31480
H          6.99050        0.64650       -5.50700
H          7.72720        1.52250       -6.85050
H          8.71610        0.47960       -5.81780
H         10.49570        1.39550       -4.10300
H         11.26340        0.84850       -1.83610
H          9.72100        1.11030        0.08100
H          7.40540        1.84080       -0.31010
H          0.61310        4.21640       -0.86420
H         -0.53330        3.44970        0.23390
H         -1.72050        4.42520       -1.70730
H         -1.14620        6.04180       -1.27500
H         -2.22600        5.16780       -0.19180
H          0.92820        6.27310       -1.69740
H          1.63080        5.07480       -2.82380
H          1.88210        7.41450       -3.65290
H          3.45440        6.66390       -3.36590
H          2.80930        7.83060       -2.20630
H          8.10150       -1.12760       -0.63980
H         10.25190       -2.09900       -1.25870
H         11.85110       -2.12250       -3.70110
H         11.07380       -3.36510       -4.68510
H         11.41690       -3.66660       -2.97600
H          8.93090       -2.48760       -5.29210
H          6.76530       -1.56430       -4.67820
H          4.53520        1.13920       -1.07670
H          3.69030        1.04710        1.21780
H          4.91340       -0.70690        3.72960
H          3.68880       -1.90590        3.33320
H          3.29230       -0.18490        3.26880
H          5.39860       -2.82900        1.69540
H          6.24850       -2.74220       -0.60160
H          0.16470        0.29970       -7.60090
H         -0.43710        2.68250       -7.46270
H         -0.71350        4.58070       -4.30830
H         -1.09520        4.58180       -6.03670
H          0.55140        4.89780       -5.49660
H          0.44290        2.66380       -3.28700
H          1.03510        0.28940       -3.41760
H          1.73030       -3.42850       -6.85670
H          0.19410       -5.14740       -7.71790
H         -2.26300       -5.44510       -8.65590
H         -2.36950       -6.07460       -7.01560
H         -3.53770       -4.86780       -7.57050
H         -3.13760       -2.81870       -6.42820
H         -1.61140       -1.10370       -5.55960
H          0.50780       -4.06840       -4.44950
H         -1.76610       -5.69060        0.53940
H         -1.55690       -4.71770        2.79410
