249

C          4.30770       10.41840        6.93920
C          3.66060       11.56920        6.52550
C          3.40090       11.89520        5.11770
O          3.66550       11.22400        4.13690
C          2.85970       13.27360        5.12560
C          2.45600       14.05460        4.06250
C          1.94790       15.31890        4.32430
C          1.87020       15.76640        5.63420
Br         1.16240       17.50010        5.96960
C          2.28510       14.99740        6.71600
C          2.78220       13.73510        6.45010
C          3.26290       12.67730        7.34080
C          3.17760       12.68050        8.71230
C          3.51150       11.57540        9.51940
N          3.73210       10.70070       10.23070
C          2.66350       13.74890        9.46850
N          2.23350       14.58400       10.13030
C          4.32260        9.20350        6.25970
C          3.43200        8.65500        5.30680
N          2.21390        9.14710        4.94280
C          1.44610        9.98170        5.76620
C          1.38380        9.78140        7.14500
C          0.65250       10.63990        7.93750
C         -0.03780       11.71930        7.38890
C         -0.78080       12.67000        8.27300
C         -0.00860       11.88360        6.01070
C          0.71890       11.02860        5.20370
C          1.67140        8.77090        3.69360
C          0.35620        8.32920        3.61290
C         -0.16870        7.95100        2.39170
C          0.59840        8.00500        1.23530
C          0.03970        7.58390       -0.08890
C          1.90810        8.46610        1.32750
C          2.44540        8.84830        2.53930
C          3.91890        7.41370        4.84090
S          3.32090        6.22750        3.73000
C          4.68250        5.17510        4.07800
C          5.53090        5.70160        5.03330
N          6.60820        5.01570        5.62080
C          7.86590        5.61850        5.66310
C          8.89340        5.04400        6.41140
C         10.15860        5.59250        6.40240
C         10.45350        6.71840        5.64400
C         11.82750        7.31720        5.65380
C          9.43340        7.27410        4.88610
C          8.16160        6.73690        4.88820
C          6.19220        4.18900        6.70730
C          5.60880        2.95410        6.46720
C          5.17670        2.17320        7.52500
C          5.31490        2.60320        8.83700
C          4.86880        1.75310        9.98670
C          5.89180        3.84830        9.06700
C          6.31950        4.63750        8.01920
C          5.08690        6.97710        5.45260
S          5.64550        8.08830        6.64360
C          4.76320        3.94200        3.36230
C          5.86970        3.27910        2.87750
C          7.26320        3.75190        2.93020
C          8.16740        3.08250        3.74690
C          9.49470        3.46020        3.78220
C          9.93000        4.50650        2.98790
C          9.03820        5.15360        2.15510
C          7.69830        4.78930        2.10420
C          6.78730        5.47450        1.11980
C          6.47970        6.92170        1.50280
C          5.50280        2.08970        2.21810
S          6.44730        0.86750        1.40550
C          4.97670        0.05640        0.98290
C          4.55940       -1.10950        0.32020
C          5.29160       -2.19280       -0.21180
C          4.57750       -3.32690       -0.72570
N          5.38720       -4.29120       -1.13460
S          6.91520       -3.81240       -0.89880
N          6.60440       -2.35580       -0.26470
C          3.16880       -3.26960       -0.80220
C          2.24050       -4.13730       -1.40260
S          2.20820       -5.65760       -2.23250
C          0.49750       -5.43680       -2.50920
C         -0.44950       -6.20810       -3.21330
C         -0.03860       -7.44350       -3.89990
C          0.03260       -7.50320       -5.29580
C         -0.40550       -6.30930       -6.10570
C         -0.21920       -6.43720       -7.61150
C          0.55100       -8.65200       -5.87430
C          0.98640       -9.71250       -5.09990
C          0.91440       -9.64350       -3.72120
C          0.41030       -8.50460       -3.12420
C         -1.69230       -5.61030       -3.18970
S         -1.68570       -4.07510       -2.31930
C         -0.00300       -4.24830       -1.97480
C          0.99630       -3.50780       -1.33310
N          1.10360       -2.30790       -0.67740
C          2.43960       -2.13920       -0.33980
C          3.13670       -1.11010        0.34480
N          2.71210       -0.00340        1.05890
C          3.82390        0.70260        1.43680
C          4.12540        1.86360        2.16030
S          3.25640        3.12060        2.96910
C          1.44560        0.25060        1.70690
C          0.72640        1.46560        1.12220
C          0.09080       -1.30490       -0.92560
C          0.46760       -0.43070       -2.12010
C         -2.94830       -6.01400       -3.73410
C         -3.46550       -7.26870       -3.99680
N         -2.83070       -8.49680       -3.72710
C         -3.14190       -9.00790       -2.43940
C         -3.94880      -10.13250       -2.28680
C         -4.25380      -10.60210       -1.02580
C         -3.78270       -9.95920        0.11440
C         -4.11280      -10.49280        1.47480
C         -3.00410       -8.82210       -0.04700
C         -2.68680       -8.34630       -1.30640
C         -2.56050       -9.36220       -4.78790
C         -2.73850       -8.96640       -6.11190
C         -2.40880       -9.81480       -7.15030
C         -1.88750      -11.07800       -6.91250
C         -1.51020      -11.98550       -8.04400
C         -1.69350      -11.46100       -5.59140
C         -2.01580      -10.62260       -4.54500
C         -4.78990       -7.17900       -4.48290
S         -5.93360       -8.35230       -5.01250
C         -7.12990       -7.08170       -5.32560
C         -6.59740       -5.78970       -5.10240
N         -7.16900       -4.59480       -5.42660
C         -6.74470       -3.43430       -4.74050
C         -6.67890       -3.42710       -3.35010
C         -6.23570       -2.29910       -2.69080
C         -5.85420       -1.16040       -3.39320
C         -5.34670        0.04220       -2.65880
C         -5.95030       -1.17170       -4.77870
C         -6.39120       -2.29460       -5.45290
C         -8.12700       -4.44520       -6.43780
C         -8.04460       -5.16510       -7.62950
C         -9.02270       -5.02740       -8.59110
C        -10.10890       -4.17510       -8.40080
C        -11.18420       -4.07790       -9.43600
C        -10.15790       -3.42670       -7.23260
C         -9.18220       -3.55250       -6.26130
C         -5.28580       -5.88620       -4.58760
S         -4.09660       -4.73210       -4.08930
C         -8.38480       -7.49440       -5.76530
C         -9.55620       -6.76390       -5.67130
C         -9.81090       -5.76660       -4.62420
O         -9.05720       -5.40920       -3.73720
C        -11.22850       -5.37220       -4.79200
C        -11.97160       -4.46830       -4.06140
C        -13.28980       -4.24190       -4.43080
C        -13.82610       -4.93160       -5.50730
Br       -15.63340       -4.59910       -5.99990
C        -13.09520       -5.85550       -6.24610
C        -11.77990       -6.07050       -5.87910
C        -10.74460       -6.93190       -6.45270
C        -10.84290       -7.63050       -7.63190
C         -9.76730       -8.32180       -8.22320
N         -8.92130       -8.86770       -8.77620
C        -11.99630       -7.66400       -8.43580
N        -12.90420       -7.70930       -9.13850
H          4.89370       10.45630        7.84970
H          2.52820       13.68110        3.05270
H          1.61230       15.95420        3.51920
H          2.21620       15.38980        7.71770
H          1.91260        8.95390        7.59390
H          0.62100       10.47630        9.00490
H         -1.34440       13.39020        7.68580
H         -1.46770       12.13040        8.92290
H         -0.08590       13.21510        8.91210
H         -0.55050       12.70150        5.55830
H          0.74000       11.17430        4.13400
H         -0.24660        8.27860        4.50800
H         -1.19020        7.60300        2.34080
H          0.60980        6.74620       -0.48870
H          0.10440        8.40100       -0.80600
H         -1.00070        7.28350        0.00350
H          2.51140        8.53150        0.43400
H          3.45040        9.23460        2.60570
H          8.69890        4.15660        6.99440
H         10.93670        5.12970        6.99290
H         11.91910        8.03600        6.46920
H         12.02920        7.83980        4.72140
H         12.58360        6.54870        5.79870
H          9.63400        8.14430        4.27720
H          7.40100        7.18590        4.27010
H          5.49550        2.60310        5.45420
H          4.72810        1.21090        7.32260
H          4.30210        2.34430       10.70360
H          5.73470        1.34240       10.50610
H          4.25120        0.92630        9.64510
H          5.99760        4.20660       10.08070
H          6.75760        5.60700        8.20800
H          7.82020        2.26480        4.36120
H         10.18810        2.93560        4.42120
H         10.96600        4.80890        3.00870
H          9.38790        5.95020        1.51390
H          5.85060        4.92260        1.02450
H          7.27650        5.46990        0.14180
H          5.87770        7.39480        0.72990
H          7.39870        7.49020        1.62300
H          5.92490        6.96080        2.43640
H          0.14940       -5.43410       -5.75040
H         -1.46210       -6.11760       -5.89920
H         -0.55860       -5.52560       -8.09950
H          0.82820       -6.58660       -7.86270
H         -0.80000       -7.26930       -8.00150
H          0.62510       -8.72850       -6.94660
H          1.38780      -10.59320       -5.57840
H          1.25820      -10.46570       -3.11210
H          0.35820       -8.43290       -2.04760
H          1.64920        0.44680        2.76610
H          0.83810       -0.65390        1.65470
H          0.61380        1.38340        0.04510
H          1.29170        2.36870        1.33530
H         -0.25620        1.56440        1.57590
H         -0.08110       -0.69150       -0.04620
H         -0.83510       -1.84400       -1.14250
H          0.58330       -1.04330       -3.01120
H         -0.31090        0.30490       -2.30460
H          1.40760        0.08510       -1.93480
H         -4.33750      -10.63120       -3.16260
H         -4.87910      -11.47720       -0.92210
H         -3.58740      -11.43210        1.64730
H         -3.82190       -9.78960        2.25110
H         -5.18010      -10.68950        1.56040
H         -2.63540       -8.29850        0.82370
H         -2.08290       -7.45910       -1.41210
H         -3.13260       -7.98750       -6.33960
H         -2.56660       -9.48610       -8.16810
H         -1.62560      -13.02870       -7.75890
H         -2.12440      -11.78960       -8.91990
H         -0.46690      -11.82640       -8.32090
H         -1.27720      -12.43460       -5.37500
H         -1.83440      -10.93960       -3.52960
H         -7.00030       -4.30120       -2.80550
H         -6.18610       -2.29930       -1.61180
H         -6.04320        0.33370       -1.87440
H         -4.39110       -0.18600       -2.18700
H         -5.20740        0.88260       -3.33370
H         -5.66890       -0.29380       -5.34190
H         -6.45530       -2.29690       -6.53130
H         -7.21550       -5.83590       -7.79820
H         -8.94940       -5.59850       -9.50510
H        -11.62490       -5.05710       -9.62210
H        -10.77260       -3.71930      -10.37880
H        -11.97100       -3.39840       -9.11860
H        -10.97970       -2.74470       -7.06880
H         -9.23930       -2.97260       -5.35230
H         -8.43360       -8.49430       -6.17990
H        -11.52900       -3.94560       -3.22760
H        -13.89880       -3.53450       -3.88940
H        -13.55560       -6.37670       -7.06970
