
  xtb     02052215143D
 energy: -266.328083240583 gnorm: 0.000823891684 xtb: 6.4.1 (unknown)
151167  0     0  0            999 V2000
    8.8206   -6.3195    3.7640 C   0  0  0  0  0  0  0  0  0  0  0  0
    9.2915   -6.4554    2.4790 C   0  0  0  0  0  0  0  0  0  0  0  0
    8.8102   -5.7075    1.3166 C   0  0  0  0  0  0  0  0  0  0  0  0
    7.9510   -4.8424    1.2891 O   0  0  0  0  0  0  0  0  0  0  0  0
    9.5784   -6.2085    0.1614 C   0  0  0  0  0  0  0  0  0  0  0  0
    9.4955   -5.8327   -1.1651 C   0  0  0  0  0  0  0  0  0  0  0  0
   10.3287   -6.4549   -2.0817 C   0  0  0  0  0  0  0  0  0  0  0  0
   11.2167   -7.4292   -1.6473 C   0  0  0  0  0  0  0  0  0  0  0  0
   12.3493   -8.2686   -2.9216 Br  0  0  0  0  0  0  0  0  0  0  0  0
   11.3126   -7.8180   -0.3156 C   0  0  0  0  0  0  0  0  0  0  0  0
   10.4791   -7.1959    0.5977 C   0  0  0  0  0  0  0  0  0  0  0  0
   10.3270   -7.3674    2.0453 C   0  0  0  0  0  0  0  0  0  0  0  0
   11.0531   -8.2401    2.8152 C   0  0  0  0  0  0  0  0  0  0  0  0
   12.0478   -9.1036    2.3099 C   0  0  0  0  0  0  0  0  0  0  0  0
   12.8667   -9.8305    1.9650 N   0  0  0  0  0  0  0  0  0  0  0  0
   10.9280   -8.4078    4.2097 C   0  0  0  0  0  0  0  0  0  0  0  0
   10.8894   -8.6060    5.3410 N   0  0  0  0  0  0  0  0  0  0  0  0
    7.8172   -5.4884    4.2728 C   0  0  0  0  0  0  0  0  0  0  0  0
    7.4286   -5.5342    5.6127 C   0  0  0  0  0  0  0  0  0  0  0  0
    6.4101   -4.6545    5.9456 C   0  0  0  0  0  0  0  0  0  0  0  0
    5.5545   -4.5931    7.4777 S   0  0  0  0  0  0  0  0  0  0  0  0
    6.6966   -5.4332    8.6299 C   0  0  0  0  0  0  0  0  0  0  0  0
    7.9532   -4.6252    8.8829 C   0  0  0  0  0  0  0  0  0  0  0  0
    6.0063   -3.8865    4.8457 C   0  0  0  0  0  0  0  0  0  0  0  0
    6.8685   -4.3098    3.4029 S   0  0  0  0  0  0  0  0  0  0  0  0
    4.9885   -2.8967    4.7761 C   0  0  0  0  0  0  0  0  0  0  0  0
    4.6067   -1.9379    5.7009 C   0  0  0  0  0  0  0  0  0  0  0  0
    5.3344   -1.6023    6.9222 C   0  0  0  0  0  0  0  0  0  0  0  0
    6.7261   -1.5328    6.9175 C   0  0  0  0  0  0  0  0  0  0  0  0
    7.3998   -1.1658    8.0656 C   0  0  0  0  0  0  0  0  0  0  0  0
    6.6988   -0.8650    9.2218 C   0  0  0  0  0  0  0  0  0  0  0  0
    5.3113   -0.9241    9.2419 C   0  0  0  0  0  0  0  0  0  0  0  0
    4.5364   -0.5463   10.4706 C   0  0  0  0  0  0  0  0  0  0  0  0
    4.0855    0.9131   10.3809 C   0  0  0  0  0  0  0  0  0  0  0  0
    4.6400   -1.2877    8.0846 C   0  0  0  0  0  0  0  0  0  0  0  0
    3.4972   -1.2025    5.2413 C   0  0  0  0  0  0  0  0  0  0  0  0
    2.5825    0.1128    5.9396 S   0  0  0  0  0  0  0  0  0  0  0  0
    1.6206    0.1750    4.5028 C   0  0  0  0  0  0  0  0  0  0  0  0
    0.5649    0.9222    3.9606 C   0  0  0  0  0  0  0  0  0  0  0  0
   -0.1122    2.0544    4.4624 C   0  0  0  0  0  0  0  0  0  0  0  0
   -1.0832    2.7030    3.6317 C   0  0  0  0  0  0  0  0  0  0  0  0
   -1.6039    3.7770    4.2046 N   0  0  0  0  0  0  0  0  0  0  0  0
   -0.9319    3.9532    5.6671 S   0  0  0  0  0  0  0  0  0  0  0  0
    0.0506    2.6668    5.6249 N   0  0  0  0  0  0  0  0  0  0  0  0
   -1.3952    2.1341    2.3782 C   0  0  0  0  0  0  0  0  0  0  0  0
   -2.3464    2.5057    1.4167 C   0  0  0  0  0  0  0  0  0  0  0  0
   -3.5148    3.7525    1.1402 S   0  0  0  0  0  0  0  0  0  0  0  0
   -3.9654    2.9596   -0.3513 C   0  0  0  0  0  0  0  0  0  0  0  0
   -4.8883    3.2896   -1.3585 C   0  0  0  0  0  0  0  0  0  0  0  0
   -5.6959    4.5130   -1.3347 C   0  0  0  0  0  0  0  0  0  0  0  0
   -6.4800    4.8118   -0.2259 C   0  0  0  0  0  0  0  0  0  0  0  0
   -7.2502    5.9607   -0.2185 C   0  0  0  0  0  0  0  0  0  0  0  0
   -7.2360    6.8183   -1.3036 C   0  0  0  0  0  0  0  0  0  0  0  0
   -6.4380    6.5471   -2.4099 C   0  0  0  0  0  0  0  0  0  0  0  0
   -6.3751    7.5073   -3.5633 C   0  0  0  0  0  0  0  0  0  0  0  0
   -5.3124    8.5770   -3.3052 C   0  0  0  0  0  0  0  0  0  0  0  0
   -5.6677    5.3951   -2.4113 C   0  0  0  0  0  0  0  0  0  0  0  0
   -4.8803    2.3473   -2.3765 C   0  0  0  0  0  0  0  0  0  0  0  0
   -3.7078    1.0695   -2.0999 S   0  0  0  0  0  0  0  0  0  0  0  0
   -3.2380    1.7920   -0.6030 C   0  0  0  0  0  0  0  0  0  0  0  0
   -2.3081    1.5359    0.4121 C   0  0  0  0  0  0  0  0  0  0  0  0
   -1.3563    0.5958    0.7009 N   0  0  0  0  0  0  0  0  0  0  0  0
   -0.7671    0.9450    1.9064 C   0  0  0  0  0  0  0  0  0  0  0  0
    0.2940    0.3858    2.6684 C   0  0  0  0  0  0  0  0  0  0  0  0
    1.1867   -0.6493    2.4360 N   0  0  0  0  0  0  0  0  0  0  0  0
    1.9872   -0.7679    3.5399 C   0  0  0  0  0  0  0  0  0  0  0  0
    3.0634   -1.5584    3.9615 C   0  0  0  0  0  0  0  0  0  0  0  0
    4.0210   -2.8383    3.3081 S   0  0  0  0  0  0  0  0  0  0  0  0
    1.5974   -1.2732    1.1981 C   0  0  0  0  0  0  0  0  0  0  0  0
    2.1357   -0.2459    0.2052 C   0  0  0  0  0  0  0  0  0  0  0  0
   -1.3780   -0.6684   -0.0009 C   0  0  0  0  0  0  0  0  0  0  0  0
   -1.8976   -1.7940    0.8901 C   0  0  0  0  0  0  0  0  0  0  0  0
   -5.6909    2.2766   -3.5405 C   0  0  0  0  0  0  0  0  0  0  0  0
   -6.8822    2.9433   -3.7683 C   0  0  0  0  0  0  0  0  0  0  0  0
   -7.4149    2.6763   -5.0222 C   0  0  0  0  0  0  0  0  0  0  0  0
   -8.8777    3.3673   -5.6743 S   0  0  0  0  0  0  0  0  0  0  0  0
   -9.2788    4.7073   -4.4948 C   0  0  0  0  0  0  0  0  0  0  0  0
  -10.0941    4.2266   -3.3095 C   0  0  0  0  0  0  0  0  0  0  0  0
   -6.6445    1.7661   -5.7809 C   0  0  0  0  0  0  0  0  0  0  0  0
   -5.2432    1.2515   -4.8666 S   0  0  0  0  0  0  0  0  0  0  0  0
   -6.9728    1.4046   -7.0846 C   0  0  0  0  0  0  0  0  0  0  0  0
   -6.3454    0.5363   -7.9515 C   0  0  0  0  0  0  0  0  0  0  0  0
   -5.1814   -0.2866   -7.6291 C   0  0  0  0  0  0  0  0  0  0  0  0
   -4.5575   -0.3199   -6.5795 O   0  0  0  0  0  0  0  0  0  0  0  0
   -4.8994   -1.0912   -8.8298 C   0  0  0  0  0  0  0  0  0  0  0  0
   -3.9191   -2.0186   -9.0274 C   0  0  0  0  0  0  0  0  0  0  0  0
   -3.8364   -2.6761  -10.2753 C   0  0  0  0  0  0  0  0  0  0  0  0
   -2.8439   -3.6421  -10.5364 C   0  0  0  0  0  0  0  0  0  0  0  0
   -2.7747   -4.2714  -11.7484 C   0  0  0  0  0  0  0  0  0  0  0  0
   -3.7112   -3.9412  -12.7366 C   0  0  0  0  0  0  0  0  0  0  0  0
   -3.6277   -4.5711  -13.9239 F   0  0  0  0  0  0  0  0  0  0  0  0
   -4.6936   -3.0118  -12.5354 C   0  0  0  0  0  0  0  0  0  0  0  0
   -4.7794   -2.3539  -11.2933 C   0  0  0  0  0  0  0  0  0  0  0  0
   -5.7847   -1.3858  -11.0568 C   0  0  0  0  0  0  0  0  0  0  0  0
   -5.8448   -0.7605   -9.8410 C   0  0  0  0  0  0  0  0  0  0  0  0
   -6.7461    0.2645   -9.3134 C   0  0  0  0  0  0  0  0  0  0  0  0
   -7.7604    0.8594  -10.0225 C   0  0  0  0  0  0  0  0  0  0  0  0
   -8.0801    0.5395  -11.3576 C   0  0  0  0  0  0  0  0  0  0  0  0
   -8.3930    0.3292  -12.4428 N   0  0  0  0  0  0  0  0  0  0  0  0
   -8.6174    1.8757   -9.5529 C   0  0  0  0  0  0  0  0  0  0  0  0
   -9.3576    2.7060   -9.2641 N   0  0  0  0  0  0  0  0  0  0  0  0
    9.2740   -6.9500    4.5189 H   0  0  0  0  0  0  0  0  0  0  0  0
    8.7950   -5.0716   -1.4714 H   0  0  0  0  0  0  0  0  0  0  0  0
   10.2935   -6.1892   -3.1267 H   0  0  0  0  0  0  0  0  0  0  0  0
   12.0175   -8.5804   -0.0273 H   0  0  0  0  0  0  0  0  0  0  0  0
    7.8846   -6.2288    6.2948 H   0  0  0  0  0  0  0  0  0  0  0  0
    6.9098   -6.4290    8.2440 H   0  0  0  0  0  0  0  0  0  0  0  0
    6.1069   -5.5309    9.5411 H   0  0  0  0  0  0  0  0  0  0  0  0
    8.5848   -5.1430    9.6017 H   0  0  0  0  0  0  0  0  0  0  0  0
    8.5178   -4.4832    7.9640 H   0  0  0  0  0  0  0  0  0  0  0  0
    7.6950   -3.6460    9.2798 H   0  0  0  0  0  0  0  0  0  0  0  0
    7.2712   -1.7527    6.0112 H   0  0  0  0  0  0  0  0  0  0  0  0
    8.4789   -1.1099    8.0596 H   0  0  0  0  0  0  0  0  0  0  0  0
    7.2348   -0.5798   10.1161 H   0  0  0  0  0  0  0  0  0  0  0  0
    3.6583   -1.1883   10.5640 H   0  0  0  0  0  0  0  0  0  0  0  0
    5.1562   -0.6807   11.3592 H   0  0  0  0  0  0  0  0  0  0  0  0
    3.5171    1.1902   11.2654 H   0  0  0  0  0  0  0  0  0  0  0  0
    4.9483    1.5709   10.3020 H   0  0  0  0  0  0  0  0  0  0  0  0
    3.4604    1.0625    9.5034 H   0  0  0  0  0  0  0  0  0  0  0  0
    3.5622   -1.3519    8.0921 H   0  0  0  0  0  0  0  0  0  0  0  0
   -6.4967    4.1361    0.6156 H   0  0  0  0  0  0  0  0  0  0  0  0
   -7.8669    6.1859    0.6386 H   0  0  0  0  0  0  0  0  0  0  0  0
   -7.8456    7.7102   -1.2942 H   0  0  0  0  0  0  0  0  0  0  0  0
   -7.3456    7.9899   -3.6977 H   0  0  0  0  0  0  0  0  0  0  0  0
   -6.1281    6.9708   -4.4822 H   0  0  0  0  0  0  0  0  0  0  0  0
   -5.2650    9.2737   -4.1385 H   0  0  0  0  0  0  0  0  0  0  0  0
   -4.3353    8.1159   -3.1807 H   0  0  0  0  0  0  0  0  0  0  0  0
   -5.5462    9.1321   -2.3998 H   0  0  0  0  0  0  0  0  0  0  0  0
   -5.0387    5.1704   -3.2612 H   0  0  0  0  0  0  0  0  0  0  0  0
    0.7823   -1.8581    0.7724 H   0  0  0  0  0  0  0  0  0  0  0  0
    2.3945   -1.9753    1.4548 H   0  0  0  0  0  0  0  0  0  0  0  0
    2.4214   -0.7389   -0.7200 H   0  0  0  0  0  0  0  0  0  0  0  0
    3.0128    0.2453    0.6201 H   0  0  0  0  0  0  0  0  0  0  0  0
    1.3930    0.5172   -0.0154 H   0  0  0  0  0  0  0  0  0  0  0  0
   -0.3949   -0.8991   -0.4111 H   0  0  0  0  0  0  0  0  0  0  0  0
   -2.0553   -0.5401   -0.8487 H   0  0  0  0  0  0  0  0  0  0  0  0
   -2.9197   -1.5828    1.1957 H   0  0  0  0  0  0  0  0  0  0  0  0
   -1.2915   -1.8998    1.7869 H   0  0  0  0  0  0  0  0  0  0  0  0
   -1.8875   -2.7335    0.3440 H   0  0  0  0  0  0  0  0  0  0  0  0
   -7.3365    3.5772   -3.0324 H   0  0  0  0  0  0  0  0  0  0  0  0
   -8.3453    5.1791   -4.1921 H   0  0  0  0  0  0  0  0  0  0  0  0
   -9.8547    5.4124   -5.0941 H   0  0  0  0  0  0  0  0  0  0  0  0
  -11.0376    3.8048   -3.6473 H   0  0  0  0  0  0  0  0  0  0  0  0
  -10.3024    5.0642   -2.6466 H   0  0  0  0  0  0  0  0  0  0  0  0
   -9.5624    3.4646   -2.7447 H   0  0  0  0  0  0  0  0  0  0  0  0
   -7.8644    1.9008   -7.4512 H   0  0  0  0  0  0  0  0  0  0  0  0
   -3.2149   -2.2482   -8.2416 H   0  0  0  0  0  0  0  0  0  0  0  0
   -2.1337   -3.8788   -9.7584 H   0  0  0  0  0  0  0  0  0  0  0  0
   -2.0217   -5.0125  -11.9645 H   0  0  0  0  0  0  0  0  0  0  0  0
   -5.3975   -2.7826  -13.3202 H   0  0  0  0  0  0  0  0  0  0  0  0
   -6.4818   -1.1672  -11.8493 H   0  0  0  0  0  0  0  0  0  0  0  0
  1  2  2  0  0  0  0
  2  3  1  0  0  0  0
  3  4  2  0  0  0  0
  3  5  1  0  0  0  0
  5  6  2  0  0  0  0
  6  7  1  0  0  0  0
  7  8  2  0  0  0  0
  8  9  1  0  0  0  0
  8 10  1  0  0  0  0
 10 11  2  0  0  0  0
 11 12  1  0  0  0  0
 12 13  2  0  0  0  0
 13 14  1  0  0  0  0
 14 15  3  0  0  0  0
 13 16  1  0  0  0  0
 16 17  3  0  0  0  0
  1 18  1  0  0  0  0
 18 19  2  0  0  0  0
 19 20  1  0  0  0  0
 20 21  1  0  0  0  0
 21 22  1  0  0  0  0
 22 23  1  0  0  0  0
 20 24  2  0  0  0  0
 24 25  1  0  0  0  0
 24 26  1  0  0  0  0
 26 27  2  0  0  0  0
 27 28  1  0  0  0  0
 28 29  2  0  0  0  0
 29 30  1  0  0  0  0
 30 31  2  0  0  0  0
 31 32  1  0  0  0  0
 32 33  1  0  0  0  0
 33 34  1  0  0  0  0
 32 35  2  0  0  0  0
 27 36  1  0  0  0  0
 36 37  1  0  0  0  0
 37 38  1  0  0  0  0
 38 39  1  0  0  0  0
 39 40  1  0  0  0  0
 40 41  1  0  0  0  0
 41 42  2  0  0  0  0
 42 43  1  0  0  0  0
 43 44  1  0  0  0  0
 41 45  1  0  0  0  0
 45 46  1  0  0  0  0
 46 47  1  0  0  0  0
 47 48  1  0  0  0  0
 48 49  1  0  0  0  0
 49 50  1  0  0  0  0
 50 51  2  0  0  0  0
 51 52  1  0  0  0  0
 52 53  2  0  0  0  0
 53 54  1  0  0  0  0
 54 55  1  0  0  0  0
 55 56  1  0  0  0  0
 54 57  2  0  0  0  0
 49 58  2  0  0  0  0
 58 59  1  0  0  0  0
 59 60  1  0  0  0  0
 60 61  1  0  0  0  0
 61 62  1  0  0  0  0
 62 63  1  0  0  0  0
 63 64  1  0  0  0  0
 64 65  1  0  0  0  0
 65 66  1  0  0  0  0
 66 67  1  0  0  0  0
 67 68  1  0  0  0  0
 65 69  1  0  0  0  0
 69 70  1  0  0  0  0
 62 71  1  0  0  0  0
 71 72  1  0  0  0  0
 58 73  1  0  0  0  0
 73 74  2  0  0  0  0
 74 75  1  0  0  0  0
 75 76  1  0  0  0  0
 76 77  1  0  0  0  0
 77 78  1  0  0  0  0
 75 79  2  0  0  0  0
 79 80  1  0  0  0  0
 79 81  1  0  0  0  0
 81 82  2  0  0  0  0
 82 83  1  0  0  0  0
 83 84  2  0  0  0  0
 83 85  1  0  0  0  0
 85 86  2  0  0  0  0
 86 87  1  0  0  0  0
 87 88  2  0  0  0  0
 88 89  1  0  0  0  0
 89 90  2  0  0  0  0
 90 91  1  0  0  0  0
 90 92  1  0  0  0  0
 92 93  2  0  0  0  0
 93 94  1  0  0  0  0
 94 95  2  0  0  0  0
 95 96  1  0  0  0  0
 96 97  2  0  0  0  0
 97 98  1  0  0  0  0
 98 99  3  0  0  0  0
 97100  1  0  0  0  0
100101  3  0  0  0  0
 12  2  1  0  0  0  0
 25 18  1  0  0  0  0
 68 26  1  0  0  0  0
 80 73  1  0  0  0  0
 96 82  1  0  0  0  0
 11  5  1  0  0  0  0
 35 28  1  0  0  0  0
 67 36  2  0  0  0  0
 95 85  1  0  0  0  0
 66 38  2  0  0  0  0
 93 87  1  0  0  0  0
 64 39  2  0  0  0  0
 44 40  2  0  0  0  0
 63 45  2  0  0  0  0
 61 46  2  0  0  0  0
 60 48  2  0  0  0  0
 57 50  1  0  0  0  0
  1102  1  0  0  0  0
  6103  1  0  0  0  0
  7104  1  0  0  0  0
 10105  1  0  0  0  0
 19106  1  0  0  0  0
 22107  1  0  0  0  0
 22108  1  0  0  0  0
 23109  1  0  0  0  0
 23110  1  0  0  0  0
 23111  1  0  0  0  0
 29112  1  0  0  0  0
 30113  1  0  0  0  0
 31114  1  0  0  0  0
 33115  1  0  0  0  0
 33116  1  0  0  0  0
 34117  1  0  0  0  0
 34118  1  0  0  0  0
 34119  1  0  0  0  0
 35120  1  0  0  0  0
 51121  1  0  0  0  0
 52122  1  0  0  0  0
 53123  1  0  0  0  0
 55124  1  0  0  0  0
 55125  1  0  0  0  0
 56126  1  0  0  0  0
 56127  1  0  0  0  0
 56128  1  0  0  0  0
 57129  1  0  0  0  0
 69130  1  0  0  0  0
 69131  1  0  0  0  0
 70132  1  0  0  0  0
 70133  1  0  0  0  0
 70134  1  0  0  0  0
 71135  1  0  0  0  0
 71136  1  0  0  0  0
 72137  1  0  0  0  0
 72138  1  0  0  0  0
 72139  1  0  0  0  0
 74140  1  0  0  0  0
 77141  1  0  0  0  0
 77142  1  0  0  0  0
 78143  1  0  0  0  0
 78144  1  0  0  0  0
 78145  1  0  0  0  0
 81146  1  0  0  0  0
 86147  1  0  0  0  0
 88148  1  0  0  0  0
 89149  1  0  0  0  0
 92150  1  0  0  0  0
 94151  1  0  0  0  0
M  END
