159

C          1.42910        9.79880       -2.86310
C          1.37380        9.84520       -1.49030
C          1.25700        8.68360       -0.60550
O          1.18360        7.50770       -0.91980
C          1.24300        9.21450        0.76970
C          1.15180        8.52550        1.96370
C          1.16080        9.24840        3.14610
C          1.25920       10.63240        3.10040
Br         1.27060       11.60240        4.73440
C          1.35060       11.34000        1.90680
C          1.34250       10.61580        0.72670
C          1.42440       11.04050       -0.67390
C          1.53180       12.34040       -1.09500
C          1.61380       12.76950       -2.43650
N          1.68320       13.20530       -3.49700
C          1.57780       13.45230       -0.22700
N          1.61980       14.39750        0.42270
C          1.39780        8.69710       -3.72690
C          1.51730        8.82000       -5.10920
C          1.48430        7.61980       -5.80790
S          1.70800        7.62930       -7.55760
C          2.99600        6.34110       -7.78180
C          3.28110        6.19350       -9.26260
C          1.29340        6.52220       -4.96350
S          1.24010        7.01380       -3.29280
C          1.15800        5.12940       -5.20930
C          0.61630        4.41430       -6.27090
C         -0.07090        4.98130       -7.42980
C          0.11900        4.43010       -8.69450
C         -0.55520        4.95440       -9.78050
C         -1.42750        6.01590       -9.61530
C         -1.63940        6.56860       -8.35850
C         -2.62260        7.68580       -8.16420
C         -4.01070        7.12560       -7.84760
C         -0.95750        6.04210       -7.27330
C          0.67580        3.02690       -6.03270
S          0.08790        1.64850       -6.93650
C          0.52660        0.61990       -5.61420
C          0.34880       -0.70910       -5.19710
C         -0.38490       -1.78090       -5.75570
C         -0.68390       -2.92470       -4.93610
N         -1.46140       -3.79770       -5.55580
S         -1.78090       -3.24160       -7.04170
N         -0.94680       -1.85670       -6.95110
C         -0.12550       -3.00760       -3.64050
C         -0.25430       -3.94690       -2.60200
S         -1.19480       -5.34610       -2.20330
C         -0.45660       -5.36090       -0.61650
C         -0.71340       -6.11250        0.54160
C         -1.80810       -7.08060        0.62360
C         -1.96490       -8.05400       -0.35700
C         -3.00910       -8.95530       -0.26920
C         -3.90430       -8.88860        0.78360
C         -3.78020       -7.90230        1.75530
C         -4.77760       -7.79040        2.87260
C         -5.93130       -6.87000        2.46990
C         -2.73950       -6.99410        1.65520
C          0.08440       -5.69420        1.60040
S          1.10360       -4.33350        1.17550
C          0.49930       -4.35570       -0.44070
C          0.60080       -3.54040       -1.57200
N          1.25120       -2.38510       -1.92510
C          0.77400       -2.01270       -3.16990
C          0.89550       -0.79920       -3.88680
N          1.36860        0.44330       -3.51500
C          1.13250        1.30300       -4.55380
C          1.21330        2.67890       -4.79040
S          1.70360        4.07580       -3.90480
C          1.69110        0.96050       -2.20360
C          3.15450        1.38670       -2.09760
C          2.54540       -2.07530       -1.35530
C          3.51430       -3.24770       -1.50510
C          0.10270       -6.19010        2.94200
C          0.47980       -5.37230        4.00650
O          1.02000       -4.14270        3.72160
C          0.21180       -3.02060        4.09240
C          1.05820       -1.76850        3.95250
C          0.28130       -5.76450        5.34810
O          0.73230       -5.00880        6.38330
C          2.12510       -4.70280        6.39740
C          2.95580       -5.94530        6.69530
C         -0.42060       -6.94360        5.63820
C         -0.64190       -7.86850        4.57890
C         -0.29950       -7.52930        3.24600
N         -0.33650       -8.45680        2.27980
C         -0.79570       -9.64330        2.58650
C         -1.28890       -9.92760        3.87030
N         -1.19080       -9.06640        4.85020
C         -0.83220       -7.27020        6.96330
C         -1.28120       -6.35410        7.86850
C         -1.80980       -5.01300        7.51280
O         -1.82970       -4.46840        6.42940
C         -2.44440       -4.50490        8.74750
C         -3.10700       -3.30800        8.94480
C         -3.63740       -3.04220       10.19710
C         -3.50170       -3.98060       11.21190
Br        -4.24880       -3.59740       12.91660
C         -2.84230       -5.19040       11.03040
C         -2.30580       -5.44870        9.77990
C         -1.54950       -6.59110        9.27100
C         -1.07480       -7.63850       10.01430
C         -0.21420       -8.63890        9.51320
N          0.52190       -9.45780        9.18860
C         -1.34020       -7.81780       11.38770
N         -1.53360       -8.01230       12.50220
H          1.51190       10.74420       -3.38520
H          1.07620        7.44930        1.96550
H          1.09230        8.74700        4.09900
H          1.42480       12.41480        1.92370
H          1.64810        9.76950       -5.59790
H          2.62630        5.40900       -7.35970
H          3.87840        6.67150       -7.23370
H          4.05060        5.44040       -9.41800
H          2.37840        5.88950       -9.78820
H          3.62380        7.13690       -9.68070
H          0.80810        3.60900       -8.82550
H         -0.39750        4.53300      -10.76240
H         -1.94910        6.42140      -10.47000
H         -2.67570        8.29210       -9.07010
H         -2.29420        8.32650       -7.34350
H         -4.72420        7.93400       -7.70680
H         -3.97990        6.52730       -6.93960
H         -4.35820        6.49290       -8.66130
H         -1.12250        6.45440       -6.28790
H         -1.25370       -8.11790       -1.16610
H         -3.12280       -9.71900       -1.02450
H         -4.71020       -9.60500        0.85340
H         -5.17240       -8.77920        3.11520
H         -4.28940       -7.39020        3.76440
H         -5.55730       -5.87520        2.23850
H         -6.43510       -7.25940        1.58810
H         -6.65460       -6.79030        3.27800
H         -2.63970       -6.21470        2.39900
H          1.06230        1.84120       -2.03000
H          1.43190        0.21450       -1.45300
H          3.34940        2.22130       -2.76540
H          3.37010        1.70340       -1.08130
H          3.83120        0.57770       -2.36370
H          2.42000       -1.83620       -0.29400
H          2.95960       -1.21900       -1.87940
H          3.60930       -3.52620       -2.55250
H          4.49240       -2.95940       -1.12970
H          3.17110       -4.11150       -0.94340
H         -0.15750       -3.14010        5.11520
H         -0.65400       -2.97580        3.41800
H          1.45000       -1.70240        2.94090
H          0.45080       -0.89280        4.16100
H          1.89340       -1.79410        4.64750
H          2.44340       -4.25480        5.45170
H          2.22880       -3.96750        7.19910
H          2.61990       -6.41330        7.61790
H          4.00170       -5.67030        6.79810
H          2.85990       -6.66800        5.88700
H         -0.77930      -10.38580        1.80170
H         -1.74450      -10.87880        4.10800
H         -0.83280       -8.32430        7.20820
H         -3.20120       -2.59980        8.13630
H         -4.15550       -2.11560       10.39020
H         -2.76630       -5.89300       11.84450
