145

C          6.87360       -8.04570       -3.55050
C          8.01480       -7.89010       -4.28920
C          8.83050       -9.08300       -4.63030
O          8.51230      -10.24360       -4.50580
C         10.12410       -8.54410       -5.10500
C         11.27780       -9.22070       -5.45090
C         12.38550       -8.48480       -5.84390
C         12.31300       -7.09890       -5.87850
Br        13.85100       -6.11250       -6.40050
C         11.15770       -6.40160       -5.54400
C         10.05390       -7.14010       -5.15660
C          8.69940       -6.72410       -4.78680
C          8.13540       -5.51490       -5.10970
C          6.75570       -5.24930       -5.02360
N          5.63750       -4.98680       -5.01600
C          8.84920       -4.41980       -5.63430
N          9.38090       -3.47880       -6.02200
C          6.17600       -7.08610       -2.79580
C          6.60640       -5.87610       -2.27950
C          5.63760       -5.20920       -1.53910
S          5.93950       -3.67800       -0.72020
C          6.43920       -2.62390       -2.13250
C          5.28020       -2.33760       -3.06390
C          4.42430       -5.89540       -1.45660
S          4.53420       -7.41480       -2.28710
C          3.20000       -5.43640       -0.91710
C          2.02230       -6.15790       -0.75220
C          1.89630       -7.61400       -0.84720
C          2.70770       -8.44340       -0.07650
C          2.54520       -9.81340       -0.14180
C          1.58200      -10.36310       -0.97050
C          0.75700       -9.54890       -1.73570
C         -0.25960      -10.14000       -2.66840
C          0.35190      -10.34160       -4.05640
C          0.91950       -8.17350       -1.66170
C          0.94850       -5.31920       -0.42420
S         -0.74630       -5.62810       -0.12460
C         -0.98190       -3.93330        0.13910
C         -2.02580       -3.03260        0.41330
C         -3.43120       -3.17360        0.48200
C         -4.25100       -1.99510        0.60210
N         -5.54360       -2.27670        0.56920
S         -5.71990       -3.87810        0.41270
N         -4.15230       -4.27790        0.37500
C         -3.63070       -0.74000        0.79980
C         -4.12590        0.54870        1.06720
S         -5.64340        1.37570        1.15950
C         -4.78900        2.84970        1.54910
C         -5.22790        4.15660        1.82180
C         -6.64940        4.51000        1.88020
C         -7.18680        5.12640        3.00810
C         -8.53460        5.42740        3.04910
C         -9.35450        5.11300        1.97760
C         -8.83720        4.48440        0.85260
C         -9.72620        4.07710       -0.28590
C        -10.15330        2.61690       -0.12230
C         -7.48290        4.18360        0.81750
C         -4.15680        5.00500        2.06440
S         -2.61030        4.17250        1.99660
C         -3.40180        2.68710        1.61210
C         -3.02310        1.36960        1.33300
N         -1.86000        0.64820        1.22420
C         -2.21680       -0.63730        0.86070
C         -1.42590       -1.74870        0.50190
N         -0.07520       -1.84860        0.22800
C          0.19230       -3.17830        0.01570
C          1.29640       -3.96920       -0.31010
S          2.98150       -3.71940       -0.58850
C          0.76360       -0.83030       -0.37250
C          0.84130       -0.99880       -1.88980
C         -0.68240        1.02990        1.97930
C         -0.99560        1.15660        3.46980
C         -4.15340        6.41050        2.26920
C         -5.19530        7.28810        2.02440
C         -4.86480        8.60700        2.30520
S         -5.93020        9.98020        2.15880
C         -7.50520        9.24710        1.58890
C         -7.50730        8.95280        0.10100
C         -3.53640        8.77090        2.75910
S         -2.72740        7.22010        2.83500
C         -2.99700       10.01490        3.07580
C         -1.73610       10.35580        3.51340
C         -0.64170        9.41930        3.76930
O         -0.64870        8.20660        3.63430
C          0.49630       10.23580        4.22980
C          1.76320        9.83110        4.60230
C          2.67570       10.79470        5.00210
C          2.30130       12.13260        5.01950
Cl         3.44910       13.31770        5.51770
C          1.02740       12.55280        4.64700
C          0.11770       11.58920        4.24830
C         -1.27480       11.69470        3.80130
C         -1.97480       12.86870        3.68310
C         -1.44450       14.14000        3.98710
N         -1.08160       15.20550        4.21340
C         -3.30930       13.00130        3.24520
N         -4.38490       13.21210        2.90050
H          6.50130       -9.06350       -3.49160
H         11.30790      -10.29840       -5.41390
H         13.30340       -8.97970       -6.12070
H         11.14420       -5.32400       -5.58150
H          7.61230       -5.51140       -2.39020
H          7.26040       -3.11670       -2.65080
H          6.80880       -1.71360       -1.66150
H          5.60200       -1.65090       -3.84410
H          4.45490       -1.88820       -2.51640
H          4.93380       -3.25380       -3.53830
H          3.44950       -8.00900        0.57790
H          3.17000      -10.45660        0.45980
H          1.46380      -11.43590       -1.01800
H         -0.60370      -11.10120       -2.28230
H         -1.12070       -9.47350       -2.74640
H          0.69970       -9.39260       -4.45820
H          1.20060      -11.01980       -4.00150
H         -0.38390      -10.76000       -4.73900
H          0.28710       -7.52640       -2.25220
H         -6.54530        5.36290        3.84410
H         -8.95070        5.90580        3.92380
H        -10.40710        5.35320        2.01840
H        -10.61290        4.71340       -0.31340
H         -9.19250        4.19110       -1.23180
H        -10.78910        2.31250       -0.95010
H         -9.28100        1.96800       -0.09500
H        -10.70480        2.48650        0.80600
H         -7.06530        3.70100       -0.05420
H          0.34440        0.15070       -0.15930
H          1.76570       -0.90490        0.06190
H         -0.15630       -0.96530       -2.32240
H          1.43250       -0.19190       -2.31370
H          1.30570       -1.94360       -2.15690
H          0.08120        0.26410        1.85500
H         -0.31270        1.98660        1.59640
H         -1.71560        1.94860        3.65330
H         -1.39940        0.22050        3.84980
H         -0.08350        1.38980        4.01170
H         -6.14160        6.96140        1.64100
H         -8.24290       10.01260        1.82950
H         -7.70780        8.36180        2.19010
H         -7.34100        9.86760       -0.46260
H         -8.46920        8.53370       -0.18780
H         -6.72790        8.24190       -0.16300
H         -3.70260       10.82770        2.94620
H          2.02670        8.78500        4.57880
H          3.67460       10.51720        5.29960
H          0.78130       13.60110        4.67620
