141

C          5.66730        3.74380       -8.27740
C          5.53780        4.82070       -9.12150
C          4.39030        5.73420       -9.20170
O          3.34200        5.68630       -8.58480
C          4.75200        6.75070      -10.20920
C          4.01980        7.84140      -10.63640
C          4.57180        8.67170      -11.59910
C          5.83350        8.38790      -12.10430
Br         6.57230        9.54280      -13.42040
C          6.58150        7.29320      -11.68620
C          6.02750        6.46510      -10.72440
C          6.53810        5.25540      -10.07430
C          7.74570        4.66650      -10.35080
C          8.25580        3.49980       -9.74420
N          8.74680        2.55910       -9.30290
C          8.66370        5.15270      -11.30580
N          9.45520        5.49150      -12.06500
C          4.79450        3.24520       -7.30650
C          5.09190        2.14560       -6.47280
C          6.36860        1.37550       -6.46710
C          7.44390        2.11130       -5.66200
N          4.14770        1.82730       -5.60050
C          3.09300        2.61170       -5.69060
S          3.20140        3.85010       -6.91220
C          1.97790        2.47600       -4.83860
C          0.80930        3.22390       -4.83070
C          0.52220        4.32060       -5.77030
C          0.70990        5.62840       -5.33760
C          0.47260        6.68790       -6.19170
C          0.03890        6.44340       -7.48240
C         -0.16370        5.14400       -7.90860
C          0.07460        4.06600       -7.06840
C         -0.19490        2.66510       -7.53910
C         -1.61590        2.23790       -7.16570
C         -0.03420        2.82670       -3.78830
S         -1.60350        3.38990       -3.26150
C         -1.55660        2.22720       -1.98070
C         -2.34740        1.80520       -0.89990
C         -3.65120        2.16460       -0.49270
C         -4.22970        1.50660        0.64440
N         -5.46910        1.90540        0.88290
S         -5.87360        3.01440       -0.22540
N         -4.48170        3.03080       -1.05110
C         -3.43050        0.61900        1.39850
C         -3.64150        0.02120        2.64960
S         -4.88210       -0.09360        3.84770
C         -3.76170       -0.93050        4.89560
C         -3.89060       -1.47020        6.19040
C         -5.14910       -1.54170        6.94670
C         -5.86310       -0.41050        7.35420
C         -5.36890        0.99060        7.11650
C         -6.37180        1.84080        6.33650
C         -7.04370       -0.59940        8.06500
C         -7.52060       -1.86260        8.35730
C         -6.80980       -2.97880        7.94890
C         -5.62930       -2.81470        7.25350
C         -2.71920       -2.08790        6.59260
S         -1.46030       -2.00890        5.36590
C         -2.50650       -1.13100        4.31120
C         -2.43920       -0.58830        3.02190
N         -1.50680       -0.42000        2.03340
C         -2.09520        0.30740        1.01610
C         -1.60530        0.79860       -0.22040
N         -0.42560        0.57190       -0.91080
C         -0.39510        1.44760       -1.96730
C          0.47820        1.77940       -3.00750
S          2.02850        1.26450       -3.56890
C          0.34030       -0.65270       -1.00950
C         -0.14560       -1.51290       -2.17600
C         -0.11290       -0.70220        2.29320
C          0.19120       -2.19960        2.23440
C         -2.40480       -2.80460        7.78490
C         -2.71490       -2.54260        9.12930
C         -3.40520       -1.34080        9.68240
C         -2.62490       -0.06350        9.37070
N         -2.22100       -3.42810        9.97730
C         -1.52280       -4.39280        9.41830
S         -1.42970       -4.22860        7.66590
C         -0.93870       -5.38100       10.22230
C         -0.17740       -6.46610        9.86780
C          0.16610       -6.84750        8.49510
O         -0.11490       -6.25730        7.46820
C          0.93080       -8.10690        8.60140
C          1.06420       -8.45700        9.95810
C          1.74770       -9.61010       10.30880
C          2.28870      -10.39550        9.30100
C          2.15550      -10.04530        7.96630
Br         2.91590      -11.15660        6.64110
C          1.46840       -8.88580        7.58970
Cl         1.29880       -8.44900        5.94390
C          0.39500       -7.44230       10.77300
C          0.35490       -7.43510       12.14250
C          0.95030       -8.42160       12.95760
N          1.41000       -9.18730       13.67890
C         -0.26310       -6.45500       12.94960
N         -0.72780       -5.71160       13.69080
H          6.59230        3.18780       -8.35130
H          3.04250        8.03400      -10.22200
H          4.03250        9.53460      -11.95770
H          7.55710        7.11570      -12.10810
H          6.16930        0.41050       -6.00030
H          6.72520        1.20760       -7.48440
H          8.35730        1.52350       -5.64700
H          7.66530        3.07980       -6.10460
H          7.10760        2.26490       -4.63950
H          1.05520        5.80570       -4.32910
H          0.63000        7.69990       -5.85010
H         -0.14310        7.26590       -8.15770
H         -0.50650        4.95680       -8.91600
H         -0.07820        2.61890       -8.62340
H          0.51940        1.97020       -7.09280
H         -1.75220        2.26450       -6.08720
H         -1.81270        1.22730       -7.51630
H         -2.34220        2.91030       -7.61620
H         -5.18740        1.46290        8.08660
H         -4.42060        0.96830        6.57920
H         -6.61870        1.36860        5.38940
H         -5.94750        2.82100        6.13280
H         -7.29060        1.97730        6.90030
H         -7.59160        0.26560        8.40770
H         -8.44100       -1.97730        8.90980
H         -7.17060       -3.97060        8.17490
H         -5.06750       -3.67870        6.92890
H          1.39010       -0.38330       -1.16030
H          0.24160       -1.22320       -0.09410
H         -0.02030       -0.99220       -3.12120
H         -1.19810       -1.75910       -2.05000
H          0.42810       -2.43480       -2.21180
H          0.11550       -0.34180        3.30290
H          0.50070       -0.13230        1.59470
H         -0.17150       -2.64830        1.31210
H         -0.28810       -2.71250        3.06360
H          1.26310       -2.36040        2.30670
H         -3.46950       -1.47900       10.76200
H         -4.41520       -1.26360        9.28030
H         -2.56030        0.09770        8.29760
H         -1.61680       -0.12900        9.77330
H         -3.12050        0.79270        9.82010
H         -1.15420       -5.22560       11.27200
H          1.86780       -9.91080       11.33580
H          2.82430      -11.29740        9.55440
