
  xtb     02032214113D
 energy: -290.740229450455 gnorm: 0.000667747086 xtb: 6.4.1 (unknown)
171188  0     0  0            999 V2000
    1.3194   -4.4188  -10.9988 C   0  0  0  0  0  0  0  0  0  0  0  0
    1.3590   -5.7828  -11.0377 C   0  0  0  0  0  0  0  0  0  0  0  0
    0.9993   -6.6981   -9.9310 C   0  0  0  0  0  0  0  0  0  0  0  0
    0.7639   -6.4056   -8.7753 O   0  0  0  0  0  0  0  0  0  0  0  0
    0.9821   -8.0404  -10.5287 C   0  0  0  0  0  0  0  0  0  0  0  0
    0.7098   -9.3541  -10.1176 C   0  0  0  0  0  0  0  0  0  0  0  0
    0.8827  -10.2287  -11.1553 C   0  0  0  0  0  0  0  0  0  0  0  0
    0.6610  -11.9159  -11.1033 Cl  0  0  0  0  0  0  0  0  0  0  0  0
    1.3858   -9.4661  -12.6460 S   0  0  0  0  0  0  0  0  0  0  0  0
    1.3550   -7.9418  -11.8611 C   0  0  0  0  0  0  0  0  0  0  0  0
    1.6476   -6.5816  -12.2229 C   0  0  0  0  0  0  0  0  0  0  0  0
    2.1525   -6.1847  -13.4333 C   0  0  0  0  0  0  0  0  0  0  0  0
    2.5788   -4.8842  -13.7706 C   0  0  0  0  0  0  0  0  0  0  0  0
    2.9903   -3.8673  -14.1073 N   0  0  0  0  0  0  0  0  0  0  0  0
    2.3522   -7.1272  -14.4646 C   0  0  0  0  0  0  0  0  0  0  0  0
    2.5109   -7.8911  -15.3058 N   0  0  0  0  0  0  0  0  0  0  0  0
    1.0427   -3.5625   -9.9162 C   0  0  0  0  0  0  0  0  0  0  0  0
    0.8226   -3.9913   -8.2222 S   0  0  0  0  0  0  0  0  0  0  0  0
    0.6344   -2.3161   -7.7353 C   0  0  0  0  0  0  0  0  0  0  0  0
    0.7153   -1.4941   -8.8484 C   0  0  0  0  0  0  0  0  0  0  0  0
    0.6353   -0.0608   -9.1477 C   0  0  0  0  0  0  0  0  0  0  0  0
    0.4545    0.8805   -8.4124 O   0  0  0  0  0  0  0  0  0  0  0  0
    0.8039    0.0249  -10.5269 N   0  0  0  0  0  0  0  0  0  0  0  0
    0.8207    1.2794  -11.2486 C   0  0  0  0  0  0  0  0  0  0  0  0
    2.2390    1.8243  -11.3744 C   0  0  0  0  0  0  0  0  0  0  0  0
    0.9855   -1.2066  -11.1455 C   0  0  0  0  0  0  0  0  0  0  0  0
    1.1157   -1.3778  -12.3307 O   0  0  0  0  0  0  0  0  0  0  0  0
    0.9420   -2.1862  -10.0427 C   0  0  0  0  0  0  0  0  0  0  0  0
    0.4227   -1.9660   -6.3896 C   0  0  0  0  0  0  0  0  0  0  0  0
    0.1950   -0.2955   -5.8997 S   0  0  0  0  0  0  0  0  0  0  0  0
    0.0528   -0.8110   -4.2748 C   0  0  0  0  0  0  0  0  0  0  0  0
   -0.0953   -0.2226   -2.9977 C   0  0  0  0  0  0  0  0  0  0  0  0
   -0.0677   -1.1939   -2.0115 C   0  0  0  0  0  0  0  0  0  0  0  0
    0.0419   -2.5723   -2.6480 C   0  0  0  0  0  0  0  0  0  0  0  0
    0.1632   -2.1941   -4.1149 C   0  0  0  0  0  0  0  0  0  0  0  0
    0.3790   -2.8475   -5.3128 C   0  0  0  0  0  0  0  0  0  0  0  0
   -1.2277   -3.3930   -2.4888 C   0  0  0  0  0  0  0  0  0  0  0  0
   -2.3028   -2.9526   -1.7291 C   0  0  0  0  0  0  0  0  0  0  0  0
   -3.4567   -3.7106   -1.6329 C   0  0  0  0  0  0  0  0  0  0  0  0
   -3.5784   -4.9201   -2.3001 C   0  0  0  0  0  0  0  0  0  0  0  0
   -4.8130   -5.7624   -2.1606 C   0  0  0  0  0  0  0  0  0  0  0  0
   -4.6365   -6.7866   -1.0376 C   0  0  0  0  0  0  0  0  0  0  0  0
   -2.5066   -5.3526   -3.0710 C   0  0  0  0  0  0  0  0  0  0  0  0
   -1.3524   -4.6011   -3.1685 C   0  0  0  0  0  0  0  0  0  0  0  0
    1.3205   -3.2854   -2.2340 C   0  0  0  0  0  0  0  0  0  0  0  0
    2.5244   -2.6099   -2.4071 C   0  0  0  0  0  0  0  0  0  0  0  0
    3.7251   -3.2091   -2.0815 C   0  0  0  0  0  0  0  0  0  0  0  0
    3.7608   -4.5017   -1.5734 C   0  0  0  0  0  0  0  0  0  0  0  0
    5.0667   -5.1750   -1.2669 C   0  0  0  0  0  0  0  0  0  0  0  0
    5.5632   -5.9550   -2.4861 C   0  0  0  0  0  0  0  0  0  0  0  0
    2.5581   -5.1707   -1.3995 C   0  0  0  0  0  0  0  0  0  0  0  0
    1.3519   -4.5739   -1.7216 C   0  0  0  0  0  0  0  0  0  0  0  0
   -0.1701   -0.6401   -0.7067 C   0  0  0  0  0  0  0  0  0  0  0  0
   -0.1589   -1.2387    0.5640 C   0  0  0  0  0  0  0  0  0  0  0  0
    0.0518   -2.7044    0.7923 C   0  0  0  0  0  0  0  0  0  0  0  0
    1.5075   -2.9845    1.1728 C   0  0  0  0  0  0  0  0  0  0  0  0
   -0.2936   -0.3991    1.6538 C   0  0  0  0  0  0  0  0  0  0  0  0
   -0.2890   -1.0053    3.3022 S   0  0  0  0  0  0  0  0  0  0  0  0
   -0.4363    0.6095    3.8764 C   0  0  0  0  0  0  0  0  0  0  0  0
   -0.5040    1.2106    5.1559 C   0  0  0  0  0  0  0  0  0  0  0  0
   -0.6243    2.5852    5.0037 C   0  0  0  0  0  0  0  0  0  0  0  0
   -0.6002    2.9567    3.5292 C   0  0  0  0  0  0  0  0  0  0  0  0
    0.6387    3.8048    3.2990 C   0  0  0  0  0  0  0  0  0  0  0  0
    1.7081    3.3558    2.5358 C   0  0  0  0  0  0  0  0  0  0  0  0
    2.8373    4.1384    2.3735 C   0  0  0  0  0  0  0  0  0  0  0  0
    2.9385    5.3856    2.9719 C   0  0  0  0  0  0  0  0  0  0  0  0
    4.1826    6.2128    2.8288 C   0  0  0  0  0  0  0  0  0  0  0  0
    5.1726    5.8846    3.9483 C   0  0  0  0  0  0  0  0  0  0  0  0
    1.8763    5.8249    3.7517 C   0  0  0  0  0  0  0  0  0  0  0  0
    0.7471    5.0472    3.9166 C   0  0  0  0  0  0  0  0  0  0  0  0
   -1.9178    3.6279    3.1697 C   0  0  0  0  0  0  0  0  0  0  0  0
   -2.0124    4.8959    2.6154 C   0  0  0  0  0  0  0  0  0  0  0  0
   -3.2497    5.4450    2.3272 C   0  0  0  0  0  0  0  0  0  0  0  0
   -4.4221    4.7478    2.5779 C   0  0  0  0  0  0  0  0  0  0  0  0
   -5.7566    5.3254    2.2067 C   0  0  0  0  0  0  0  0  0  0  0  0
   -6.1191    4.9401    0.7708 C   0  0  0  0  0  0  0  0  0  0  0  0
   -4.3239    3.4760    3.1288 C   0  0  0  0  0  0  0  0  0  0  0  0
   -3.0922    2.9260    3.4232 C   0  0  0  0  0  0  0  0  0  0  0  0
   -0.5046    1.5765    2.8911 C   0  0  0  0  0  0  0  0  0  0  0  0
   -0.4387    1.0187    1.5846 C   0  0  0  0  0  0  0  0  0  0  0  0
   -0.4640    1.6149    0.3140 C   0  0  0  0  0  0  0  0  0  0  0  0
   -0.3144    0.7780   -0.7765 C   0  0  0  0  0  0  0  0  0  0  0  0
   -0.2775    1.3888   -2.4225 S   0  0  0  0  0  0  0  0  0  0  0  0
   -0.7011    3.0763    0.0857 C   0  0  0  0  0  0  0  0  0  0  0  0
   -2.1675    3.3262   -0.2746 C   0  0  0  0  0  0  0  0  0  0  0  0
   -0.7270    3.2497    6.2217 C   0  0  0  0  0  0  0  0  0  0  0  0
   -0.6651    2.3909    7.3041 C   0  0  0  0  0  0  0  0  0  0  0  0
   -0.4894    0.7207    6.7948 S   0  0  0  0  0  0  0  0  0  0  0  0
   -0.7033    2.7155    8.7028 C   0  0  0  0  0  0  0  0  0  0  0  0
   -0.4314    1.7408    9.6728 C   0  0  0  0  0  0  0  0  0  0  0  0
   -0.4142    2.0447   11.0118 C   0  0  0  0  0  0  0  0  0  0  0  0
   -0.6854    3.3475   11.4517 C   0  0  0  0  0  0  0  0  0  0  0  0
   -1.0262    4.3090   10.4846 C   0  0  0  0  0  0  0  0  0  0  0  0
   -1.0159    4.0104    9.1456 C   0  0  0  0  0  0  0  0  0  0  0  0
   -0.6985    3.7500   12.8290 C   0  0  0  0  0  0  0  0  0  0  0  0
   -0.0081    3.2631   13.8940 C   0  0  0  0  0  0  0  0  0  0  0  0
    1.1427    2.3083   13.8837 C   0  0  0  0  0  0  0  0  0  0  0  0
    1.6358    1.7327   12.9414 O   0  0  0  0  0  0  0  0  0  0  0  0
    1.6121    2.2657   15.2802 C   0  0  0  0  0  0  0  0  0  0  0  0
    2.6254    1.6208   16.0046 C   0  0  0  0  0  0  0  0  0  0  0  0
    2.5806    1.9843   17.3232 C   0  0  0  0  0  0  0  0  0  0  0  0
    3.6185    1.4383   18.5576 Cl  0  0  0  0  0  0  0  0  0  0  0  0
    1.3075    3.1197   17.7008 S   0  0  0  0  0  0  0  0  0  0  0  0
    0.8259    3.1052   16.0524 C   0  0  0  0  0  0  0  0  0  0  0  0
   -0.1869    3.7452   15.2638 C   0  0  0  0  0  0  0  0  0  0  0  0
   -1.1287    4.6082   15.7642 C   0  0  0  0  0  0  0  0  0  0  0  0
   -1.1347    4.9407   17.1359 C   0  0  0  0  0  0  0  0  0  0  0  0
   -1.1427    5.2210   18.2486 N   0  0  0  0  0  0  0  0  0  0  0  0
   -2.1575    5.2379   15.0388 C   0  0  0  0  0  0  0  0  0  0  0  0
   -3.0220    5.7865   14.5177 N   0  0  0  0  0  0  0  0  0  0  0  0
    1.5036   -3.8788  -11.9223 H   0  0  0  0  0  0  0  0  0  0  0  0
    0.4075   -9.6412   -9.1283 H   0  0  0  0  0  0  0  0  0  0  0  0
    0.1888    1.9801  -10.6976 H   0  0  0  0  0  0  0  0  0  0  0  0
    0.3970    1.0932  -12.2384 H   0  0  0  0  0  0  0  0  0  0  0  0
    2.8657    1.1160  -11.9114 H   0  0  0  0  0  0  0  0  0  0  0  0
    2.2251    2.7630  -11.9207 H   0  0  0  0  0  0  0  0  0  0  0  0
    2.6638    1.9986  -10.3884 H   0  0  0  0  0  0  0  0  0  0  0  0
    0.5208   -3.9039   -5.4508 H   0  0  0  0  0  0  0  0  0  0  0  0
   -2.2526   -2.0122   -1.2026 H   0  0  0  0  0  0  0  0  0  0  0  0
   -4.2776   -3.3470   -1.0315 H   0  0  0  0  0  0  0  0  0  0  0  0
   -5.0104   -6.2868   -3.0978 H   0  0  0  0  0  0  0  0  0  0  0  0
   -5.6717   -5.1266   -1.9367 H   0  0  0  0  0  0  0  0  0  0  0  0
   -3.7934   -7.4403   -1.2502 H   0  0  0  0  0  0  0  0  0  0  0  0
   -5.5311   -7.3962   -0.9345 H   0  0  0  0  0  0  0  0  0  0  0  0
   -4.4484   -6.2823   -0.0923 H   0  0  0  0  0  0  0  0  0  0  0  0
   -2.5784   -6.2872   -3.6087 H   0  0  0  0  0  0  0  0  0  0  0  0
   -0.5387   -4.9616   -3.7782 H   0  0  0  0  0  0  0  0  0  0  0  0
    2.5193   -1.6032   -2.8005 H   0  0  0  0  0  0  0  0  0  0  0  0
    4.6481   -2.6649   -2.2227 H   0  0  0  0  0  0  0  0  0  0  0  0
    5.8128   -4.4280   -0.9889 H   0  0  0  0  0  0  0  0  0  0  0  0
    4.9411   -5.8616   -0.4273 H   0  0  0  0  0  0  0  0  0  0  0  0
    5.7047   -5.2854   -3.3315 H   0  0  0  0  0  0  0  0  0  0  0  0
    6.5100   -6.4427   -2.2663 H   0  0  0  0  0  0  0  0  0  0  0  0
    4.8384   -6.7147   -2.7701 H   0  0  0  0  0  0  0  0  0  0  0  0
    2.5604   -6.1756   -1.0016 H   0  0  0  0  0  0  0  0  0  0  0  0
    0.4367   -5.1238   -1.5616 H   0  0  0  0  0  0  0  0  0  0  0  0
   -0.2088   -3.2695   -0.0981 H   0  0  0  0  0  0  0  0  0  0  0  0
   -0.5980   -3.0336    1.6081 H   0  0  0  0  0  0  0  0  0  0  0  0
    1.7667   -2.4759    2.0980 H   0  0  0  0  0  0  0  0  0  0  0  0
    1.6578   -4.0516    1.3118 H   0  0  0  0  0  0  0  0  0  0  0  0
    2.1783   -2.6420    0.3889 H   0  0  0  0  0  0  0  0  0  0  0  0
    1.6693    2.3902    2.0559 H   0  0  0  0  0  0  0  0  0  0  0  0
    3.6527    3.7688    1.7682 H   0  0  0  0  0  0  0  0  0  0  0  0
    3.9293    7.2741    2.8722 H   0  0  0  0  0  0  0  0  0  0  0  0
    4.6514    6.0119    1.8635 H   0  0  0  0  0  0  0  0  0  0  0  0
    5.4461    4.8324    3.9145 H   0  0  0  0  0  0  0  0  0  0  0  0
    4.7280    6.0904    4.9195 H   0  0  0  0  0  0  0  0  0  0  0  0
    6.0752    6.4822    3.8454 H   0  0  0  0  0  0  0  0  0  0  0  0
    1.9331    6.7893    4.2363 H   0  0  0  0  0  0  0  0  0  0  0  0
   -0.0627    5.4162    4.5273 H   0  0  0  0  0  0  0  0  0  0  0  0
   -1.1238    5.4675    2.3933 H   0  0  0  0  0  0  0  0  0  0  0  0
   -3.3002    6.4351    1.8969 H   0  0  0  0  0  0  0  0  0  0  0  0
   -5.7266    6.4135    2.2905 H   0  0  0  0  0  0  0  0  0  0  0  0
   -6.5254    4.9508    2.8854 H   0  0  0  0  0  0  0  0  0  0  0  0
   -5.3697    5.3152    0.0773 H   0  0  0  0  0  0  0  0  0  0  0  0
   -7.0857    5.3564    0.4974 H   0  0  0  0  0  0  0  0  0  0  0  0
   -6.1650    3.8581    0.6692 H   0  0  0  0  0  0  0  0  0  0  0  0
   -5.2224    2.9108    3.3317 H   0  0  0  0  0  0  0  0  0  0  0  0
   -3.0399    1.9360    3.8537 H   0  0  0  0  0  0  0  0  0  0  0  0
   -0.0690    3.4155   -0.7395 H   0  0  0  0  0  0  0  0  0  0  0  0
   -0.4390    3.6479    0.9714 H   0  0  0  0  0  0  0  0  0  0  0  0
   -2.8197    2.9796    0.5233 H   0  0  0  0  0  0  0  0  0  0  0  0
   -2.4306    2.8030   -1.1907 H   0  0  0  0  0  0  0  0  0  0  0  0
   -2.3391    4.3889   -0.4223 H   0  0  0  0  0  0  0  0  0  0  0  0
   -0.8362    4.3121    6.3305 H   0  0  0  0  0  0  0  0  0  0  0  0
   -0.2207    0.7297    9.3556 H   0  0  0  0  0  0  0  0  0  0  0  0
   -0.2103    1.2670   11.7275 H   0  0  0  0  0  0  0  0  0  0  0  0
   -1.2757    5.3102   10.8057 H   0  0  0  0  0  0  0  0  0  0  0  0
   -1.2671    4.7772    8.4299 H   0  0  0  0  0  0  0  0  0  0  0  0
   -1.3455    4.5979   13.0255 H   0  0  0  0  0  0  0  0  0  0  0  0
    3.3391    0.9343   15.5898 H   0  0  0  0  0  0  0  0  0  0  0  0
  1  2  2  0  0  0  0
  2  3  1  0  0  0  0
  3  4  2  0  0  0  0
  3  5  1  0  0  0  0
  5  6  1  0  0  0  0
  6  7  2  0  0  0  0
  7  8  1  0  0  0  0
  7  9  1  0  0  0  0
  9 10  1  0  0  0  0
 10 11  1  0  0  0  0
 11 12  2  0  0  0  0
 12 13  1  0  0  0  0
 13 14  3  0  0  0  0
 12 15  1  0  0  0  0
 15 16  3  0  0  0  0
  1 17  1  0  0  0  0
 17 18  1  0  0  0  0
 18 19  1  0  0  0  0
 19 20  2  0  0  0  0
 20 21  1  0  0  0  0
 21 22  2  0  0  0  0
 21 23  1  0  0  0  0
 23 24  1  0  0  0  0
 24 25  1  0  0  0  0
 23 26  1  0  0  0  0
 26 27  2  0  0  0  0
 26 28  1  0  0  0  0
 19 29  1  0  0  0  0
 29 30  1  0  0  0  0
 30 31  1  0  0  0  0
 31 32  1  0  0  0  0
 32 33  2  0  0  0  0
 33 34  1  0  0  0  0
 34 35  1  0  0  0  0
 35 36  1  0  0  0  0
 34 37  1  0  0  0  0
 37 38  2  0  0  0  0
 38 39  1  0  0  0  0
 39 40  2  0  0  0  0
 40 41  1  0  0  0  0
 41 42  1  0  0  0  0
 40 43  1  0  0  0  0
 43 44  2  0  0  0  0
 34 45  1  0  0  0  0
 45 46  2  0  0  0  0
 46 47  1  0  0  0  0
 47 48  2  0  0  0  0
 48 49  1  0  0  0  0
 49 50  1  0  0  0  0
 48 51  1  0  0  0  0
 51 52  2  0  0  0  0
 33 53  1  0  0  0  0
 53 54  2  0  0  0  0
 54 55  1  0  0  0  0
 55 56  1  0  0  0  0
 54 57  1  0  0  0  0
 57 58  1  0  0  0  0
 58 59  1  0  0  0  0
 59 60  1  0  0  0  0
 60 61  2  0  0  0  0
 61 62  1  0  0  0  0
 62 63  1  0  0  0  0
 63 64  2  0  0  0  0
 64 65  1  0  0  0  0
 65 66  2  0  0  0  0
 66 67  1  0  0  0  0
 67 68  1  0  0  0  0
 66 69  1  0  0  0  0
 69 70  2  0  0  0  0
 62 71  1  0  0  0  0
 71 72  2  0  0  0  0
 72 73  1  0  0  0  0
 73 74  2  0  0  0  0
 74 75  1  0  0  0  0
 75 76  1  0  0  0  0
 74 77  1  0  0  0  0
 77 78  2  0  0  0  0
 62 79  1  0  0  0  0
 79 80  1  0  0  0  0
 80 81  1  0  0  0  0
 81 82  2  0  0  0  0
 82 83  1  0  0  0  0
 81 84  1  0  0  0  0
 84 85  1  0  0  0  0
 61 86  1  0  0  0  0
 86 87  2  0  0  0  0
 87 88  1  0  0  0  0
 87 89  1  0  0  0  0
 89 90  2  0  0  0  0
 90 91  1  0  0  0  0
 91 92  2  0  0  0  0
 92 93  1  0  0  0  0
 93 94  2  0  0  0  0
 92 95  1  0  0  0  0
 95 96  2  0  0  0  0
 96 97  1  0  0  0  0
 97 98  2  0  0  0  0
 97 99  1  0  0  0  0
 99100  1  0  0  0  0
100101  2  0  0  0  0
101102  1  0  0  0  0
101103  1  0  0  0  0
103104  1  0  0  0  0
104105  1  0  0  0  0
105106  2  0  0  0  0
106107  1  0  0  0  0
107108  3  0  0  0  0
106109  1  0  0  0  0
109110  3  0  0  0  0
 11  2  1  0  0  0  0
 28 17  2  0  0  0  0
 36 29  2  0  0  0  0
 44 37  1  0  0  0  0
 52 45  1  0  0  0  0
 82 53  1  0  0  0  0
 94 89  1  0  0  0  0
105 96  1  0  0  0  0
 10  5  2  0  0  0  0
 28 20  1  0  0  0  0
 35 31  2  0  0  0  0
 80 57  2  0  0  0  0
104 99  2  0  0  0  0
 83 32  1  0  0  0  0
 79 59  2  0  0  0  0
 88 60  1  0  0  0  0
 70 63  1  0  0  0  0
 78 71  1  0  0  0  0
  1111  1  0  0  0  0
  6112  1  0  0  0  0
 24113  1  0  0  0  0
 24114  1  0  0  0  0
 25115  1  0  0  0  0
 25116  1  0  0  0  0
 25117  1  0  0  0  0
 36118  1  0  0  0  0
 38119  1  0  0  0  0
 39120  1  0  0  0  0
 41121  1  0  0  0  0
 41122  1  0  0  0  0
 42123  1  0  0  0  0
 42124  1  0  0  0  0
 42125  1  0  0  0  0
 43126  1  0  0  0  0
 44127  1  0  0  0  0
 46128  1  0  0  0  0
 47129  1  0  0  0  0
 49130  1  0  0  0  0
 49131  1  0  0  0  0
 50132  1  0  0  0  0
 50133  1  0  0  0  0
 50134  1  0  0  0  0
 51135  1  0  0  0  0
 52136  1  0  0  0  0
 55137  1  0  0  0  0
 55138  1  0  0  0  0
 56139  1  0  0  0  0
 56140  1  0  0  0  0
 56141  1  0  0  0  0
 64142  1  0  0  0  0
 65143  1  0  0  0  0
 67144  1  0  0  0  0
 67145  1  0  0  0  0
 68146  1  0  0  0  0
 68147  1  0  0  0  0
 68148  1  0  0  0  0
 69149  1  0  0  0  0
 70150  1  0  0  0  0
 72151  1  0  0  0  0
 73152  1  0  0  0  0
 75153  1  0  0  0  0
 75154  1  0  0  0  0
 76155  1  0  0  0  0
 76156  1  0  0  0  0
 76157  1  0  0  0  0
 77158  1  0  0  0  0
 78159  1  0  0  0  0
 84160  1  0  0  0  0
 84161  1  0  0  0  0
 85162  1  0  0  0  0
 85163  1  0  0  0  0
 85164  1  0  0  0  0
 86165  1  0  0  0  0
 90166  1  0  0  0  0
 91167  1  0  0  0  0
 93168  1  0  0  0  0
 94169  1  0  0  0  0
 95170  1  0  0  0  0
100171  1  0  0  0  0
M  END
