150

C        -11.68370       -1.87150        2.30680
C        -11.71380       -2.20130        3.62470
C        -10.58310       -2.78260        4.40710
O         -9.49790       -3.13290        4.00480
C        -11.12880       -2.98300        5.76420
C        -10.67220       -3.46160        7.00100
C        -11.68200       -3.45340        7.92480
Cl       -11.56560       -3.94100        9.55280
S        -13.20590       -2.87200        7.30090
C        -12.46930       -2.63330        5.76790
C        -12.89450       -2.16370        4.47960
C        -14.16340       -1.73390        4.18400
C        -15.17480       -1.75310        5.16730
N        -16.00260       -1.76500        5.96190
C        -14.59980       -1.24420        2.93900
N        -15.02180       -0.83050        1.95400
C        -10.51250       -1.70790        1.50220
C         -9.29730       -1.18590        1.99910
N         -8.96000       -0.69780        3.20000
N         -7.71570       -0.33950        3.06530
C         -6.98460        0.25080        4.14860
C         -7.14490        1.76810        4.13600
N         -7.17670       -0.51160        1.89180
C         -8.15880       -1.04940        1.15500
C         -8.18380       -1.40480       -0.21270
C         -9.40240       -1.89730       -0.67540
C        -10.51940       -2.01440        0.14250
C         -7.00060       -1.27240       -1.00800
C         -6.84600       -1.25750       -2.38620
C         -7.91560       -1.18330       -3.38530
C         -7.88900       -2.01790       -4.49830
C         -8.88150       -1.91970       -5.45600
C         -9.89590       -0.98970       -5.31750
C         -9.93050       -0.13850       -4.21850
C        -11.00190        0.90590       -4.09160
C        -10.57330        2.19770       -4.79020
C         -8.93220       -0.23980       -3.26310
C         -5.48610       -1.22640       -2.74600
S         -4.67780       -1.18240       -4.29700
C         -3.15770       -1.12100       -3.47160
C         -1.78670       -1.08950       -3.76760
C         -1.10740       -1.16790       -5.00260
C          0.32540       -1.20960       -5.00300
N          0.82870       -1.33040       -6.22150
S         -0.39710       -1.38320       -7.27830
N         -1.61670       -1.25460       -6.22150
C          1.01090       -1.06980       -3.77680
C          2.38110       -0.95090       -3.50280
S          3.89270       -0.96870       -4.34450
C          4.70540       -0.60980       -2.83700
C          6.05960       -0.42510       -2.50940
C          7.14030       -0.60370       -3.48130
C          7.04100       -0.03490       -4.74740
C          8.05480       -0.22510       -5.66850
C          9.16570       -0.97940       -5.33840
C          9.27640       -1.56690       -4.08210
C         10.50580       -2.34370       -3.71110
C         11.61590       -1.39830       -3.24640
C          8.25460       -1.37900       -3.16620
C          6.21410       -0.14330       -1.15710
S          4.68910       -0.17680       -0.28460
C          3.83260       -0.49980       -1.74860
C          2.50190       -0.69950       -2.13340
N          1.26460       -0.69290       -1.54650
C          0.32300       -0.92220       -2.53740
C         -1.09290       -1.03630       -2.52420
N         -2.03200       -1.07190       -1.50400
C         -3.27300       -1.12720       -2.07970
C         -4.60800       -1.19180       -1.65960
S         -5.46460       -1.19130       -0.15990
C         -1.88460       -1.43590       -0.11250
C         -1.22310       -2.80340        0.04050
C          1.11160       -0.12800       -0.22500
C          0.43600        1.24020       -0.27620
C          7.38400        0.22140       -0.42620
C          7.40570        0.12060        0.98430
N          6.46170       -0.27540        1.85070
N          7.03550       -0.17700        3.01660
C          6.33360       -0.46590        4.23390
C          6.05110        0.82410        4.99670
N          8.27220        0.23810        3.02750
C          8.56280        0.45300        1.73970
C          9.75550        0.91690        1.12460
C          9.67490        1.07220       -0.26350
C          8.54660        0.74440       -0.99870
C         10.83660        1.25690        1.97550
C         12.16210        1.48890        1.71660
C         12.91620        1.14990        0.49170
O         12.49960        0.72190       -0.56270
C         14.34150        1.37770        0.83040
C         14.44720        1.85180        2.14980
C         15.69350        2.13280        2.68710
C         16.81650        1.93940        1.89640
C         16.70690        1.47370        0.59530
Br        18.27610        1.23500       -0.43150
C         15.45890        1.17890        0.03590
Cl        15.32150        0.59800       -1.56870
C         13.10370        1.95650        2.71440
C         12.80610        2.47960        3.94720
C         13.77340        2.93420        4.86760
N         14.50780        3.31590        5.66360
C         11.51200        2.67670        4.47640
N         10.50940        2.90260        4.99010
H        -12.62440       -1.71370        1.79230
H         -9.67010       -3.78840        7.20510
H         -5.93560       -0.02480        4.02450
H         -7.37870       -0.17020        5.07520
H         -6.76690        2.17710        3.20220
H         -6.58990        2.20550        4.96090
H         -8.19380        2.03520        4.23860
H         -9.48330       -2.21350       -1.70300
H        -11.42760       -2.41160       -0.28730
H         -7.10280       -2.75040       -4.60100
H         -8.86260       -2.57390       -6.31490
H        -10.66990       -0.92080       -6.06810
H        -11.92690        0.54260       -4.54340
H        -11.19460        1.11220       -3.03680
H        -11.34960        2.95380       -4.70050
H        -10.38740        2.01330       -5.84590
H         -9.65880        2.58310       -4.34480
H         -8.93980        0.42130       -2.40770
H          6.18180        0.56760       -5.00020
H          7.97650        0.22090       -6.64890
H          9.95540       -1.12060       -6.06200
H         10.85700       -2.91110       -4.57600
H         10.27320       -3.04880       -2.91090
H         12.51530       -1.96130       -3.00790
H         11.85540       -0.68170       -4.02850
H         11.31220       -0.84740       -2.35970
H          8.31920       -1.84120       -2.19120
H         -2.89430       -1.47620        0.30350
H         -1.34370       -0.66330        0.43450
H         -1.12360       -3.05210        1.09360
H         -1.83400       -3.56490       -0.43850
H         -0.23850       -2.82010       -0.42100
H          2.11970       -0.01690        0.18190
H          0.57650       -0.81740        0.42850
H         -0.54080        1.17990       -0.75030
H          0.31640        1.63390        0.72960
H          1.04780        1.93340       -0.84870
H          5.40950       -0.97390        3.95420
H          6.95740       -1.12840        4.83820
H          5.55000        0.59710        5.93320
H          5.41510        1.48150        4.40850
H          6.98530        1.33760        5.21130
H         10.51830        1.48130       -0.79290
H          8.56590        0.91690       -2.06280
H         10.53440        1.30940        3.01540
H         15.81070        2.49100        3.69590
H         17.79610        2.15280        2.29530
