171

C          1.31940       -4.41880      -10.99880
C          1.35900       -5.78280      -11.03770
C          0.99930       -6.69810       -9.93100
O          0.76390       -6.40560       -8.77530
C          0.98210       -8.04040      -10.52870
C          0.70980       -9.35410      -10.11760
C          0.88270      -10.22870      -11.15530
Cl         0.66100      -11.91590      -11.10330
S          1.38580       -9.46610      -12.64600
C          1.35500       -7.94180      -11.86110
C          1.64760       -6.58160      -12.22290
C          2.15250       -6.18470      -13.43330
C          2.57880       -4.88420      -13.77060
N          2.99030       -3.86730      -14.10730
C          2.35220       -7.12720      -14.46460
N          2.51090       -7.89110      -15.30580
C          1.04270       -3.56250       -9.91620
S          0.82260       -3.99130       -8.22220
C          0.63440       -2.31610       -7.73530
C          0.71530       -1.49410       -8.84840
C          0.63530       -0.06080       -9.14770
O          0.45450        0.88050       -8.41240
N          0.80390        0.02490      -10.52690
C          0.82070        1.27940      -11.24860
C          2.23900        1.82430      -11.37440
C          0.98550       -1.20660      -11.14550
O          1.11570       -1.37780      -12.33070
C          0.94200       -2.18620      -10.04270
C          0.42270       -1.96600       -6.38960
S          0.19500       -0.29550       -5.89970
C          0.05280       -0.81100       -4.27480
C         -0.09530       -0.22260       -2.99770
C         -0.06770       -1.19390       -2.01150
C          0.04190       -2.57230       -2.64800
C          0.16320       -2.19410       -4.11490
C          0.37900       -2.84750       -5.31280
C         -1.22770       -3.39300       -2.48880
C         -2.30280       -2.95260       -1.72910
C         -3.45670       -3.71060       -1.63290
C         -3.57840       -4.92010       -2.30010
C         -4.81300       -5.76240       -2.16060
C         -4.63650       -6.78660       -1.03760
C         -2.50660       -5.35260       -3.07100
C         -1.35240       -4.60110       -3.16850
C          1.32050       -3.28540       -2.23400
C          2.52440       -2.60990       -2.40710
C          3.72510       -3.20910       -2.08150
C          3.76080       -4.50170       -1.57340
C          5.06670       -5.17500       -1.26690
C          5.56320       -5.95500       -2.48610
C          2.55810       -5.17070       -1.39950
C          1.35190       -4.57390       -1.72160
C         -0.17010       -0.64010       -0.70670
C         -0.15890       -1.23870        0.56400
C          0.05180       -2.70440        0.79230
C          1.50750       -2.98450        1.17280
C         -0.29360       -0.39910        1.65380
S         -0.28900       -1.00530        3.30220
C         -0.43630        0.60950        3.87640
C         -0.50400        1.21060        5.15590
C         -0.62430        2.58520        5.00370
C         -0.60020        2.95670        3.52920
C          0.63870        3.80480        3.29900
C          1.70810        3.35580        2.53580
C          2.83730        4.13840        2.37350
C          2.93850        5.38560        2.97190
C          4.18260        6.21280        2.82880
C          5.17260        5.88460        3.94830
C          1.87630        5.82490        3.75170
C          0.74710        5.04720        3.91660
C         -1.91780        3.62790        3.16970
C         -2.01240        4.89590        2.61540
C         -3.24970        5.44500        2.32720
C         -4.42210        4.74780        2.57790
C         -5.75660        5.32540        2.20670
C         -6.11910        4.94010        0.77080
C         -4.32390        3.47600        3.12880
C         -3.09220        2.92600        3.42320
C         -0.50460        1.57650        2.89110
C         -0.43870        1.01870        1.58460
C         -0.46400        1.61490        0.31400
C         -0.31440        0.77800       -0.77650
S         -0.27750        1.38880       -2.42250
C         -0.70110        3.07630        0.08570
C         -2.16750        3.32620       -0.27460
C         -0.72700        3.24970        6.22170
C         -0.66510        2.39090        7.30410
S         -0.48940        0.72070        6.79480
C         -0.70330        2.71550        8.70280
C         -0.43140        1.74080        9.67280
C         -0.41420        2.04470       11.01180
C         -0.68540        3.34750       11.45170
C         -1.02620        4.30900       10.48460
C         -1.01590        4.01040        9.14560
C         -0.69850        3.75000       12.82900
C         -0.00810        3.26310       13.89400
C          1.14270        2.30830       13.88370
O          1.63580        1.73270       12.94140
C          1.61210        2.26570       15.28020
C          2.62540        1.62080       16.00460
C          2.58060        1.98430       17.32320
Cl         3.61850        1.43830       18.55760
S          1.30750        3.11970       17.70080
C          0.82590        3.10520       16.05240
C         -0.18690        3.74520       15.26380
C         -1.12870        4.60820       15.76420
C         -1.13470        4.94070       17.13590
N         -1.14270        5.22100       18.24860
C         -2.15750        5.23790       15.03880
N         -3.02200        5.78650       14.51770
H          1.50360       -3.87880      -11.92230
H          0.40750       -9.64120       -9.12830
H          0.18880        1.98010      -10.69760
H          0.39700        1.09320      -12.23840
H          2.86570        1.11600      -11.91140
H          2.22510        2.76300      -11.92070
H          2.66380        1.99860      -10.38840
H          0.52080       -3.90390       -5.45080
H         -2.25260       -2.01220       -1.20260
H         -4.27760       -3.34700       -1.03150
H         -5.01040       -6.28680       -3.09780
H         -5.67170       -5.12660       -1.93670
H         -3.79340       -7.44030       -1.25020
H         -5.53110       -7.39620       -0.93450
H         -4.44840       -6.28230       -0.09230
H         -2.57840       -6.28720       -3.60870
H         -0.53870       -4.96160       -3.77820
H          2.51930       -1.60320       -2.80050
H          4.64810       -2.66490       -2.22270
H          5.81280       -4.42800       -0.98890
H          4.94110       -5.86160       -0.42730
H          5.70470       -5.28540       -3.33150
H          6.51000       -6.44270       -2.26630
H          4.83840       -6.71470       -2.77010
H          2.56040       -6.17560       -1.00160
H          0.43670       -5.12380       -1.56160
H         -0.20880       -3.26950       -0.09810
H         -0.59800       -3.03360        1.60810
H          1.76670       -2.47590        2.09800
H          1.65780       -4.05160        1.31180
H          2.17830       -2.64200        0.38890
H          1.66930        2.39020        2.05590
H          3.65270        3.76880        1.76820
H          3.92930        7.27410        2.87220
H          4.65140        6.01190        1.86350
H          5.44610        4.83240        3.91450
H          4.72800        6.09040        4.91950
H          6.07520        6.48220        3.84540
H          1.93310        6.78930        4.23630
H         -0.06270        5.41620        4.52730
H         -1.12380        5.46750        2.39330
H         -3.30020        6.43510        1.89690
H         -5.72660        6.41350        2.29050
H         -6.52540        4.95080        2.88540
H         -5.36970        5.31520        0.07730
H         -7.08570        5.35640        0.49740
H         -6.16500        3.85810        0.66920
H         -5.22240        2.91080        3.33170
H         -3.03990        1.93600        3.85370
H         -0.06900        3.41550       -0.73950
H         -0.43900        3.64790        0.97140
H         -2.81970        2.97960        0.52330
H         -2.43060        2.80300       -1.19070
H         -2.33910        4.38890       -0.42230
H         -0.83620        4.31210        6.33050
H         -0.22070        0.72970        9.35560
H         -0.21030        1.26700       11.72750
H         -1.27570        5.31020       10.80570
H         -1.26710        4.77720        8.42990
H         -1.34550        4.59790       13.02550
H          3.33910        0.93430       15.58980
