
  xtb     02232208153D
 energy: -382.174389075548 gnorm: 0.000647788293 xtb: 6.4.1 (unknown)
221245  0     0  0            999 V2000
    4.4719  -10.4198   -4.9698 C   0  0  0  0  0  0  0  0  0  0  0  0
    4.3210  -10.3972   -6.3320 C   0  0  0  0  0  0  0  0  0  0  0  0
    4.2039  -11.6694   -7.0929 C   0  0  0  0  0  0  0  0  0  0  0  0
    4.3714  -12.7917   -6.6738 O   0  0  0  0  0  0  0  0  0  0  0  0
    3.7766  -11.2539   -8.4445 C   0  0  0  0  0  0  0  0  0  0  0  0
    3.4147  -11.8658   -9.6550 C   0  0  0  0  0  0  0  0  0  0  0  0
    3.1244  -10.9249  -10.6029 C   0  0  0  0  0  0  0  0  0  0  0  0
    2.6268  -11.2234  -12.2062 Cl  0  0  0  0  0  0  0  0  0  0  0  0
    3.3076   -9.2795  -10.0426 S   0  0  0  0  0  0  0  0  0  0  0  0
    3.7517   -9.8710   -8.4976 C   0  0  0  0  0  0  0  0  0  0  0  0
    4.1502   -9.2931   -7.2409 C   0  0  0  0  0  0  0  0  0  0  0  0
    4.5103   -7.9776   -7.0419 C   0  0  0  0  0  0  0  0  0  0  0  0
    5.2312   -7.5391   -5.9223 C   0  0  0  0  0  0  0  0  0  0  0  0
    5.8592   -7.1514   -5.0408 N   0  0  0  0  0  0  0  0  0  0  0  0
    4.2439   -6.9931   -8.0091 C   0  0  0  0  0  0  0  0  0  0  0  0
    3.9886   -6.1750   -8.7738 N   0  0  0  0  0  0  0  0  0  0  0  0
    4.1399   -9.4544   -4.0074 C   0  0  0  0  0  0  0  0  0  0  0  0
    3.2285   -8.3787   -4.0071 C   0  0  0  0  0  0  0  0  0  0  0  0
    2.3368   -8.0405   -4.9973 N   0  0  0  0  0  0  0  0  0  0  0  0
    1.8038   -6.7244   -4.9981 C   0  0  0  0  0  0  0  0  0  0  0  0
    0.4262   -6.5314   -5.0054 C   0  0  0  0  0  0  0  0  0  0  0  0
   -0.0934   -5.2522   -5.0138 C   0  0  0  0  0  0  0  0  0  0  0  0
    0.7397   -4.1400   -5.0122 C   0  0  0  0  0  0  0  0  0  0  0  0
    0.1766   -2.7533   -5.0381 C   0  0  0  0  0  0  0  0  0  0  0  0
    2.1140   -4.3440   -5.0051 C   0  0  0  0  0  0  0  0  0  0  0  0
    2.6470   -5.6178   -4.9977 C   0  0  0  0  0  0  0  0  0  0  0  0
    1.7270   -8.9710   -5.8516 C   0  0  0  0  0  0  0  0  0  0  0  0
    1.5220  -10.2974   -5.4784 C   0  0  0  0  0  0  0  0  0  0  0  0
    0.9459  -11.1883   -6.3615 C   0  0  0  0  0  0  0  0  0  0  0  0
    0.5349  -10.7863   -7.6275 C   0  0  0  0  0  0  0  0  0  0  0  0
   -0.0740  -11.7658   -8.5804 C   0  0  0  0  0  0  0  0  0  0  0  0
    0.6898   -9.4488   -7.9726 C   0  0  0  0  0  0  0  0  0  0  0  0
    1.2861   -8.5535   -7.1086 C   0  0  0  0  0  0  0  0  0  0  0  0
    3.2820   -7.6922   -2.7730 C   0  0  0  0  0  0  0  0  0  0  0  0
    2.4677   -6.3129   -2.1169 S   0  0  0  0  0  0  0  0  0  0  0  0
    3.3543   -6.4601   -0.6090 C   0  0  0  0  0  0  0  0  0  0  0  0
    4.2274   -7.5308   -0.6151 C   0  0  0  0  0  0  0  0  0  0  0  0
    5.1553   -7.8363    0.4005 N   0  0  0  0  0  0  0  0  0  0  0  0
    6.4229   -7.2243    0.1819 C   0  0  0  0  0  0  0  0  0  0  0  0
    6.5770   -5.8582    0.3707 C   0  0  0  0  0  0  0  0  0  0  0  0
    7.7989   -5.2568    0.1282 C   0  0  0  0  0  0  0  0  0  0  0  0
    8.8886   -5.9973   -0.3074 C   0  0  0  0  0  0  0  0  0  0  0  0
   10.2100   -5.3481   -0.5840 C   0  0  0  0  0  0  0  0  0  0  0  0
    8.7209   -7.3637   -0.5055 C   0  0  0  0  0  0  0  0  0  0  0  0
    7.5048   -7.9726   -0.2728 C   0  0  0  0  0  0  0  0  0  0  0  0
    5.0940   -9.0852    1.0169 C   0  0  0  0  0  0  0  0  0  0  0  0
    4.0395   -9.9656    0.7878 C   0  0  0  0  0  0  0  0  0  0  0  0
    3.9800  -11.1780    1.4474 C   0  0  0  0  0  0  0  0  0  0  0  0
    4.9478  -11.5454    2.3690 C   0  0  0  0  0  0  0  0  0  0  0  0
    4.8894  -12.8621    3.0836 C   0  0  0  0  0  0  0  0  0  0  0  0
    5.9824  -10.6505    2.6173 C   0  0  0  0  0  0  0  0  0  0  0  0
    6.0593   -9.4423    1.9592 C   0  0  0  0  0  0  0  0  0  0  0  0
    4.1663   -8.2250   -1.8449 C   0  0  0  0  0  0  0  0  0  0  0  0
    4.9589   -9.6246   -2.4497 S   0  0  0  0  0  0  0  0  0  0  0  0
    3.1539   -5.4386    0.3667 C   0  0  0  0  0  0  0  0  0  0  0  0
    3.3478   -5.4509    1.7335 C   0  0  0  0  0  0  0  0  0  0  0  0
    3.5909   -6.6229    2.5792 C   0  0  0  0  0  0  0  0  0  0  0  0
    4.6397   -6.6246    3.4918 C   0  0  0  0  0  0  0  0  0  0  0  0
    4.7863   -7.6862    4.3634 C   0  0  0  0  0  0  0  0  0  0  0  0
    3.8751   -8.7269    4.3553 C   0  0  0  0  0  0  0  0  0  0  0  0
    2.8161   -8.7342    3.4574 C   0  0  0  0  0  0  0  0  0  0  0  0
    1.7819   -9.8208    3.5070 C   0  0  0  0  0  0  0  0  0  0  0  0
    0.6853   -9.4623    4.5120 C   0  0  0  0  0  0  0  0  0  0  0  0
    2.6919   -7.6825    2.5630 C   0  0  0  0  0  0  0  0  0  0  0  0
    3.1518   -4.1679    2.2855 C   0  0  0  0  0  0  0  0  0  0  0  0
    3.2436   -3.5652    3.9227 S   0  0  0  0  0  0  0  0  0  0  0  0
    2.7550   -2.0050    3.3496 C   0  0  0  0  0  0  0  0  0  0  0  0
    2.5004   -0.7140    3.8477 C   0  0  0  0  0  0  0  0  0  0  0  0
    2.6648   -0.1414    5.1282 C   0  0  0  0  0  0  0  0  0  0  0  0
    2.3781    1.2556    5.3099 C   0  0  0  0  0  0  0  0  0  0  0  0
    2.6281    1.6664    6.5428 N   0  0  0  0  0  0  0  0  0  0  0  0
    3.1722    0.4069    7.4034 S   0  0  0  0  0  0  0  0  0  0  0  0
    3.1093   -0.7124    6.2365 N   0  0  0  0  0  0  0  0  0  0  0  0
    1.8072    1.9820    4.2410 C   0  0  0  0  0  0  0  0  0  0  0  0
    1.2191    3.2562    4.1881 C   0  0  0  0  0  0  0  0  0  0  0  0
    0.9603    4.6178    5.2248 S   0  0  0  0  0  0  0  0  0  0  0  0
   -0.0054    5.3540    3.9700 C   0  0  0  0  0  0  0  0  0  0  0  0
   -0.7404    6.5525    3.9267 C   0  0  0  0  0  0  0  0  0  0  0  0
   -0.7989    7.5070    5.0408 C   0  0  0  0  0  0  0  0  0  0  0  0
    0.3761    8.0528    5.5450 C   0  0  0  0  0  0  0  0  0  0  0  0
    0.3170    8.9914    6.5585 C   0  0  0  0  0  0  0  0  0  0  0  0
   -0.9050    9.3975    7.0646 C   0  0  0  0  0  0  0  0  0  0  0  0
   -2.0873    8.8454    6.5882 C   0  0  0  0  0  0  0  0  0  0  0  0
   -3.4151    9.2676    7.1477 C   0  0  0  0  0  0  0  0  0  0  0  0
   -3.8526    8.3319    8.2753 C   0  0  0  0  0  0  0  0  0  0  0  0
   -2.0196    7.8812    5.5939 C   0  0  0  0  0  0  0  0  0  0  0  0
   -1.3948    6.6974    2.7158 C   0  0  0  0  0  0  0  0  0  0  0  0
   -1.1086    5.3381    1.6344 S   0  0  0  0  0  0  0  0  0  0  0  0
   -0.1012    4.5756    2.8133 C   0  0  0  0  0  0  0  0  0  0  0  0
    0.6128    3.3772    2.9331 C   0  0  0  0  0  0  0  0  0  0  0  0
    0.8378    2.2441    2.1954 N   0  0  0  0  0  0  0  0  0  0  0  0
    1.5814    1.3775    2.9745 C   0  0  0  0  0  0  0  0  0  0  0  0
    2.0696    0.0682    2.7422 C   0  0  0  0  0  0  0  0  0  0  0  0
    2.1260   -0.7060    1.5942 N   0  0  0  0  0  0  0  0  0  0  0  0
    2.5319   -1.9613    1.9715 C   0  0  0  0  0  0  0  0  0  0  0  0
    2.7706   -3.1965    1.3586 C   0  0  0  0  0  0  0  0  0  0  0  0
    2.6807   -3.8515   -0.2364 S   0  0  0  0  0  0  0  0  0  0  0  0
    2.3807   -0.2666    0.2391 C   0  0  0  0  0  0  0  0  0  0  0  0
    3.8766   -0.2844   -0.0760 C   0  0  0  0  0  0  0  0  0  0  0  0
    0.0468    1.9687    1.0163 C   0  0  0  0  0  0  0  0  0  0  0  0
    0.5051    2.7839   -0.1928 C   0  0  0  0  0  0  0  0  0  0  0  0
   -2.2123    7.7623    2.2471 C   0  0  0  0  0  0  0  0  0  0  0  0
   -3.0039    7.7589    1.1283 C   0  0  0  0  0  0  0  0  0  0  0  0
   -3.7557    8.9426    0.9512 C   0  0  0  0  0  0  0  0  0  0  0  0
   -4.7329    9.2333   -0.0349 C   0  0  0  0  0  0  0  0  0  0  0  0
   -4.8547    8.4300   -1.2243 C   0  0  0  0  0  0  0  0  0  0  0  0
   -3.8509    7.7191   -1.8349 C   0  0  0  0  0  0  0  0  0  0  0  0
   -4.2008    7.0275   -3.0064 C   0  0  0  0  0  0  0  0  0  0  0  0
   -5.5050    7.1607   -3.3911 C   0  0  0  0  0  0  0  0  0  0  0  0
   -6.2126    6.3340   -4.7560 S   0  0  0  0  0  0  0  0  0  0  0  0
   -7.4894    7.5466   -5.2528 C   0  0  0  0  0  0  0  0  0  0  0  0
   -6.8695    8.8042   -5.8218 C   0  0  0  0  0  0  0  0  0  0  0  0
   -6.4650    8.2590   -2.1930 Se  0  0  0  0  0  2  0  0  0  0  0  0
   -5.5327   10.3444    0.2221 C   0  0  0  0  0  0  0  0  0  0  0  0
   -5.3525   11.2157    1.3279 C   0  0  0  0  0  0  0  0  0  0  0  0
   -4.3021   10.9866    2.2437 C   0  0  0  0  0  0  0  0  0  0  0  0
   -4.0864   11.7580    3.4454 C   0  0  0  0  0  0  0  0  0  0  0  0
   -2.8835   12.0457    4.0312 C   0  0  0  0  0  0  0  0  0  0  0  0
   -2.9397   12.6333    5.3076 C   0  0  0  0  0  0  0  0  0  0  0  0
   -4.1977   12.8084    5.8113 C   0  0  0  0  0  0  0  0  0  0  0  0
   -4.5156   13.3870    7.4291 S   0  0  0  0  0  0  0  0  0  0  0  0
   -6.2800   13.8463    7.3215 C   0  0  0  0  0  0  0  0  0  0  0  0
   -6.4932   15.1155    6.5224 C   0  0  0  0  0  0  0  0  0  0  0  0
   -5.5094   12.2211    4.5952 Se  0  0  0  0  0  2  0  0  0  0  0  0
   -3.5281    9.8566    2.0076 C   0  0  0  0  0  0  0  0  0  0  0  0
   -2.2982    9.2859    3.0985 S   0  0  0  0  0  0  0  0  0  0  0  0
   -6.3041   12.2519    1.3479 C   0  0  0  0  0  0  0  0  0  0  0  0
   -7.2049   12.2109    0.3116 C   0  0  0  0  0  0  0  0  0  0  0  0
   -6.8941   10.8369   -0.7390 S   0  0  0  0  0  0  0  0  0  0  0  0
   -8.3339   13.0515    0.1734 C   0  0  0  0  0  0  0  0  0  0  0  0
   -9.2167   13.1584   -0.8548 C   0  0  0  0  0  0  0  0  0  0  0  0
  -10.5915   13.6812   -0.5865 C   0  0  0  0  0  0  0  0  0  0  0  0
  -10.9583   14.2908    0.3897 O   0  0  0  0  0  0  0  0  0  0  0  0
  -11.3853   13.2299   -1.7436 C   0  0  0  0  0  0  0  0  0  0  0  0
  -12.7255   13.2666   -2.1590 C   0  0  0  0  0  0  0  0  0  0  0  0
  -12.8672   12.6821   -3.3874 C   0  0  0  0  0  0  0  0  0  0  0  0
  -14.3164   12.5092   -4.2652 Cl  0  0  0  0  0  0  0  0  0  0  0  0
  -11.3680   12.0919   -4.0649 S   0  0  0  0  0  0  0  0  0  0  0  0
  -10.5394   12.6214   -2.6602 C   0  0  0  0  0  0  0  0  0  0  0  0
   -9.1698   12.6770   -2.2246 C   0  0  0  0  0  0  0  0  0  0  0  0
   -8.0780   12.5490   -3.0465 C   0  0  0  0  0  0  0  0  0  0  0  0
   -6.7781   12.9669   -2.6984 C   0  0  0  0  0  0  0  0  0  0  0  0
   -5.7276   13.3748   -2.4801 N   0  0  0  0  0  0  0  0  0  0  0  0
   -8.2258   12.0960   -4.3705 C   0  0  0  0  0  0  0  0  0  0  0  0
   -8.3467   11.7038   -5.4427 N   0  0  0  0  0  0  0  0  0  0  0  0
    4.8564  -11.3547   -4.5724 H   0  0  0  0  0  0  0  0  0  0  0  0
    3.3709  -12.9253   -9.8227 H   0  0  0  0  0  0  0  0  0  0  0  0
   -0.2324   -7.3876   -4.9993 H   0  0  0  0  0  0  0  0  0  0  0  0
   -1.1652   -5.1175   -5.0145 H   0  0  0  0  0  0  0  0  0  0  0  0
    0.7800   -2.0821   -4.4311 H   0  0  0  0  0  0  0  0  0  0  0  0
    0.1766   -2.3722   -6.0596 H   0  0  0  0  0  0  0  0  0  0  0  0
   -0.8469   -2.7412   -4.6717 H   0  0  0  0  0  0  0  0  0  0  0  0
    2.7809   -3.4950   -5.0071 H   0  0  0  0  0  0  0  0  0  0  0  0
    3.7169   -5.7541   -4.9850 H   0  0  0  0  0  0  0  0  0  0  0  0
    1.8099  -10.6320   -4.4936 H   0  0  0  0  0  0  0  0  0  0  0  0
    0.8149  -12.2170   -6.0605 H   0  0  0  0  0  0  0  0  0  0  0  0
   -1.1265  -11.9188   -8.3402 H   0  0  0  0  0  0  0  0  0  0  0  0
    0.4280  -12.7282   -8.5111 H   0  0  0  0  0  0  0  0  0  0  0  0
   -0.0086  -11.4046   -9.6038 H   0  0  0  0  0  0  0  0  0  0  0  0
    0.3594   -9.1038   -8.9412 H   0  0  0  0  0  0  0  0  0  0  0  0
    1.4275   -7.5261   -7.4110 H   0  0  0  0  0  0  0  0  0  0  0  0
    5.7419   -5.2677    0.7110 H   0  0  0  0  0  0  0  0  0  0  0  0
    7.9044   -4.1925    0.2843 H   0  0  0  0  0  0  0  0  0  0  0  0
   11.0234   -5.9387   -0.1668 H   0  0  0  0  0  0  0  0  0  0  0  0
   10.3705   -5.2734   -1.6597 H   0  0  0  0  0  0  0  0  0  0  0  0
   10.2491   -4.3471   -0.1619 H   0  0  0  0  0  0  0  0  0  0  0  0
    9.5527   -7.9560   -0.8586 H   0  0  0  0  0  0  0  0  0  0  0  0
    7.3837   -9.0327   -0.4426 H   0  0  0  0  0  0  0  0  0  0  0  0
    3.2526   -9.7030    0.0968 H   0  0  0  0  0  0  0  0  0  0  0  0
    3.1583  -11.8486    1.2389 H   0  0  0  0  0  0  0  0  0  0  0  0
    5.6739  -13.5261    2.7198 H   0  0  0  0  0  0  0  0  0  0  0  0
    5.0409  -12.7259    4.1533 H   0  0  0  0  0  0  0  0  0  0  0  0
    3.9301  -13.3489    2.9244 H   0  0  0  0  0  0  0  0  0  0  0  0
    6.7412  -10.9045    3.3439 H   0  0  0  0  0  0  0  0  0  0  0  0
    6.8656   -8.7595    2.1793 H   0  0  0  0  0  0  0  0  0  0  0  0
    5.3402   -5.8031    3.5068 H   0  0  0  0  0  0  0  0  0  0  0  0
    5.6080   -7.6947    5.0639 H   0  0  0  0  0  0  0  0  0  0  0  0
    3.9846   -9.5438    5.0534 H   0  0  0  0  0  0  0  0  0  0  0  0
    1.3376   -9.9553    2.5195 H   0  0  0  0  0  0  0  0  0  0  0  0
    2.2512  -10.7605    3.8025 H   0  0  0  0  0  0  0  0  0  0  0  0
    1.1101   -9.3332    5.5049 H   0  0  0  0  0  0  0  0  0  0  0  0
   -0.0655  -10.2482    4.5545 H   0  0  0  0  0  0  0  0  0  0  0  0
    0.1993   -8.5320    4.2263 H   0  0  0  0  0  0  0  0  0  0  0  0
    1.8701   -7.6671    1.8603 H   0  0  0  0  0  0  0  0  0  0  0  0
    1.3269    7.7553    5.1284 H   0  0  0  0  0  0  0  0  0  0  0  0
    1.2301    9.4187    6.9456 H   0  0  0  0  0  0  0  0  0  0  0  0
   -0.9450   10.1518    7.8372 H   0  0  0  0  0  0  0  0  0  0  0  0
   -3.3436   10.2875    7.5313 H   0  0  0  0  0  0  0  0  0  0  0  0
   -4.1666    9.2556    6.3539 H   0  0  0  0  0  0  0  0  0  0  0  0
   -3.9400    7.3113    7.9094 H   0  0  0  0  0  0  0  0  0  0  0  0
   -3.1212    8.3450    9.0801 H   0  0  0  0  0  0  0  0  0  0  0  0
   -4.8150    8.6423    8.6755 H   0  0  0  0  0  0  0  0  0  0  0  0
   -2.9295    7.4252    5.2284 H   0  0  0  0  0  0  0  0  0  0  0  0
    2.0132    0.7450    0.1121 H   0  0  0  0  0  0  0  0  0  0  0  0
    1.8498   -0.9377   -0.4438 H   0  0  0  0  0  0  0  0  0  0  0  0
    4.0420    0.0899   -1.0826 H   0  0  0  0  0  0  0  0  0  0  0  0
    4.2754   -1.2929   -0.0138 H   0  0  0  0  0  0  0  0  0  0  0  0
    4.4155    0.3480    0.6266 H   0  0  0  0  0  0  0  0  0  0  0  0
   -0.9919    2.2387    1.2405 H   0  0  0  0  0  0  0  0  0  0  0  0
    0.0730    0.8971    0.8161 H   0  0  0  0  0  0  0  0  0  0  0  0
    0.3158    3.8403   -0.0250 H   0  0  0  0  0  0  0  0  0  0  0  0
   -0.0478    2.4720   -1.0745 H   0  0  0  0  0  0  0  0  0  0  0  0
    1.5690    2.6618   -0.3833 H   0  0  0  0  0  0  0  0  0  0  0  0
   -3.1002    6.8887    0.5043 H   0  0  0  0  0  0  0  0  0  0  0  0
   -2.8337    7.7478   -1.4840 H   0  0  0  0  0  0  0  0  0  0  0  0
   -3.4933    6.4511   -3.5771 H   0  0  0  0  0  0  0  0  0  0  0  0
   -8.0960    7.7549   -4.3657 H   0  0  0  0  0  0  0  0  0  0  0  0
   -8.0985    7.0273   -5.9912 H   0  0  0  0  0  0  0  0  0  0  0  0
   -6.2253    9.2816   -5.0825 H   0  0  0  0  0  0  0  0  0  0  0  0
   -6.2724    8.5702   -6.7000 H   0  0  0  0  0  0  0  0  0  0  0  0
   -7.6462    9.5134   -6.0987 H   0  0  0  0  0  0  0  0  0  0  0  0
   -1.9470   11.8837    3.5252 H   0  0  0  0  0  0  0  0  0  0  0  0
   -2.0592   12.9185    5.8561 H   0  0  0  0  0  0  0  0  0  0  0  0
   -6.8101   12.9949    6.8827 H   0  0  0  0  0  0  0  0  0  0  0  0
   -6.5973   13.9702    8.3563 H   0  0  0  0  0  0  0  0  0  0  0  0
   -6.1458   14.9874    5.4969 H   0  0  0  0  0  0  0  0  0  0  0  0
   -5.9489   15.9430    6.9713 H   0  0  0  0  0  0  0  0  0  0  0  0
   -7.5523   15.3629    6.4982 H   0  0  0  0  0  0  0  0  0  0  0  0
   -6.3198   13.0374    2.0857 H   0  0  0  0  0  0  0  0  0  0  0  0
   -8.6000   13.6118    1.0650 H   0  0  0  0  0  0  0  0  0  0  0  0
  -13.5335   13.6959   -1.5972 H   0  0  0  0  0  0  0  0  0  0  0  0
  1  2  2  0  0  0  0
  2  3  1  0  0  0  0
  3  4  2  0  0  0  0
  3  5  1  0  0  0  0
  5  6  1  0  0  0  0
  6  7  2  0  0  0  0
  7  8  1  0  0  0  0
  7  9  1  0  0  0  0
  9 10  1  0  0  0  0
 10 11  1  0  0  0  0
 11 12  2  0  0  0  0
 12 13  1  0  0  0  0
 13 14  3  0  0  0  0
 12 15  1  0  0  0  0
 15 16  3  0  0  0  0
  1 17  1  0  0  0  0
 17 18  2  0  0  0  0
 18 19  1  0  0  0  0
 19 20  1  0  0  0  0
 20 21  2  0  0  0  0
 21 22  1  0  0  0  0
 22 23  2  0  0  0  0
 23 24  1  0  0  0  0
 23 25  1  0  0  0  0
 25 26  2  0  0  0  0
 19 27  1  0  0  0  0
 27 28  2  0  0  0  0
 28 29  1  0  0  0  0
 29 30  2  0  0  0  0
 30 31  1  0  0  0  0
 30 32  1  0  0  0  0
 32 33  2  0  0  0  0
 18 34  1  0  0  0  0
 34 35  1  0  0  0  0
 35 36  1  0  0  0  0
 36 37  2  0  0  0  0
 37 38  1  0  0  0  0
 38 39  1  0  0  0  0
 39 40  2  0  0  0  0
 40 41  1  0  0  0  0
 41 42  2  0  0  0  0
 42 43  1  0  0  0  0
 42 44  1  0  0  0  0
 44 45  2  0  0  0  0
 38 46  1  0  0  0  0
 46 47  2  0  0  0  0
 47 48  1  0  0  0  0
 48 49  2  0  0  0  0
 49 50  1  0  0  0  0
 49 51  1  0  0  0  0
 51 52  2  0  0  0  0
 37 53  1  0  0  0  0
 53 54  1  0  0  0  0
 36 55  1  0  0  0  0
 55 56  2  0  0  0  0
 56 57  1  0  0  0  0
 57 58  2  0  0  0  0
 58 59  1  0  0  0  0
 59 60  2  0  0  0  0
 60 61  1  0  0  0  0
 61 62  1  0  0  0  0
 62 63  1  0  0  0  0
 61 64  2  0  0  0  0
 56 65  1  0  0  0  0
 65 66  1  0  0  0  0
 66 67  1  0  0  0  0
 67 68  1  0  0  0  0
 68 69  1  0  0  0  0
 69 70  1  0  0  0  0
 70 71  2  0  0  0  0
 71 72  1  0  0  0  0
 72 73  1  0  0  0  0
 70 74  1  0  0  0  0
 74 75  1  0  0  0  0
 75 76  1  0  0  0  0
 76 77  1  0  0  0  0
 77 78  1  0  0  0  0
 78 79  1  0  0  0  0
 79 80  2  0  0  0  0
 80 81  1  0  0  0  0
 81 82  2  0  0  0  0
 82 83  1  0  0  0  0
 83 84  1  0  0  0  0
 84 85  1  0  0  0  0
 83 86  2  0  0  0  0
 78 87  2  0  0  0  0
 87 88  1  0  0  0  0
 88 89  1  0  0  0  0
 89 90  1  0  0  0  0
 90 91  1  0  0  0  0
 91 92  1  0  0  0  0
 92 93  1  0  0  0  0
 93 94  1  0  0  0  0
 94 95  1  0  0  0  0
 95 96  1  0  0  0  0
 96 97  1  0  0  0  0
 94 98  1  0  0  0  0
 98 99  1  0  0  0  0
 91100  1  0  0  0  0
100101  1  0  0  0  0
 87102  1  0  0  0  0
102103  2  0  0  0  0
103104  1  0  0  0  0
104105  2  0  0  0  0
105106  1  0  0  0  0
106107  2  0  0  0  0
107108  1  0  0  0  0
108109  2  0  0  0  0
109110  1  0  0  0  0
110111  1  0  0  0  0
111112  1  0  0  0  0
109113  1  0  0  0  0
105114  1  0  0  0  0
114115  2  0  0  0  0
115116  1  0  0  0  0
116117  1  0  0  0  0
117118  2  0  0  0  0
118119  1  0  0  0  0
119120  2  0  0  0  0
120121  1  0  0  0  0
121122  1  0  0  0  0
122123  1  0  0  0  0
120124  1  0  0  0  0
116125  2  0  0  0  0
125126  1  0  0  0  0
115127  1  0  0  0  0
127128  2  0  0  0  0
128129  1  0  0  0  0
128130  1  0  0  0  0
130131  2  0  0  0  0
131132  1  0  0  0  0
132133  2  0  0  0  0
132134  1  0  0  0  0
134135  1  0  0  0  0
135136  2  0  0  0  0
136137  1  0  0  0  0
136138  1  0  0  0  0
138139  1  0  0  0  0
139140  1  0  0  0  0
140141  2  0  0  0  0
141142  1  0  0  0  0
142143  3  0  0  0  0
141144  1  0  0  0  0
144145  3  0  0  0  0
 11  2  1  0  0  0  0
 54 17  1  0  0  0  0
 97 55  1  0  0  0  0
126102  1  0  0  0  0
140131  1  0  0  0  0
 10  5  2  0  0  0  0
 26 20  1  0  0  0  0
 33 27  1  0  0  0  0
 53 34  2  0  0  0  0
 64 57  1  0  0  0  0
 96 65  2  0  0  0  0
125104  1  0  0  0  0
139134  2  0  0  0  0
 45 39  1  0  0  0  0
 52 46  1  0  0  0  0
 95 67  2  0  0  0  0
113106  1  0  0  0  0
129114  1  0  0  0  0
 93 68  2  0  0  0  0
124117  1  0  0  0  0
 73 69  2  0  0  0  0
 92 74  2  0  0  0  0
 90 75  2  0  0  0  0
 89 77  2  0  0  0  0
 86 79  1  0  0  0  0
  1146  1  0  0  0  0
  6147  1  0  0  0  0
 21148  1  0  0  0  0
 22149  1  0  0  0  0
 24150  1  0  0  0  0
 24151  1  0  0  0  0
 24152  1  0  0  0  0
 25153  1  0  0  0  0
 26154  1  0  0  0  0
 28155  1  0  0  0  0
 29156  1  0  0  0  0
 31157  1  0  0  0  0
 31158  1  0  0  0  0
 31159  1  0  0  0  0
 32160  1  0  0  0  0
 33161  1  0  0  0  0
 40162  1  0  0  0  0
 41163  1  0  0  0  0
 43164  1  0  0  0  0
 43165  1  0  0  0  0
 43166  1  0  0  0  0
 44167  1  0  0  0  0
 45168  1  0  0  0  0
 47169  1  0  0  0  0
 48170  1  0  0  0  0
 50171  1  0  0  0  0
 50172  1  0  0  0  0
 50173  1  0  0  0  0
 51174  1  0  0  0  0
 52175  1  0  0  0  0
 58176  1  0  0  0  0
 59177  1  0  0  0  0
 60178  1  0  0  0  0
 62179  1  0  0  0  0
 62180  1  0  0  0  0
 63181  1  0  0  0  0
 63182  1  0  0  0  0
 63183  1  0  0  0  0
 64184  1  0  0  0  0
 80185  1  0  0  0  0
 81186  1  0  0  0  0
 82187  1  0  0  0  0
 84188  1  0  0  0  0
 84189  1  0  0  0  0
 85190  1  0  0  0  0
 85191  1  0  0  0  0
 85192  1  0  0  0  0
 86193  1  0  0  0  0
 98194  1  0  0  0  0
 98195  1  0  0  0  0
 99196  1  0  0  0  0
 99197  1  0  0  0  0
 99198  1  0  0  0  0
100199  1  0  0  0  0
100200  1  0  0  0  0
101201  1  0  0  0  0
101202  1  0  0  0  0
101203  1  0  0  0  0
103204  1  0  0  0  0
107205  1  0  0  0  0
108206  1  0  0  0  0
111207  1  0  0  0  0
111208  1  0  0  0  0
112209  1  0  0  0  0
112210  1  0  0  0  0
112211  1  0  0  0  0
118212  1  0  0  0  0
119213  1  0  0  0  0
122214  1  0  0  0  0
122215  1  0  0  0  0
123216  1  0  0  0  0
123217  1  0  0  0  0
123218  1  0  0  0  0
127219  1  0  0  0  0
130220  1  0  0  0  0
135221  1  0  0  0  0
M  END
