291

C         12.73280      -10.44180        1.75760
C         13.40710      -10.95800        2.82920
C         13.64740      -10.36540        4.17410
O         13.29890       -9.28920        4.61150
C         14.43080      -11.37350        4.90540
C         14.99810      -11.50420        6.18140
C         15.64000      -12.70680        6.29880
Cl        16.46580      -13.28140        7.67250
S         15.56190      -13.69460        4.85910
C         14.64790      -12.46590        4.08340
C         14.04260      -12.27490        2.79510
C         14.08960      -13.20200        1.78460
C         13.51520      -13.09690        0.50340
N         13.08150      -13.10140       -0.56030
C         14.76760      -14.42550        1.97490
N         15.31590      -15.42320        2.11850
C         12.03600       -9.22660        1.58520
C         11.80720       -8.16840        2.43080
C         11.02430       -7.14650        1.86870
C         10.59040       -5.95730        2.49950
C         10.86800       -5.68020        3.89230
C         11.20310       -4.47970        4.45960
C         11.36360       -4.57830        5.85370
Cl        11.82780       -3.23110        6.81100
C         11.13030       -5.81750        6.38330
Si        11.27050       -6.44190        8.16590
C         13.12400       -6.76920        8.51620
C         13.66960       -8.01750        7.82820
C         10.25630       -8.06160        8.23390
C          8.75550       -7.85300        8.04830
C         10.57150       -5.13610        9.37380
C         10.42890       -5.66720       10.79630
S         10.72950       -6.91090        5.11160
C          9.84500       -5.08640        1.72020
C          9.48350       -5.35410        0.37390
C          9.88980       -6.55450       -0.24820
C          9.48110       -6.90660       -1.59190
S          7.88230       -6.55560       -2.18000
C          8.17750       -7.30750       -3.70740
Si         6.82290       -7.33510       -5.03320
C          6.73710       -9.08480       -5.79580
C          6.60500      -10.18770       -4.74950
C          7.19330       -5.98550       -6.33910
C          8.46970       -6.21440       -7.14170
C          5.17390       -6.94070       -4.14340
C          4.95810       -5.46030       -3.84350
C          9.45390       -7.79780       -3.72160
C         10.19330       -7.58810       -2.54110
Cl        10.12750       -8.62330       -5.06870
C         10.67010       -7.41480        0.51830
S         11.28420       -8.95780        0.01120
C          8.69340       -4.31890       -0.16530
C          8.40410       -3.30930        0.71450
S          9.16050       -3.58100        2.27130
C          7.52150       -2.22590        0.45700
S          6.58200       -2.30530       -1.02840
C          5.74310       -0.88870       -0.56790
C          4.70010       -0.08410       -1.08480
C          4.40660        0.91470       -0.17800
C          5.27960        0.79450        1.05460
C          6.16770       -0.37240        0.65230
C          7.19840       -1.12090        1.23660
C          7.90990       -0.75080        2.49280
C          4.47970        0.25610        2.24130
C          4.99960        0.31790        3.52980
C          4.30990       -0.21990        4.59880
C          3.08290       -0.84440        4.41840
C          2.31340       -1.38070        5.59030
C          1.42780       -0.28710        6.19130
C          2.56850       -0.91090        3.13180
C          3.25690       -0.37570        2.05790
C          5.94900        2.12990        1.33850
C          5.36980        2.97610        2.28020
C          5.90480        4.21460        2.57220
C          7.04770        4.65320        1.92060
C          7.63150        6.00670        2.20430
C          6.99640        7.06290        1.29780
C          7.59780        3.82930        0.95230
C          7.06710        2.58500        0.63210
C          7.71940        1.80980       -0.47400
C          3.31100        1.71320       -0.57810
C          2.66200        2.75120        0.09220
C          1.52590        3.27970       -0.47400
S          0.50050        4.49390        0.27370
C         -0.61250        4.35010       -1.04440
C         -1.91730        4.81430       -1.34870
C         -2.34760        4.21570       -2.53030
C         -1.25050        3.35270       -3.11690
C         -0.83260        3.96710       -4.44000
C          0.37810        4.62400       -4.59890
C          0.70740        5.19970       -5.81360
C         -0.16230        5.14110       -6.89300
C          0.21880        5.72760       -8.22150
C          0.95810        4.69090       -9.06990
C         -1.37440        4.48160       -6.72800
C         -1.70790        3.90480       -5.51870
C         -1.64280        1.89290       -3.25170
C         -1.12890        1.10090       -4.26990
C         -1.43890       -0.24470       -4.33540
C         -2.26730       -0.83440       -3.39020
C         -2.55620       -2.30690       -3.43640
C         -1.48150       -3.08320       -2.67240
C         -2.77720       -0.03840       -2.37300
C         -2.46720        1.30650       -2.30060
C         -0.20340        3.47530       -2.03130
C          1.01530        2.83120       -1.72730
C          1.69130        1.82830       -2.42240
C          2.80510        1.27510       -1.83820
S          3.70320       -0.08090       -2.49820
C         -3.66530        4.52660       -2.84320
C         -4.24500        5.35440       -1.89950
S         -3.12750        5.78590       -0.61840
C         -5.60000        5.77200       -1.84120
C         -6.20150        6.56560       -0.90570
C         -7.59700        6.70290       -1.08620
C         -8.50740        7.38520       -0.25340
C         -8.04130        8.21000        0.84040
C         -6.96440        9.05620        0.84820
C         -6.81190        9.70610        2.08650
Cl        -5.54530       10.82410        2.39010
C         -7.73920        9.38110        3.03570
Si        -7.86180       10.00970        4.81680
C         -9.34720        9.12580        5.63190
C        -10.70430        9.57290        5.09470
C         -6.21390        9.55970        5.68740
C         -6.34800        9.32200        7.18830
C         -8.13850       11.90250        4.74500
C         -8.23230       12.54710        6.12460
S         -8.84810        8.23430        2.37850
C         -9.85600        7.20860       -0.53800
C        -10.32500        6.44340       -1.63800
C         -9.41160        5.81980       -2.51910
C         -9.82700        5.02800       -3.65690
S        -11.25010        4.01870       -3.64450
C        -10.95840        3.42670       -5.23920
Si       -12.09210        2.15510       -6.06660
C        -13.60450        1.98690       -4.91270
C        -14.67860        1.04420       -5.44500
C        -12.62330        2.81310       -7.78420
C        -12.93200        1.70200       -8.78320
C        -11.09590        0.52580       -6.17600
C        -10.50390        0.09840       -4.83470
C         -9.81060        3.98910       -5.71920
C         -9.16600        4.88690       -4.84860
Cl        -9.18330        3.61540       -7.27210
C         -8.06500        5.96470       -2.20340
S         -6.74440        5.18110       -3.02950
C        -11.73140        6.39920       -1.67470
C        -12.33800        7.07220       -0.64530
S        -11.17200        7.87620        0.38080
C        -13.72770        7.15870       -0.37340
C        -14.66930        6.23440       -0.70130
C        -16.10890        6.61220       -0.73580
O        -16.60720        7.61610       -0.28450
C        -16.77280        5.52340       -1.48660
C        -18.08470        5.43630       -1.90340
C        -18.46800        4.30780       -2.62810
C        -19.86130        4.12870       -3.11710
O        -20.22610        3.19610       -3.78920
O        -20.66980        5.11990       -2.72670
C        -22.02070        5.02320       -3.15290
C        -17.54020        3.30710       -2.91970
C        -16.22580        3.38970       -2.49040
C        -15.83900        4.50630       -1.76460
C        -14.55940        4.86020       -1.15310
C        -13.56960        3.96810       -0.83810
C        -12.46810        4.26060       -0.00490
N        -11.58930        4.39970        0.71980
C        -13.56890        2.61440       -1.22840
N        -13.49970        1.50990       -1.53440
H         12.70710      -11.06860        0.87330
H         14.93900      -10.76630        6.95900
H         12.20720       -8.13810        3.42570
H         11.37020       -3.57330        3.90750
H         13.28200       -6.86280        9.59140
H         13.70570       -5.90400        8.19530
H         13.51550       -7.97280        6.75340
H         14.73760       -8.11870        8.01760
H         13.16880       -8.90660        8.20400
H         10.42870       -8.56510        9.18590
H         10.61290       -8.73810        7.45570
H          8.35240       -7.21530        8.83110
H          8.54980       -7.38430        7.08900
H          8.22790       -8.80470        8.08020
H          9.59940       -4.78710        9.02400
H         11.22260       -4.26300        9.39360
H         11.39170       -5.99210       11.18260
H          9.74820       -6.51380       10.82890
H         10.04210       -4.89470       11.45870
H          7.62580       -9.27570       -6.39570
H          5.88820       -9.13800       -6.47870
H          5.70780      -10.04660       -4.15170
H          7.46260      -10.18440       -4.08140
H          6.54900      -11.16520       -5.22470
H          6.35030       -5.92230       -7.02890
H          7.26110       -5.01560       -5.84400
H          9.33690       -6.22660       -6.48740
H          8.42870       -7.16330       -7.66970
H          8.60880       -5.42260       -7.87590
H          5.12890       -7.49530       -3.20530
H          4.34170       -7.29730       -4.75180
H          5.76050       -5.07010       -3.22260
H          4.92510       -4.88230       -4.76310
H          4.01940       -5.30890       -3.31380
H         11.21510       -7.89950       -2.42780
H          8.33460       -4.30400       -1.17750
H          8.96610       -1.00390        2.42700
H          7.81870        0.31870        2.66460
H          7.48840       -1.28340        3.34520
H          5.94130        0.81180        3.70950
H          4.73500       -0.15400        5.59030
H          1.68750       -2.21660        5.27180
H          3.00580       -1.74250        6.35320
H          0.72370        0.08010        5.44790
H          2.03580        0.54940        6.52860
H          0.86790       -0.67380        7.03950
H          1.61520       -1.39070        2.96160
H          2.82490       -0.45330        1.07180
H          4.48300        2.65730        2.80790
H          5.43060        4.84060        3.31410
H          8.71000        5.98810        2.03510
H          7.45340        6.27420        3.24780
H          7.41740        8.04430        1.50350
H          5.92170        7.10410        1.46060
H          7.17400        6.82000        0.25250
H          8.47350        4.17010        0.41680
H          8.44050        2.43840       -0.99160
H          8.24720        0.93880       -0.08990
H          6.98210        1.46940       -1.19770
H          3.02980        3.10190        1.04180
H          1.07350        4.68720       -3.77530
H          1.65640        5.70580       -5.92000
H          0.86350        6.59590       -8.07190
H         -0.67740        6.05420       -8.75280
H          1.23610        5.11430      -10.03210
H          1.86130        4.36080       -8.56130
H          0.32580        3.82260       -9.24180
H         -2.06650        4.42250       -7.55580
H         -2.65020        3.38830       -5.41150
H         -0.48830        1.53780       -5.02270
H         -1.02930       -0.84570       -5.13490
H         -2.57700       -2.64800       -4.47350
H         -3.53210       -2.50790       -2.99030
H         -1.68580       -4.15070       -2.70730
H         -1.45570       -2.76780       -1.63160
H         -0.50140       -2.90200       -3.10790
H         -3.42490       -0.47580       -1.62660
H         -2.87010        1.90610       -1.49700
H          1.31900        1.47310       -3.36890
H         -4.21260        4.15970       -3.69250
H         -5.66100        6.99420       -0.08160
H         -6.33380        9.24170       -0.00190
H         -9.32510        9.29790        6.70830
H         -9.25250        8.04840        5.48830
H        -10.86240       10.63250        5.27870
H        -10.77260        9.39700        4.02410
H        -11.50730        9.02110        5.57960
H         -5.78810        8.66590        5.22920
H         -5.49240       10.36010        5.52150
H         -7.00170        8.47680        7.38570
H         -6.76250       10.19570        7.68430
H         -5.37620        9.10980        7.63060
H         -9.05220       12.11740        4.18840
H         -7.32590       12.37450        4.19190
H         -8.41440       13.61700        6.03930
H         -7.30650       12.40540        6.67600
H         -9.04310       12.10950        6.70180
H        -14.04640        2.97320       -4.75100
H        -13.27770        1.63210       -3.93410
H        -15.08500        1.41380       -6.38320
H        -15.49890        0.94840       -4.73590
H        -14.26630        0.05340       -5.61640
H        -13.50790        3.44220       -7.67110
H        -11.84580        3.45050       -8.20380
H        -12.04930        1.09470       -8.96370
H        -13.71990        1.05250       -8.41130
H        -13.25670        2.12060       -9.73420
H        -11.73910       -0.27070       -6.55140
H        -10.28670        0.63590       -6.89950
H         -9.95340       -0.83480       -4.93800
H         -9.81960        0.85650       -4.46000
H        -11.28590       -0.04650       -4.09400
H         -8.27760        5.42720       -5.11790
H        -12.29530        5.91880       -2.45290
H        -14.08840        8.06440        0.10160
H        -18.78980        6.21910       -1.67400
H        -22.47060        4.10030       -2.78120
H        -22.07470        5.02430       -4.24360
H        -22.53130        5.89070       -2.74310
H        -17.87730        2.45590       -3.49230
H        -15.52650        2.60540       -2.72820
