
  xtb     02032216373D
 energy: -461.263859373464 gnorm: 0.000886095031 xtb: 6.4.1 (unknown)
291315  0     0  0            999 V2000
   12.7328  -10.4418    1.7576 C   0  0  0  0  0  0  0  0  0  0  0  0
   13.4071  -10.9580    2.8292 C   0  0  0  0  0  0  0  0  0  0  0  0
   13.6474  -10.3654    4.1741 C   0  0  0  0  0  0  0  0  0  0  0  0
   13.2989   -9.2892    4.6115 O   0  0  0  0  0  0  0  0  0  0  0  0
   14.4308  -11.3735    4.9054 C   0  0  0  0  0  0  0  0  0  0  0  0
   14.9981  -11.5042    6.1814 C   0  0  0  0  0  0  0  0  0  0  0  0
   15.6400  -12.7068    6.2988 C   0  0  0  0  0  0  0  0  0  0  0  0
   16.4658  -13.2814    7.6725 Cl  0  0  0  0  0  0  0  0  0  0  0  0
   15.5619  -13.6946    4.8591 S   0  0  0  0  0  0  0  0  0  0  0  0
   14.6479  -12.4659    4.0834 C   0  0  0  0  0  0  0  0  0  0  0  0
   14.0426  -12.2749    2.7951 C   0  0  0  0  0  0  0  0  0  0  0  0
   14.0896  -13.2020    1.7846 C   0  0  0  0  0  0  0  0  0  0  0  0
   13.5152  -13.0969    0.5034 C   0  0  0  0  0  0  0  0  0  0  0  0
   13.0815  -13.1014   -0.5603 N   0  0  0  0  0  0  0  0  0  0  0  0
   14.7676  -14.4255    1.9749 C   0  0  0  0  0  0  0  0  0  0  0  0
   15.3159  -15.4232    2.1185 N   0  0  0  0  0  0  0  0  0  0  0  0
   12.0360   -9.2266    1.5852 C   0  0  0  0  0  0  0  0  0  0  0  0
   11.8072   -8.1684    2.4308 C   0  0  0  0  0  0  0  0  0  0  0  0
   11.0243   -7.1465    1.8687 C   0  0  0  0  0  0  0  0  0  0  0  0
   10.5904   -5.9573    2.4995 C   0  0  0  0  0  0  0  0  0  0  0  0
   10.8680   -5.6802    3.8923 C   0  0  0  0  0  0  0  0  0  0  0  0
   11.2031   -4.4797    4.4596 C   0  0  0  0  0  0  0  0  0  0  0  0
   11.3636   -4.5783    5.8537 C   0  0  0  0  0  0  0  0  0  0  0  0
   11.8278   -3.2311    6.8110 Cl  0  0  0  0  0  0  0  0  0  0  0  0
   11.1303   -5.8175    6.3833 C   0  0  0  0  0  0  0  0  0  0  0  0
   11.2705   -6.4419    8.1659 Si  0  0  0  0  0  4  0  0  0  0  0  0
   13.1240   -6.7692    8.5162 C   0  0  0  0  0  0  0  0  0  0  0  0
   13.6696   -8.0175    7.8282 C   0  0  0  0  0  0  0  0  0  0  0  0
   10.2563   -8.0616    8.2339 C   0  0  0  0  0  0  0  0  0  0  0  0
    8.7555   -7.8530    8.0483 C   0  0  0  0  0  0  0  0  0  0  0  0
   10.5715   -5.1361    9.3738 C   0  0  0  0  0  0  0  0  0  0  0  0
   10.4289   -5.6672   10.7963 C   0  0  0  0  0  0  0  0  0  0  0  0
   10.7295   -6.9109    5.1116 S   0  0  0  0  0  0  0  0  0  0  0  0
    9.8450   -5.0864    1.7202 C   0  0  0  0  0  0  0  0  0  0  0  0
    9.4835   -5.3541    0.3739 C   0  0  0  0  0  0  0  0  0  0  0  0
    9.8898   -6.5545   -0.2482 C   0  0  0  0  0  0  0  0  0  0  0  0
    9.4811   -6.9066   -1.5919 C   0  0  0  0  0  0  0  0  0  0  0  0
    7.8823   -6.5556   -2.1800 S   0  0  0  0  0  0  0  0  0  0  0  0
    8.1775   -7.3075   -3.7074 C   0  0  0  0  0  0  0  0  0  0  0  0
    6.8229   -7.3351   -5.0332 Si  0  0  0  0  0  4  0  0  0  0  0  0
    6.7371   -9.0848   -5.7958 C   0  0  0  0  0  0  0  0  0  0  0  0
    6.6050  -10.1877   -4.7495 C   0  0  0  0  0  0  0  0  0  0  0  0
    7.1933   -5.9855   -6.3391 C   0  0  0  0  0  0  0  0  0  0  0  0
    8.4697   -6.2144   -7.1417 C   0  0  0  0  0  0  0  0  0  0  0  0
    5.1739   -6.9407   -4.1434 C   0  0  0  0  0  0  0  0  0  0  0  0
    4.9581   -5.4603   -3.8435 C   0  0  0  0  0  0  0  0  0  0  0  0
    9.4539   -7.7978   -3.7216 C   0  0  0  0  0  0  0  0  0  0  0  0
   10.1933   -7.5881   -2.5411 C   0  0  0  0  0  0  0  0  0  0  0  0
   10.1275   -8.6233   -5.0687 Cl  0  0  0  0  0  0  0  0  0  0  0  0
   10.6701   -7.4148    0.5183 C   0  0  0  0  0  0  0  0  0  0  0  0
   11.2842   -8.9578    0.0112 S   0  0  0  0  0  0  0  0  0  0  0  0
    8.6934   -4.3189   -0.1653 C   0  0  0  0  0  0  0  0  0  0  0  0
    8.4041   -3.3093    0.7145 C   0  0  0  0  0  0  0  0  0  0  0  0
    9.1605   -3.5810    2.2713 S   0  0  0  0  0  0  0  0  0  0  0  0
    7.5215   -2.2259    0.4570 C   0  0  0  0  0  0  0  0  0  0  0  0
    6.5820   -2.3053   -1.0284 S   0  0  0  0  0  0  0  0  0  0  0  0
    5.7431   -0.8887   -0.5679 C   0  0  0  0  0  0  0  0  0  0  0  0
    4.7001   -0.0841   -1.0848 C   0  0  0  0  0  0  0  0  0  0  0  0
    4.4066    0.9147   -0.1780 C   0  0  0  0  0  0  0  0  0  0  0  0
    5.2796    0.7945    1.0546 C   0  0  0  0  0  0  0  0  0  0  0  0
    6.1677   -0.3724    0.6523 C   0  0  0  0  0  0  0  0  0  0  0  0
    7.1984   -1.1209    1.2366 C   0  0  0  0  0  0  0  0  0  0  0  0
    7.9099   -0.7508    2.4928 C   0  0  0  0  0  0  0  0  0  0  0  0
    4.4797    0.2561    2.2413 C   0  0  0  0  0  0  0  0  0  0  0  0
    4.9996    0.3179    3.5298 C   0  0  0  0  0  0  0  0  0  0  0  0
    4.3099   -0.2199    4.5988 C   0  0  0  0  0  0  0  0  0  0  0  0
    3.0829   -0.8444    4.4184 C   0  0  0  0  0  0  0  0  0  0  0  0
    2.3134   -1.3807    5.5903 C   0  0  0  0  0  0  0  0  0  0  0  0
    1.4278   -0.2871    6.1913 C   0  0  0  0  0  0  0  0  0  0  0  0
    2.5685   -0.9109    3.1318 C   0  0  0  0  0  0  0  0  0  0  0  0
    3.2569   -0.3757    2.0579 C   0  0  0  0  0  0  0  0  0  0  0  0
    5.9490    2.1299    1.3385 C   0  0  0  0  0  0  0  0  0  0  0  0
    5.3698    2.9761    2.2802 C   0  0  0  0  0  0  0  0  0  0  0  0
    5.9048    4.2146    2.5722 C   0  0  0  0  0  0  0  0  0  0  0  0
    7.0477    4.6532    1.9206 C   0  0  0  0  0  0  0  0  0  0  0  0
    7.6315    6.0067    2.2043 C   0  0  0  0  0  0  0  0  0  0  0  0
    6.9964    7.0629    1.2978 C   0  0  0  0  0  0  0  0  0  0  0  0
    7.5978    3.8293    0.9523 C   0  0  0  0  0  0  0  0  0  0  0  0
    7.0671    2.5850    0.6321 C   0  0  0  0  0  0  0  0  0  0  0  0
    7.7194    1.8098   -0.4740 C   0  0  0  0  0  0  0  0  0  0  0  0
    3.3110    1.7132   -0.5781 C   0  0  0  0  0  0  0  0  0  0  0  0
    2.6620    2.7512    0.0922 C   0  0  0  0  0  0  0  0  0  0  0  0
    1.5259    3.2797   -0.4740 C   0  0  0  0  0  0  0  0  0  0  0  0
    0.5005    4.4939    0.2737 S   0  0  0  0  0  0  0  0  0  0  0  0
   -0.6125    4.3501   -1.0444 C   0  0  0  0  0  0  0  0  0  0  0  0
   -1.9173    4.8143   -1.3487 C   0  0  0  0  0  0  0  0  0  0  0  0
   -2.3476    4.2157   -2.5303 C   0  0  0  0  0  0  0  0  0  0  0  0
   -1.2505    3.3527   -3.1169 C   0  0  0  0  0  0  0  0  0  0  0  0
   -0.8326    3.9671   -4.4400 C   0  0  0  0  0  0  0  0  0  0  0  0
    0.3781    4.6240   -4.5989 C   0  0  0  0  0  0  0  0  0  0  0  0
    0.7074    5.1997   -5.8136 C   0  0  0  0  0  0  0  0  0  0  0  0
   -0.1623    5.1411   -6.8930 C   0  0  0  0  0  0  0  0  0  0  0  0
    0.2188    5.7276   -8.2215 C   0  0  0  0  0  0  0  0  0  0  0  0
    0.9581    4.6909   -9.0699 C   0  0  0  0  0  0  0  0  0  0  0  0
   -1.3744    4.4816   -6.7280 C   0  0  0  0  0  0  0  0  0  0  0  0
   -1.7079    3.9048   -5.5187 C   0  0  0  0  0  0  0  0  0  0  0  0
   -1.6428    1.8929   -3.2517 C   0  0  0  0  0  0  0  0  0  0  0  0
   -1.1289    1.1009   -4.2699 C   0  0  0  0  0  0  0  0  0  0  0  0
   -1.4389   -0.2447   -4.3354 C   0  0  0  0  0  0  0  0  0  0  0  0
   -2.2673   -0.8344   -3.3902 C   0  0  0  0  0  0  0  0  0  0  0  0
   -2.5562   -2.3069   -3.4364 C   0  0  0  0  0  0  0  0  0  0  0  0
   -1.4815   -3.0832   -2.6724 C   0  0  0  0  0  0  0  0  0  0  0  0
   -2.7772   -0.0384   -2.3730 C   0  0  0  0  0  0  0  0  0  0  0  0
   -2.4672    1.3065   -2.3006 C   0  0  0  0  0  0  0  0  0  0  0  0
   -0.2034    3.4753   -2.0313 C   0  0  0  0  0  0  0  0  0  0  0  0
    1.0153    2.8312   -1.7273 C   0  0  0  0  0  0  0  0  0  0  0  0
    1.6913    1.8283   -2.4224 C   0  0  0  0  0  0  0  0  0  0  0  0
    2.8051    1.2751   -1.8382 C   0  0  0  0  0  0  0  0  0  0  0  0
    3.7032   -0.0809   -2.4982 S   0  0  0  0  0  0  0  0  0  0  0  0
   -3.6653    4.5266   -2.8432 C   0  0  0  0  0  0  0  0  0  0  0  0
   -4.2450    5.3544   -1.8995 C   0  0  0  0  0  0  0  0  0  0  0  0
   -3.1275    5.7859   -0.6184 S   0  0  0  0  0  0  0  0  0  0  0  0
   -5.6000    5.7720   -1.8412 C   0  0  0  0  0  0  0  0  0  0  0  0
   -6.2015    6.5656   -0.9057 C   0  0  0  0  0  0  0  0  0  0  0  0
   -7.5970    6.7029   -1.0862 C   0  0  0  0  0  0  0  0  0  0  0  0
   -8.5074    7.3852   -0.2534 C   0  0  0  0  0  0  0  0  0  0  0  0
   -8.0413    8.2100    0.8404 C   0  0  0  0  0  0  0  0  0  0  0  0
   -6.9644    9.0562    0.8482 C   0  0  0  0  0  0  0  0  0  0  0  0
   -6.8119    9.7061    2.0865 C   0  0  0  0  0  0  0  0  0  0  0  0
   -5.5453   10.8241    2.3901 Cl  0  0  0  0  0  0  0  0  0  0  0  0
   -7.7392    9.3811    3.0357 C   0  0  0  0  0  0  0  0  0  0  0  0
   -7.8618   10.0097    4.8168 Si  0  0  0  0  0  4  0  0  0  0  0  0
   -9.3472    9.1258    5.6319 C   0  0  0  0  0  0  0  0  0  0  0  0
  -10.7043    9.5729    5.0947 C   0  0  0  0  0  0  0  0  0  0  0  0
   -6.2139    9.5597    5.6874 C   0  0  0  0  0  0  0  0  0  0  0  0
   -6.3480    9.3220    7.1883 C   0  0  0  0  0  0  0  0  0  0  0  0
   -8.1385   11.9025    4.7450 C   0  0  0  0  0  0  0  0  0  0  0  0
   -8.2323   12.5471    6.1246 C   0  0  0  0  0  0  0  0  0  0  0  0
   -8.8481    8.2343    2.3785 S   0  0  0  0  0  0  0  0  0  0  0  0
   -9.8560    7.2086   -0.5380 C   0  0  0  0  0  0  0  0  0  0  0  0
  -10.3250    6.4434   -1.6380 C   0  0  0  0  0  0  0  0  0  0  0  0
   -9.4116    5.8198   -2.5191 C   0  0  0  0  0  0  0  0  0  0  0  0
   -9.8270    5.0280   -3.6569 C   0  0  0  0  0  0  0  0  0  0  0  0
  -11.2501    4.0187   -3.6445 S   0  0  0  0  0  0  0  0  0  0  0  0
  -10.9584    3.4267   -5.2392 C   0  0  0  0  0  0  0  0  0  0  0  0
  -12.0921    2.1551   -6.0666 Si  0  0  0  0  0  4  0  0  0  0  0  0
  -13.6045    1.9869   -4.9127 C   0  0  0  0  0  0  0  0  0  0  0  0
  -14.6786    1.0442   -5.4450 C   0  0  0  0  0  0  0  0  0  0  0  0
  -12.6233    2.8131   -7.7842 C   0  0  0  0  0  0  0  0  0  0  0  0
  -12.9320    1.7020   -8.7832 C   0  0  0  0  0  0  0  0  0  0  0  0
  -11.0959    0.5258   -6.1760 C   0  0  0  0  0  0  0  0  0  0  0  0
  -10.5039    0.0984   -4.8347 C   0  0  0  0  0  0  0  0  0  0  0  0
   -9.8106    3.9891   -5.7192 C   0  0  0  0  0  0  0  0  0  0  0  0
   -9.1660    4.8869   -4.8486 C   0  0  0  0  0  0  0  0  0  0  0  0
   -9.1833    3.6154   -7.2721 Cl  0  0  0  0  0  0  0  0  0  0  0  0
   -8.0650    5.9647   -2.2034 C   0  0  0  0  0  0  0  0  0  0  0  0
   -6.7444    5.1811   -3.0295 S   0  0  0  0  0  0  0  0  0  0  0  0
  -11.7314    6.3992   -1.6747 C   0  0  0  0  0  0  0  0  0  0  0  0
  -12.3380    7.0722   -0.6453 C   0  0  0  0  0  0  0  0  0  0  0  0
  -11.1720    7.8762    0.3808 S   0  0  0  0  0  0  0  0  0  0  0  0
  -13.7277    7.1587   -0.3734 C   0  0  0  0  0  0  0  0  0  0  0  0
  -14.6693    6.2344   -0.7013 C   0  0  0  0  0  0  0  0  0  0  0  0
  -16.1089    6.6122   -0.7358 C   0  0  0  0  0  0  0  0  0  0  0  0
  -16.6072    7.6161   -0.2845 O   0  0  0  0  0  0  0  0  0  0  0  0
  -16.7728    5.5234   -1.4866 C   0  0  0  0  0  0  0  0  0  0  0  0
  -18.0847    5.4363   -1.9034 C   0  0  0  0  0  0  0  0  0  0  0  0
  -18.4680    4.3078   -2.6281 C   0  0  0  0  0  0  0  0  0  0  0  0
  -19.8613    4.1287   -3.1171 C   0  0  0  0  0  0  0  0  0  0  0  0
  -20.2261    3.1961   -3.7892 O   0  0  0  0  0  0  0  0  0  0  0  0
  -20.6698    5.1199   -2.7267 O   0  0  0  0  0  0  0  0  0  0  0  0
  -22.0207    5.0232   -3.1529 C   0  0  0  0  0  0  0  0  0  0  0  0
  -17.5402    3.3071   -2.9197 C   0  0  0  0  0  0  0  0  0  0  0  0
  -16.2258    3.3897   -2.4904 C   0  0  0  0  0  0  0  0  0  0  0  0
  -15.8390    4.5063   -1.7646 C   0  0  0  0  0  0  0  0  0  0  0  0
  -14.5594    4.8602   -1.1531 C   0  0  0  0  0  0  0  0  0  0  0  0
  -13.5696    3.9681   -0.8381 C   0  0  0  0  0  0  0  0  0  0  0  0
  -12.4681    4.2606   -0.0049 C   0  0  0  0  0  0  0  0  0  0  0  0
  -11.5893    4.3997    0.7198 N   0  0  0  0  0  0  0  0  0  0  0  0
  -13.5689    2.6144   -1.2284 C   0  0  0  0  0  0  0  0  0  0  0  0
  -13.4997    1.5099   -1.5344 N   0  0  0  0  0  0  0  0  0  0  0  0
   12.7071  -11.0686    0.8733 H   0  0  0  0  0  0  0  0  0  0  0  0
   14.9390  -10.7663    6.9590 H   0  0  0  0  0  0  0  0  0  0  0  0
   12.2072   -8.1381    3.4257 H   0  0  0  0  0  0  0  0  0  0  0  0
   11.3702   -3.5733    3.9075 H   0  0  0  0  0  0  0  0  0  0  0  0
   13.2820   -6.8628    9.5914 H   0  0  0  0  0  0  0  0  0  0  0  0
   13.7057   -5.9040    8.1953 H   0  0  0  0  0  0  0  0  0  0  0  0
   13.5155   -7.9728    6.7534 H   0  0  0  0  0  0  0  0  0  0  0  0
   14.7376   -8.1187    8.0176 H   0  0  0  0  0  0  0  0  0  0  0  0
   13.1688   -8.9066    8.2040 H   0  0  0  0  0  0  0  0  0  0  0  0
   10.4287   -8.5651    9.1859 H   0  0  0  0  0  0  0  0  0  0  0  0
   10.6129   -8.7381    7.4557 H   0  0  0  0  0  0  0  0  0  0  0  0
    8.3524   -7.2153    8.8311 H   0  0  0  0  0  0  0  0  0  0  0  0
    8.5498   -7.3843    7.0890 H   0  0  0  0  0  0  0  0  0  0  0  0
    8.2279   -8.8047    8.0802 H   0  0  0  0  0  0  0  0  0  0  0  0
    9.5994   -4.7871    9.0240 H   0  0  0  0  0  0  0  0  0  0  0  0
   11.2226   -4.2630    9.3936 H   0  0  0  0  0  0  0  0  0  0  0  0
   11.3917   -5.9921   11.1826 H   0  0  0  0  0  0  0  0  0  0  0  0
    9.7482   -6.5138   10.8289 H   0  0  0  0  0  0  0  0  0  0  0  0
   10.0421   -4.8947   11.4587 H   0  0  0  0  0  0  0  0  0  0  0  0
    7.6258   -9.2757   -6.3957 H   0  0  0  0  0  0  0  0  0  0  0  0
    5.8882   -9.1380   -6.4787 H   0  0  0  0  0  0  0  0  0  0  0  0
    5.7078  -10.0466   -4.1517 H   0  0  0  0  0  0  0  0  0  0  0  0
    7.4626  -10.1844   -4.0814 H   0  0  0  0  0  0  0  0  0  0  0  0
    6.5490  -11.1652   -5.2247 H   0  0  0  0  0  0  0  0  0  0  0  0
    6.3503   -5.9223   -7.0289 H   0  0  0  0  0  0  0  0  0  0  0  0
    7.2611   -5.0156   -5.8440 H   0  0  0  0  0  0  0  0  0  0  0  0
    9.3369   -6.2266   -6.4874 H   0  0  0  0  0  0  0  0  0  0  0  0
    8.4287   -7.1633   -7.6697 H   0  0  0  0  0  0  0  0  0  0  0  0
    8.6088   -5.4226   -7.8759 H   0  0  0  0  0  0  0  0  0  0  0  0
    5.1289   -7.4953   -3.2053 H   0  0  0  0  0  0  0  0  0  0  0  0
    4.3417   -7.2973   -4.7518 H   0  0  0  0  0  0  0  0  0  0  0  0
    5.7605   -5.0701   -3.2226 H   0  0  0  0  0  0  0  0  0  0  0  0
    4.9251   -4.8823   -4.7631 H   0  0  0  0  0  0  0  0  0  0  0  0
    4.0194   -5.3089   -3.3138 H   0  0  0  0  0  0  0  0  0  0  0  0
   11.2151   -7.8995   -2.4278 H   0  0  0  0  0  0  0  0  0  0  0  0
    8.3346   -4.3040   -1.1775 H   0  0  0  0  0  0  0  0  0  0  0  0
    8.9661   -1.0039    2.4270 H   0  0  0  0  0  0  0  0  0  0  0  0
    7.8187    0.3187    2.6646 H   0  0  0  0  0  0  0  0  0  0  0  0
    7.4884   -1.2834    3.3452 H   0  0  0  0  0  0  0  0  0  0  0  0
    5.9413    0.8118    3.7095 H   0  0  0  0  0  0  0  0  0  0  0  0
    4.7350   -0.1540    5.5903 H   0  0  0  0  0  0  0  0  0  0  0  0
    1.6875   -2.2166    5.2718 H   0  0  0  0  0  0  0  0  0  0  0  0
    3.0058   -1.7425    6.3532 H   0  0  0  0  0  0  0  0  0  0  0  0
    0.7237    0.0801    5.4479 H   0  0  0  0  0  0  0  0  0  0  0  0
    2.0358    0.5494    6.5286 H   0  0  0  0  0  0  0  0  0  0  0  0
    0.8679   -0.6738    7.0395 H   0  0  0  0  0  0  0  0  0  0  0  0
    1.6152   -1.3907    2.9616 H   0  0  0  0  0  0  0  0  0  0  0  0
    2.8249   -0.4533    1.0718 H   0  0  0  0  0  0  0  0  0  0  0  0
    4.4830    2.6573    2.8079 H   0  0  0  0  0  0  0  0  0  0  0  0
    5.4306    4.8406    3.3141 H   0  0  0  0  0  0  0  0  0  0  0  0
    8.7100    5.9881    2.0351 H   0  0  0  0  0  0  0  0  0  0  0  0
    7.4534    6.2742    3.2478 H   0  0  0  0  0  0  0  0  0  0  0  0
    7.4174    8.0443    1.5035 H   0  0  0  0  0  0  0  0  0  0  0  0
    5.9217    7.1041    1.4606 H   0  0  0  0  0  0  0  0  0  0  0  0
    7.1740    6.8200    0.2525 H   0  0  0  0  0  0  0  0  0  0  0  0
    8.4735    4.1701    0.4168 H   0  0  0  0  0  0  0  0  0  0  0  0
    8.4405    2.4384   -0.9916 H   0  0  0  0  0  0  0  0  0  0  0  0
    8.2472    0.9388   -0.0899 H   0  0  0  0  0  0  0  0  0  0  0  0
    6.9821    1.4694   -1.1977 H   0  0  0  0  0  0  0  0  0  0  0  0
    3.0298    3.1019    1.0418 H   0  0  0  0  0  0  0  0  0  0  0  0
    1.0735    4.6872   -3.7753 H   0  0  0  0  0  0  0  0  0  0  0  0
    1.6564    5.7058   -5.9200 H   0  0  0  0  0  0  0  0  0  0  0  0
    0.8635    6.5959   -8.0719 H   0  0  0  0  0  0  0  0  0  0  0  0
   -0.6774    6.0542   -8.7528 H   0  0  0  0  0  0  0  0  0  0  0  0
    1.2361    5.1143  -10.0321 H   0  0  0  0  0  0  0  0  0  0  0  0
    1.8613    4.3608   -8.5613 H   0  0  0  0  0  0  0  0  0  0  0  0
    0.3258    3.8226   -9.2418 H   0  0  0  0  0  0  0  0  0  0  0  0
   -2.0665    4.4225   -7.5558 H   0  0  0  0  0  0  0  0  0  0  0  0
   -2.6502    3.3883   -5.4115 H   0  0  0  0  0  0  0  0  0  0  0  0
   -0.4883    1.5378   -5.0227 H   0  0  0  0  0  0  0  0  0  0  0  0
   -1.0293   -0.8457   -5.1349 H   0  0  0  0  0  0  0  0  0  0  0  0
   -2.5770   -2.6480   -4.4735 H   0  0  0  0  0  0  0  0  0  0  0  0
   -3.5321   -2.5079   -2.9903 H   0  0  0  0  0  0  0  0  0  0  0  0
   -1.6858   -4.1507   -2.7073 H   0  0  0  0  0  0  0  0  0  0  0  0
   -1.4557   -2.7678   -1.6316 H   0  0  0  0  0  0  0  0  0  0  0  0
   -0.5014   -2.9020   -3.1079 H   0  0  0  0  0  0  0  0  0  0  0  0
   -3.4249   -0.4758   -1.6266 H   0  0  0  0  0  0  0  0  0  0  0  0
   -2.8701    1.9061   -1.4970 H   0  0  0  0  0  0  0  0  0  0  0  0
    1.3190    1.4731   -3.3689 H   0  0  0  0  0  0  0  0  0  0  0  0
   -4.2126    4.1597   -3.6925 H   0  0  0  0  0  0  0  0  0  0  0  0
   -5.6610    6.9942   -0.0816 H   0  0  0  0  0  0  0  0  0  0  0  0
   -6.3338    9.2417   -0.0019 H   0  0  0  0  0  0  0  0  0  0  0  0
   -9.3251    9.2979    6.7083 H   0  0  0  0  0  0  0  0  0  0  0  0
   -9.2525    8.0484    5.4883 H   0  0  0  0  0  0  0  0  0  0  0  0
  -10.8624   10.6325    5.2787 H   0  0  0  0  0  0  0  0  0  0  0  0
  -10.7726    9.3970    4.0241 H   0  0  0  0  0  0  0  0  0  0  0  0
  -11.5073    9.0211    5.5796 H   0  0  0  0  0  0  0  0  0  0  0  0
   -5.7881    8.6659    5.2292 H   0  0  0  0  0  0  0  0  0  0  0  0
   -5.4924   10.3601    5.5215 H   0  0  0  0  0  0  0  0  0  0  0  0
   -7.0017    8.4768    7.3857 H   0  0  0  0  0  0  0  0  0  0  0  0
   -6.7625   10.1957    7.6843 H   0  0  0  0  0  0  0  0  0  0  0  0
   -5.3762    9.1098    7.6306 H   0  0  0  0  0  0  0  0  0  0  0  0
   -9.0522   12.1174    4.1884 H   0  0  0  0  0  0  0  0  0  0  0  0
   -7.3259   12.3745    4.1919 H   0  0  0  0  0  0  0  0  0  0  0  0
   -8.4144   13.6170    6.0393 H   0  0  0  0  0  0  0  0  0  0  0  0
   -7.3065   12.4054    6.6760 H   0  0  0  0  0  0  0  0  0  0  0  0
   -9.0431   12.1095    6.7018 H   0  0  0  0  0  0  0  0  0  0  0  0
  -14.0464    2.9732   -4.7510 H   0  0  0  0  0  0  0  0  0  0  0  0
  -13.2777    1.6321   -3.9341 H   0  0  0  0  0  0  0  0  0  0  0  0
  -15.0850    1.4138   -6.3832 H   0  0  0  0  0  0  0  0  0  0  0  0
  -15.4989    0.9484   -4.7359 H   0  0  0  0  0  0  0  0  0  0  0  0
  -14.2663    0.0534   -5.6164 H   0  0  0  0  0  0  0  0  0  0  0  0
  -13.5079    3.4422   -7.6711 H   0  0  0  0  0  0  0  0  0  0  0  0
  -11.8458    3.4505   -8.2038 H   0  0  0  0  0  0  0  0  0  0  0  0
  -12.0493    1.0947   -8.9637 H   0  0  0  0  0  0  0  0  0  0  0  0
  -13.7199    1.0525   -8.4113 H   0  0  0  0  0  0  0  0  0  0  0  0
  -13.2567    2.1206   -9.7342 H   0  0  0  0  0  0  0  0  0  0  0  0
  -11.7391   -0.2707   -6.5514 H   0  0  0  0  0  0  0  0  0  0  0  0
  -10.2867    0.6359   -6.8995 H   0  0  0  0  0  0  0  0  0  0  0  0
   -9.9534   -0.8348   -4.9380 H   0  0  0  0  0  0  0  0  0  0  0  0
   -9.8196    0.8565   -4.4600 H   0  0  0  0  0  0  0  0  0  0  0  0
  -11.2859   -0.0465   -4.0940 H   0  0  0  0  0  0  0  0  0  0  0  0
   -8.2776    5.4272   -5.1179 H   0  0  0  0  0  0  0  0  0  0  0  0
  -12.2953    5.9188   -2.4529 H   0  0  0  0  0  0  0  0  0  0  0  0
  -14.0884    8.0644    0.1016 H   0  0  0  0  0  0  0  0  0  0  0  0
  -18.7898    6.2191   -1.6740 H   0  0  0  0  0  0  0  0  0  0  0  0
  -22.4706    4.1003   -2.7812 H   0  0  0  0  0  0  0  0  0  0  0  0
  -22.0747    5.0243   -4.2436 H   0  0  0  0  0  0  0  0  0  0  0  0
  -22.5313    5.8907   -2.7431 H   0  0  0  0  0  0  0  0  0  0  0  0
  -17.8773    2.4559   -3.4923 H   0  0  0  0  0  0  0  0  0  0  0  0
  -15.5265    2.6054   -2.7282 H   0  0  0  0  0  0  0  0  0  0  0  0
  1  2  2  0  0  0  0
  2  3  1  0  0  0  0
  3  4  2  0  0  0  0
  3  5  1  0  0  0  0
  5  6  1  0  0  0  0
  6  7  2  0  0  0  0
  7  8  1  0  0  0  0
  7  9  1  0  0  0  0
  9 10  1  0  0  0  0
 10 11  1  0  0  0  0
 11 12  2  0  0  0  0
 12 13  1  0  0  0  0
 13 14  3  0  0  0  0
 12 15  1  0  0  0  0
 15 16  3  0  0  0  0
  1 17  1  0  0  0  0
 17 18  2  0  0  0  0
 18 19  1  0  0  0  0
 19 20  2  0  0  0  0
 20 21  1  0  0  0  0
 21 22  2  0  0  0  0
 22 23  1  0  0  0  0
 23 24  1  0  0  0  0
 23 25  2  0  0  0  0
 25 26  1  0  0  0  0
 26 27  1  0  0  0  0
 27 28  1  0  0  0  0
 26 29  1  0  0  0  0
 29 30  1  0  0  0  0
 26 31  1  0  0  0  0
 31 32  1  0  0  0  0
 25 33  1  0  0  0  0
 20 34  1  0  0  0  0
 34 35  2  0  0  0  0
 35 36  1  0  0  0  0
 36 37  1  0  0  0  0
 37 38  1  0  0  0  0
 38 39  1  0  0  0  0
 39 40  1  0  0  0  0
 40 41  1  0  0  0  0
 41 42  1  0  0  0  0
 40 43  1  0  0  0  0
 43 44  1  0  0  0  0
 40 45  1  0  0  0  0
 45 46  1  0  0  0  0
 39 47  2  0  0  0  0
 47 48  1  0  0  0  0
 47 49  1  0  0  0  0
 36 50  2  0  0  0  0
 50 51  1  0  0  0  0
 35 52  1  0  0  0  0
 52 53  2  0  0  0  0
 53 54  1  0  0  0  0
 53 55  1  0  0  0  0
 55 56  1  0  0  0  0
 56 57  1  0  0  0  0
 57 58  1  0  0  0  0
 58 59  2  0  0  0  0
 59 60  1  0  0  0  0
 60 61  1  0  0  0  0
 61 62  1  0  0  0  0
 62 63  1  0  0  0  0
 60 64  1  0  0  0  0
 64 65  2  0  0  0  0
 65 66  1  0  0  0  0
 66 67  2  0  0  0  0
 67 68  1  0  0  0  0
 68 69  1  0  0  0  0
 67 70  1  0  0  0  0
 70 71  2  0  0  0  0
 60 72  1  0  0  0  0
 72 73  2  0  0  0  0
 73 74  1  0  0  0  0
 74 75  2  0  0  0  0
 75 76  1  0  0  0  0
 76 77  1  0  0  0  0
 75 78  1  0  0  0  0
 78 79  2  0  0  0  0
 79 80  1  0  0  0  0
 59 81  1  0  0  0  0
 81 82  2  0  0  0  0
 82 83  1  0  0  0  0
 83 84  1  0  0  0  0
 84 85  1  0  0  0  0
 85 86  1  0  0  0  0
 86 87  2  0  0  0  0
 87 88  1  0  0  0  0
 88 89  1  0  0  0  0
 89 90  2  0  0  0  0
 90 91  1  0  0  0  0
 91 92  2  0  0  0  0
 92 93  1  0  0  0  0
 93 94  1  0  0  0  0
 92 95  1  0  0  0  0
 95 96  2  0  0  0  0
 88 97  1  0  0  0  0
 97 98  2  0  0  0  0
 98 99  1  0  0  0  0
 99100  2  0  0  0  0
100101  1  0  0  0  0
101102  1  0  0  0  0
100103  1  0  0  0  0
103104  2  0  0  0  0
 88105  1  0  0  0  0
105106  1  0  0  0  0
106107  1  0  0  0  0
107108  2  0  0  0  0
108109  1  0  0  0  0
 87110  1  0  0  0  0
110111  2  0  0  0  0
111112  1  0  0  0  0
111113  1  0  0  0  0
113114  2  0  0  0  0
114115  1  0  0  0  0
115116  2  0  0  0  0
116117  1  0  0  0  0
117118  2  0  0  0  0
118119  1  0  0  0  0
119120  1  0  0  0  0
119121  2  0  0  0  0
121122  1  0  0  0  0
122123  1  0  0  0  0
123124  1  0  0  0  0
122125  1  0  0  0  0
125126  1  0  0  0  0
122127  1  0  0  0  0
127128  1  0  0  0  0
121129  1  0  0  0  0
116130  1  0  0  0  0
130131  2  0  0  0  0
131132  1  0  0  0  0
132133  1  0  0  0  0
133134  1  0  0  0  0
134135  1  0  0  0  0
135136  1  0  0  0  0
136137  1  0  0  0  0
137138  1  0  0  0  0
136139  1  0  0  0  0
139140  1  0  0  0  0
136141  1  0  0  0  0
141142  1  0  0  0  0
135143  2  0  0  0  0
143144  1  0  0  0  0
143145  1  0  0  0  0
132146  2  0  0  0  0
146147  1  0  0  0  0
131148  1  0  0  0  0
148149  2  0  0  0  0
149150  1  0  0  0  0
149151  1  0  0  0  0
151152  2  0  0  0  0
152153  1  0  0  0  0
153154  2  0  0  0  0
153155  1  0  0  0  0
155156  2  0  0  0  0
156157  1  0  0  0  0
157158  1  0  0  0  0
158159  2  0  0  0  0
158160  1  0  0  0  0
160161  1  0  0  0  0
157162  2  0  0  0  0
162163  1  0  0  0  0
163164  2  0  0  0  0
164165  1  0  0  0  0
165166  2  0  0  0  0
166167  1  0  0  0  0
167168  3  0  0  0  0
166169  1  0  0  0  0
169170  3  0  0  0  0
 11  2  1  0  0  0  0
 51 17  1  0  0  0  0
 62 55  2  0  0  0  0
 71 64  1  0  0  0  0
 79 72  1  0  0  0  0
108 81  1  0  0  0  0
147113  1  0  0  0  0
165152  1  0  0  0  0
 10  5  2  0  0  0  0
 50 19  1  0  0  0  0
 61 57  2  0  0  0  0
106 83  2  0  0  0  0
146115  1  0  0  0  0
164155  1  0  0  0  0
 33 21  1  0  0  0  0
 54 34  1  0  0  0  0
109 58  1  0  0  0  0
129117  1  0  0  0  0
150130  1  0  0  0  0
 48 37  2  0  0  0  0
105 85  2  0  0  0  0
144133  2  0  0  0  0
112 86  1  0  0  0  0
 96 89  1  0  0  0  0
104 97  1  0  0  0  0
  1171  1  0  0  0  0
  6172  1  0  0  0  0
 18173  1  0  0  0  0
 22174  1  0  0  0  0
 27175  1  0  0  0  0
 27176  1  0  0  0  0
 28177  1  0  0  0  0
 28178  1  0  0  0  0
 28179  1  0  0  0  0
 29180  1  0  0  0  0
 29181  1  0  0  0  0
 30182  1  0  0  0  0
 30183  1  0  0  0  0
 30184  1  0  0  0  0
 31185  1  0  0  0  0
 31186  1  0  0  0  0
 32187  1  0  0  0  0
 32188  1  0  0  0  0
 32189  1  0  0  0  0
 41190  1  0  0  0  0
 41191  1  0  0  0  0
 42192  1  0  0  0  0
 42193  1  0  0  0  0
 42194  1  0  0  0  0
 43195  1  0  0  0  0
 43196  1  0  0  0  0
 44197  1  0  0  0  0
 44198  1  0  0  0  0
 44199  1  0  0  0  0
 45200  1  0  0  0  0
 45201  1  0  0  0  0
 46202  1  0  0  0  0
 46203  1  0  0  0  0
 46204  1  0  0  0  0
 48205  1  0  0  0  0
 52206  1  0  0  0  0
 63207  1  0  0  0  0
 63208  1  0  0  0  0
 63209  1  0  0  0  0
 65210  1  0  0  0  0
 66211  1  0  0  0  0
 68212  1  0  0  0  0
 68213  1  0  0  0  0
 69214  1  0  0  0  0
 69215  1  0  0  0  0
 69216  1  0  0  0  0
 70217  1  0  0  0  0
 71218  1  0  0  0  0
 73219  1  0  0  0  0
 74220  1  0  0  0  0
 76221  1  0  0  0  0
 76222  1  0  0  0  0
 77223  1  0  0  0  0
 77224  1  0  0  0  0
 77225  1  0  0  0  0
 78226  1  0  0  0  0
 80227  1  0  0  0  0
 80228  1  0  0  0  0
 80229  1  0  0  0  0
 82230  1  0  0  0  0
 90231  1  0  0  0  0
 91232  1  0  0  0  0
 93233  1  0  0  0  0
 93234  1  0  0  0  0
 94235  1  0  0  0  0
 94236  1  0  0  0  0
 94237  1  0  0  0  0
 95238  1  0  0  0  0
 96239  1  0  0  0  0
 98240  1  0  0  0  0
 99241  1  0  0  0  0
101242  1  0  0  0  0
101243  1  0  0  0  0
102244  1  0  0  0  0
102245  1  0  0  0  0
102246  1  0  0  0  0
103247  1  0  0  0  0
104248  1  0  0  0  0
107249  1  0  0  0  0
110250  1  0  0  0  0
114251  1  0  0  0  0
118252  1  0  0  0  0
123253  1  0  0  0  0
123254  1  0  0  0  0
124255  1  0  0  0  0
124256  1  0  0  0  0
124257  1  0  0  0  0
125258  1  0  0  0  0
125259  1  0  0  0  0
126260  1  0  0  0  0
126261  1  0  0  0  0
126262  1  0  0  0  0
127263  1  0  0  0  0
127264  1  0  0  0  0
128265  1  0  0  0  0
128266  1  0  0  0  0
128267  1  0  0  0  0
137268  1  0  0  0  0
137269  1  0  0  0  0
138270  1  0  0  0  0
138271  1  0  0  0  0
138272  1  0  0  0  0
139273  1  0  0  0  0
139274  1  0  0  0  0
140275  1  0  0  0  0
140276  1  0  0  0  0
140277  1  0  0  0  0
141278  1  0  0  0  0
141279  1  0  0  0  0
142280  1  0  0  0  0
142281  1  0  0  0  0
142282  1  0  0  0  0
144283  1  0  0  0  0
148284  1  0  0  0  0
151285  1  0  0  0  0
156286  1  0  0  0  0
161287  1  0  0  0  0
161288  1  0  0  0  0
161289  1  0  0  0  0
162290  1  0  0  0  0
163291  1  0  0  0  0
M  END
