244

C          3.85710        9.52170       -8.53720
C          2.79390        9.99660       -9.25040
S          3.02800       11.24400      -10.47400
C          1.30500       11.20440      -10.93200
O          0.80970       11.88500      -11.78510
N          0.66680       10.28770      -10.14850
C         -0.74890       10.01480      -10.32460
C         -0.97090        8.92770      -11.36860
C          1.41030        9.58850       -9.20890
O          0.90250        8.75240       -8.48190
C          3.90620        8.55830       -7.52090
C          5.10110        8.10880       -6.92080
N          6.37480        8.45530       -7.31660
C          6.71630        8.53590       -8.67710
C          7.60640        9.50850       -9.12480
C          7.92730        9.58940      -10.46550
C          7.37270        8.71460      -11.39180
C          7.69330        8.83280      -12.84950
C          6.49250        7.74060      -10.93360
C          6.16960        7.64250       -9.59580
C          7.36030        8.65690       -6.33600
C          8.66690        8.22260       -6.53800
C          9.63950        8.48810       -5.59490
C          9.34080        9.18310       -4.42990
C         10.41110        9.54400       -3.44630
C          8.02560        9.57960       -4.21930
C          7.04440        9.32460       -5.15480
C          4.83330        7.23150       -5.85850
S          5.82730        6.33300       -4.75840
C          4.39220        5.59720       -4.04390
C          3.21290        6.08770       -4.59740
N          1.91940        5.77620       -4.19930
C          1.53930        5.76010       -2.85710
C          2.24970        6.47210       -1.89140
C          1.90240        6.37790       -0.55990
C          0.83240        5.59160       -0.14670
C          0.47400        5.49970        1.30560
C          0.10790        4.91110       -1.11670
C          0.45220        4.98560       -2.45130
C          0.94360        5.72860       -5.21490
C         -0.25860        6.41740       -5.09040
C         -1.16860        6.40870       -6.12730
C         -0.90690        5.72530       -7.30880
C         -1.87170        5.78290       -8.45200
C          0.28610        5.02310       -7.41540
C          1.20210        5.01740       -6.38250
C          3.48080        6.99490       -5.65040
S          2.48090        7.82810       -6.78450
C          4.55760        4.58780       -3.05760
C          5.68740        4.30760       -2.31120
C          6.97080        5.03010       -2.38410
C          7.99150        4.47090       -3.14690
C          9.23160        5.07380       -3.21020
C          9.46580        6.23230       -2.49040
C          8.45660        6.78340       -1.72500
C          7.19740        6.20130       -1.66180
C          6.11880        6.84360       -0.83420
C          5.68120        8.17810       -1.43900
C          5.48240        3.21800       -1.44830
S          6.48890        2.46180       -0.23540
C          5.16770        1.41330        0.17080
C          4.83710        0.42700        1.11620
C          5.53650       -0.07440        2.23680
C          4.85020       -0.92990        3.16780
N          5.60370       -1.25180        4.20750
S          7.05330       -0.55220        4.02770
N          6.77430        0.19610        2.61980
C          3.53590       -1.34970        2.86950
C          2.63420       -2.20360        3.53440
S          2.49800       -3.08410        5.01940
C          0.89280       -3.60190        4.55680
C         -0.10510       -4.38540        5.18180
C          0.01300       -5.19160        6.40750
C          0.48340       -4.71460        7.63560
C          0.89530       -3.28190        7.82590
C          0.50640       -2.70680        9.18800
C          0.56360       -5.60350        8.70220
C          0.18020       -6.92510        8.58300
C         -0.28690       -7.39500        7.36790
C         -0.35990       -6.53300        6.29330
C         -1.22440       -4.47870        4.37950
S         -1.04600       -3.67420        2.83400
C          0.52520       -3.13810        3.29250
C          1.51500       -2.33630        2.71320
N          1.67550       -1.59680        1.56820
C          2.89850       -0.95290        1.66410
C          3.49150        0.04760        0.85700
N          3.00520        0.81240       -0.19300
C          4.02390        1.63350       -0.60020
C          4.20530        2.66140       -1.53160
S          3.25230        3.45180       -2.73180
C          1.63900        1.17050       -0.52220
C          0.82340        1.53780        0.71150
C          0.99120       -1.99410        0.35790
C          1.31710       -3.43960       -0.01690
C         -2.49170       -5.04640        4.75270
C         -3.26590       -4.63110        5.82040
N         -2.99920       -3.52120        6.60820
C         -3.20470       -3.62830        7.99150
C         -2.89730       -4.81990        8.64460
C         -3.09880       -4.93770       10.00440
C         -3.60420       -3.87910       10.75030
C         -3.82850       -4.02550       12.22380
C         -3.91390       -2.69700       10.08910
C         -3.72580       -2.56790        8.72710
C         -2.57300       -2.33050        6.00830
C         -2.96030       -2.01010        4.70900
C         -2.47000       -0.87650        4.08890
C         -1.59160       -0.02360        4.74050
C         -1.01590        1.18070        4.06000
C         -1.25730       -0.31510        6.05860
C         -1.74210       -1.44180        6.68920
C         -4.41930       -5.43940        5.95070
S         -5.70310       -5.49250        7.09460
C         -6.49480       -6.78810        6.17790
C         -5.70490       -7.21830        5.08290
N         -5.91900       -8.30990        4.30000
C         -5.34870       -8.34940        3.00540
C         -5.51570       -7.27980        2.13160
C         -4.96070       -7.33350        0.86920
C         -4.23440       -8.44340        0.45040
C         -3.61790       -8.47540       -0.91360
C         -4.08610       -9.50970        1.32890
C         -4.63620       -9.47010        2.59580
C         -6.64590       -9.43300        4.71750
C         -6.55580       -9.91570        6.02290
C         -7.27930      -11.02650        6.40150
C         -8.11560      -11.68780        5.50320
C         -8.90200      -12.88220        5.93890
C         -8.18600      -11.21050        4.20140
C         -7.46040      -10.10250        3.80570
C         -4.55380       -6.40470        4.96220
S         -3.22680       -6.35550        3.84790
C         -7.74180       -7.19550        6.64020
C         -8.71520       -7.85000        5.90440
C         -8.82690       -7.74880        4.45100
O         -8.13280       -7.09360        3.69750
C        -10.07340       -8.47440        4.09770
C        -10.63960       -8.66130        2.85260
Cl        -9.82820       -8.17790        1.42880
C        -11.89690       -9.27570        2.77820
Cl       -12.61620       -9.57100        1.25340
C        -12.57600       -9.61080        3.94620
Cl       -14.15440      -10.26640        3.83930
C        -11.99540       -9.41350        5.21030
Cl       -12.95900       -9.70010        6.60080
C        -10.70480       -8.90910        5.27930
C         -9.80010       -8.64750        6.39970
C         -9.79570       -9.26720        7.62750
C         -8.81640       -9.00930        8.61000
N         -8.04960       -8.86080        9.45210
C        -10.57650      -10.37090        8.01490
N        -11.06660      -11.34110        8.38810
H          4.81220        9.96470       -8.79270
H         -1.12880        9.69560       -9.35080
H         -1.23040       10.94570      -10.63130
H         -2.03370        8.72470      -11.46780
H         -0.46300        8.01290      -11.07010
H         -0.58460        9.24900      -12.33320
H          8.03620       10.20270       -8.41770
H          8.61410       10.35360      -10.79890
H          8.67700        9.27200      -12.99720
H          6.96010        9.47500      -13.33860
H          7.66310        7.85950      -13.33410
H          6.05890        7.04300      -11.63530
H          5.48890        6.87710       -9.25330
H          8.91560        7.68500       -7.44100
H         10.65100        8.15230       -5.77160
H         10.69130       10.59070       -3.57230
H         11.30020        8.93710       -3.59650
H         10.06030        9.41520       -2.42510
H          7.76990       10.11860       -3.31880
H          6.03180        9.66260       -4.98790
H          3.07780        7.09560       -2.19050
H          2.47110        6.92870        0.17600
H          0.11520        6.46290        1.66800
H         -0.30580        4.75990        1.46950
H          1.34600        5.22840        1.89950
H         -0.73490        4.30120       -0.82360
H         -0.10590        4.42920       -3.18930
H         -0.46390        6.97280       -4.18700
H         -2.09180        6.96070       -6.02570
H         -2.89860        5.82780       -8.09580
H         -1.67860        6.68090       -9.03910
H         -1.75940        4.91990       -9.10420
H          0.50550        4.47740       -8.32190
H          2.13090        4.47300       -6.47670
H          7.79950        3.55820       -3.69220
H         10.01550        4.63530       -3.80900
H         10.43880        6.69800       -2.51820
H          8.64740        7.67760       -1.14890
H          6.49650        7.01690        0.17700
H          5.25760        6.17690       -0.76170
H          5.35810        8.04050       -2.46850
H          4.86090        8.60550       -0.86610
H          6.50600        8.88580       -1.44040
H          1.98130       -3.21130        7.71120
H          0.44610       -2.67630        7.03800
H         -0.52830       -2.94680        9.42830
H          1.13910       -3.09740        9.98060
H          0.62370       -1.62530        9.17730
H          0.93470       -5.25310        9.65200
H          0.24970       -7.58710        9.43330
H         -0.58500       -8.42670        7.25430
H         -0.69320       -6.90570        5.33560
H          1.69970        2.04110       -1.18040
H          1.14290        0.37830       -1.08980
H          1.30630        2.35160        1.24690
H         -0.16580        1.86440        0.40330
H          0.71860        0.69130        1.38350
H          1.31400       -1.34940       -0.45340
H         -0.08690       -1.88300        0.51230
H          2.39220       -3.56410       -0.12890
H          0.96350       -4.12940        0.74410
H          0.83600       -3.68900       -0.95870
H         -2.48760       -5.64620        8.08290
H         -2.85100       -5.86670       10.49660
H         -4.73230       -4.60710       12.40660
H         -3.94600       -3.05480       12.69900
H         -2.99620       -4.54890       12.69030
H         -4.31780       -1.86410       10.64670
H         -3.98620       -1.64710        8.22660
H         -3.64610       -2.65440        4.17850
H         -2.77550       -0.66020        3.07500
H         -1.23150        2.08270        4.63100
H          0.06780        1.08860        3.98370
H         -1.42600        1.29600        3.05980
H         -0.59520        0.34800        6.59680
H         -1.47970       -1.64020        7.71470
H         -6.10780       -6.43440        2.44420
H         -5.09970       -6.50310        0.19260
H         -4.29440       -8.05110       -1.65250
H         -3.36780       -9.49200       -1.20580
H         -2.70240       -7.88330       -0.92000
H         -3.53070      -10.38320        1.02030
H         -4.51510      -10.30370        3.27230
H         -5.91150       -9.42480        6.73680
H         -7.19560      -11.39140        7.41480
H         -8.24480      -13.62700        6.38470
H         -9.42470      -13.33180        5.09900
H         -9.63610      -12.60140        6.69390
H         -8.82090      -11.70790        3.48280
H         -7.52210       -9.74580        2.78880
H         -7.97590       -6.91120        7.65880
