
  xtb     02072217133D
 energy: -381.328846312740 gnorm: 0.000533123264 xtb: 6.4.1 (unknown)
235258  0     0  0            999 V2000
    9.9845   -6.3945    7.1319 C   0  0  0  0  0  0  0  0  0  0  0  0
    9.9562   -6.9744    8.3732 C   0  0  0  0  0  0  0  0  0  0  0  0
    8.8733   -7.6783    8.9310 C   0  0  0  0  0  0  0  0  0  0  0  0
    8.0365   -8.2865    9.4321 N   0  0  0  0  0  0  0  0  0  0  0  0
   11.1082   -6.9293    9.1838 C   0  0  0  0  0  0  0  0  0  0  0  0
   12.0551   -6.8915    9.8317 N   0  0  0  0  0  0  0  0  0  0  0  0
    8.9315   -6.3249    6.2062 C   0  0  0  0  0  0  0  0  0  0  0  0
    9.0011   -5.8284    4.8931 C   0  0  0  0  0  0  0  0  0  0  0  0
   10.1502   -5.4330    4.2536 N   0  0  0  0  0  0  0  0  0  0  0  0
   11.3696   -6.1072    4.4583 C   0  0  0  0  0  0  0  0  0  0  0  0
   12.5603   -5.3906    4.5280 C   0  0  0  0  0  0  0  0  0  0  0  0
   13.7539   -6.0524    4.7415 C   0  0  0  0  0  0  0  0  0  0  0  0
   13.7928   -7.4332    4.8927 C   0  0  0  0  0  0  0  0  0  0  0  0
   15.0815   -8.1415    5.1704 C   0  0  0  0  0  0  0  0  0  0  0  0
   12.5989   -8.1413    4.8040 C   0  0  0  0  0  0  0  0  0  0  0  0
   11.4007   -7.4940    4.5825 C   0  0  0  0  0  0  0  0  0  0  0  0
   10.0830   -4.4142    3.2873 C   0  0  0  0  0  0  0  0  0  0  0  0
   10.8073   -4.5108    2.1030 C   0  0  0  0  0  0  0  0  0  0  0  0
   10.7347   -3.5011    1.1645 C   0  0  0  0  0  0  0  0  0  0  0  0
    9.9408   -2.3796    1.3741 C   0  0  0  0  0  0  0  0  0  0  0  0
    9.8405   -1.3038    0.3374 C   0  0  0  0  0  0  0  0  0  0  0  0
    9.2250   -2.2901    2.5619 C   0  0  0  0  0  0  0  0  0  0  0  0
    9.2955   -3.2879    3.5130 C   0  0  0  0  0  0  0  0  0  0  0  0
    7.7235   -5.8255    4.2930 C   0  0  0  0  0  0  0  0  0  0  0  0
    7.1211   -5.3542    2.7384 S   0  0  0  0  0  0  0  0  0  0  0  0
    5.5106   -5.8971    3.1836 C   0  0  0  0  0  0  0  0  0  0  0  0
    5.4342   -6.3526    4.4921 C   0  0  0  0  0  0  0  0  0  0  0  0
    4.2799   -6.7332    5.1457 N   0  0  0  0  0  0  0  0  0  0  0  0
    4.3785   -7.6783    6.1853 C   0  0  0  0  0  0  0  0  0  0  0  0
    3.7237   -7.4668    7.3940 C   0  0  0  0  0  0  0  0  0  0  0  0
    3.8976   -8.3542    8.4372 C   0  0  0  0  0  0  0  0  0  0  0  0
    4.7227   -9.4650    8.3073 C   0  0  0  0  0  0  0  0  0  0  0  0
    4.9893  -10.3690    9.4678 C   0  0  0  0  0  0  0  0  0  0  0  0
    5.3363   -9.6902    7.0814 C   0  0  0  0  0  0  0  0  0  0  0  0
    5.1685   -8.8134    6.0286 C   0  0  0  0  0  0  0  0  0  0  0  0
    3.0493   -6.1223    4.8704 C   0  0  0  0  0  0  0  0  0  0  0  0
    1.8780   -6.8771    4.8786 C   0  0  0  0  0  0  0  0  0  0  0  0
    0.6786   -6.3018    4.5134 C   0  0  0  0  0  0  0  0  0  0  0  0
    0.6044   -4.9628    4.1429 C   0  0  0  0  0  0  0  0  0  0  0  0
   -0.6960   -4.3676    3.6955 C   0  0  0  0  0  0  0  0  0  0  0  0
    1.7619   -4.2007    4.2089 C   0  0  0  0  0  0  0  0  0  0  0  0
    2.9695   -4.7646    4.5744 C   0  0  0  0  0  0  0  0  0  0  0  0
    6.7139   -6.3320    5.1002 C   0  0  0  0  0  0  0  0  0  0  0  0
    7.2975   -6.8311    6.6423 S   0  0  0  0  0  0  0  0  0  0  0  0
    4.4075   -5.8322    2.2690 C   0  0  0  0  0  0  0  0  0  0  0  0
    3.5093   -6.8485    2.0106 C   0  0  0  0  0  0  0  0  0  0  0  0
    3.7508   -8.2449    2.3673 C   0  0  0  0  0  0  0  0  0  0  0  0
    2.6997   -9.0841    2.7262 C   0  0  0  0  0  0  0  0  0  0  0  0
    2.9520  -10.3930    3.0916 C   0  0  0  0  0  0  0  0  0  0  0  0
    4.2446  -10.8841    3.0933 C   0  0  0  0  0  0  0  0  0  0  0  0
    5.3045  -10.0719    2.7071 C   0  0  0  0  0  0  0  0  0  0  0  0
    6.7042  -10.6153    2.6496 C   0  0  0  0  0  0  0  0  0  0  0  0
    6.9561  -11.3016    1.3062 C   0  0  0  0  0  0  0  0  0  0  0  0
    5.0446   -8.7617    2.3400 C   0  0  0  0  0  0  0  0  0  0  0  0
    2.3653   -6.3538    1.3456 C   0  0  0  0  0  0  0  0  0  0  0  0
    0.8619   -7.0883    0.8505 S   0  0  0  0  0  0  0  0  0  0  0  0
    0.2891   -5.5384    0.3367 C   0  0  0  0  0  0  0  0  0  0  0  0
   -0.8806   -4.9505   -0.1842 C   0  0  0  0  0  0  0  0  0  0  0  0
   -2.0882   -5.4729   -0.7003 C   0  0  0  0  0  0  0  0  0  0  0  0
   -3.0467   -4.5746   -1.2960 C   0  0  0  0  0  0  0  0  0  0  0  0
   -4.0856   -5.2157   -1.8067 N   0  0  0  0  0  0  0  0  0  0  0  0
   -3.8897   -6.8031   -1.5537 S   0  0  0  0  0  0  0  0  0  0  0  0
   -2.4669   -6.7381   -0.7841 N   0  0  0  0  0  0  0  0  0  0  0  0
   -2.8373   -3.1800   -1.2003 C   0  0  0  0  0  0  0  0  0  0  0  0
   -3.6379   -2.0590   -1.4941 C   0  0  0  0  0  0  0  0  0  0  0  0
   -5.1342   -1.6825   -2.2819 S   0  0  0  0  0  0  0  0  0  0  0  0
   -4.8731    0.0050   -1.9198 C   0  0  0  0  0  0  0  0  0  0  0  0
   -5.5863    1.1698   -2.2637 C   0  0  0  0  0  0  0  0  0  0  0  0
   -6.8418    1.1298   -3.0199 C   0  0  0  0  0  0  0  0  0  0  0  0
   -8.0136    1.6438   -2.4763 C   0  0  0  0  0  0  0  0  0  0  0  0
   -9.1971    1.5514   -3.1836 C   0  0  0  0  0  0  0  0  0  0  0  0
   -9.2204    0.9463   -4.4273 C   0  0  0  0  0  0  0  0  0  0  0  0
   -8.0607    0.4161   -4.9791 C   0  0  0  0  0  0  0  0  0  0  0  0
   -8.0902   -0.3084   -6.2939 C   0  0  0  0  0  0  0  0  0  0  0  0
   -8.2692   -1.8102   -6.0623 C   0  0  0  0  0  0  0  0  0  0  0  0
   -6.8774    0.5101   -4.2627 C   0  0  0  0  0  0  0  0  0  0  0  0
   -4.9206    2.3046   -1.8495 C   0  0  0  0  0  0  0  0  0  0  0  0
   -3.4837    1.9257   -0.8997 S   0  0  0  0  0  0  0  0  0  0  0  0
   -3.6965    0.2433   -1.2118 C   0  0  0  0  0  0  0  0  0  0  0  0
   -2.9812   -0.9361   -0.9796 C   0  0  0  0  0  0  0  0  0  0  0  0
   -1.7858   -1.3050   -0.4166 N   0  0  0  0  0  0  0  0  0  0  0  0
   -1.6734   -2.6739   -0.5687 C   0  0  0  0  0  0  0  0  0  0  0  0
   -0.6268   -3.5578   -0.2334 C   0  0  0  0  0  0  0  0  0  0  0  0
    0.6750   -3.3068    0.1622 N   0  0  0  0  0  0  0  0  0  0  0  0
    1.2227   -4.5152    0.5183 C   0  0  0  0  0  0  0  0  0  0  0  0
    2.4153   -4.9861    1.0804 C   0  0  0  0  0  0  0  0  0  0  0  0
    3.9043   -4.2865    1.6015 S   0  0  0  0  0  0  0  0  0  0  0  0
    1.5110   -2.2236   -0.3134 C   0  0  0  0  0  0  0  0  0  0  0  0
    2.3978   -2.6777   -1.4727 C   0  0  0  0  0  0  0  0  0  0  0  0
   -1.1793   -0.4984    0.6211 C   0  0  0  0  0  0  0  0  0  0  0  0
   -2.1367   -0.2997    1.7960 C   0  0  0  0  0  0  0  0  0  0  0  0
   -5.1412    3.6647   -2.2349 C   0  0  0  0  0  0  0  0  0  0  0  0
   -4.1760    4.5432   -2.7176 C   0  0  0  0  0  0  0  0  0  0  0  0
   -2.8504    4.2415   -2.9783 N   0  0  0  0  0  0  0  0  0  0  0  0
   -1.9036    5.2729   -2.8208 C   0  0  0  0  0  0  0  0  0  0  0  0
   -1.9419    6.0898   -1.6944 C   0  0  0  0  0  0  0  0  0  0  0  0
   -1.0588    7.1431   -1.5737 C   0  0  0  0  0  0  0  0  0  0  0  0
   -0.1155    7.4022   -2.5603 C   0  0  0  0  0  0  0  0  0  0  0  0
    0.7922    8.5870   -2.4453 C   0  0  0  0  0  0  0  0  0  0  0  0
   -0.0614    6.5589   -3.6626 C   0  0  0  0  0  0  0  0  0  0  0  0
   -0.9431    5.5052   -3.7987 C   0  0  0  0  0  0  0  0  0  0  0  0
   -2.4399    2.9840   -3.4304 C   0  0  0  0  0  0  0  0  0  0  0  0
   -3.2569    2.1999   -4.2445 C   0  0  0  0  0  0  0  0  0  0  0  0
   -2.8780    0.9139   -4.5722 C   0  0  0  0  0  0  0  0  0  0  0  0
   -1.6811    0.3725   -4.1165 C   0  0  0  0  0  0  0  0  0  0  0  0
   -1.3247   -1.0500   -4.4218 C   0  0  0  0  0  0  0  0  0  0  0  0
   -0.8431    1.1828   -3.3614 C   0  0  0  0  0  0  0  0  0  0  0  0
   -1.2090    2.4698   -3.0227 C   0  0  0  0  0  0  0  0  0  0  0  0
   -4.7322    5.8199   -2.9766 C   0  0  0  0  0  0  0  0  0  0  0  0
   -4.0562    7.3299   -3.4696 S   0  0  0  0  0  0  0  0  0  0  0  0
   -5.6577    8.0741   -3.4206 C   0  0  0  0  0  0  0  0  0  0  0  0
   -6.6503    7.1678   -2.9543 C   0  0  0  0  0  0  0  0  0  0  0  0
   -7.9631    7.4764   -2.7248 N   0  0  0  0  0  0  0  0  0  0  0  0
   -8.9510    6.4990   -2.9499 C   0  0  0  0  0  0  0  0  0  0  0  0
   -8.8913    5.6883   -4.0798 C   0  0  0  0  0  0  0  0  0  0  0  0
   -9.8937    4.7722   -4.3298 C   0  0  0  0  0  0  0  0  0  0  0  0
  -10.9800    4.6478   -3.4729 C   0  0  0  0  0  0  0  0  0  0  0  0
  -12.1083    3.7127   -3.7819 C   0  0  0  0  0  0  0  0  0  0  0  0
  -11.0176    5.4442   -2.3331 C   0  0  0  0  0  0  0  0  0  0  0  0
  -10.0175    6.3562   -2.0665 C   0  0  0  0  0  0  0  0  0  0  0  0
   -8.3575    8.7234   -2.2019 C   0  0  0  0  0  0  0  0  0  0  0  0
   -7.5761    9.3659   -1.2447 C   0  0  0  0  0  0  0  0  0  0  0  0
   -7.9632   10.5944   -0.7479 C   0  0  0  0  0  0  0  0  0  0  0  0
   -9.1387   11.2029   -1.1728 C   0  0  0  0  0  0  0  0  0  0  0  0
   -9.5529   12.5446   -0.6530 C   0  0  0  0  0  0  0  0  0  0  0  0
   -9.9269   10.5378   -2.1049 C   0  0  0  0  0  0  0  0  0  0  0  0
   -9.5465    9.3156   -2.6215 C   0  0  0  0  0  0  0  0  0  0  0  0
   -6.0987    5.8961   -2.7351 C   0  0  0  0  0  0  0  0  0  0  0  0
   -6.7431    4.3845   -2.1837 S   0  0  0  0  0  0  0  0  0  0  0  0
   -5.9476    9.3500   -3.8863 C   0  0  0  0  0  0  0  0  0  0  0  0
   -5.1096   10.3612   -4.3165 C   0  0  0  0  0  0  0  0  0  0  0  0
   -3.6498   10.3701   -4.2388 C   0  0  0  0  0  0  0  0  0  0  0  0
   -2.9030    9.4686   -3.8971 O   0  0  0  0  0  0  0  0  0  0  0  0
   -3.2311   11.7305   -4.6386 C   0  0  0  0  0  0  0  0  0  0  0  0
   -1.9581   12.2577   -4.7229 C   0  0  0  0  0  0  0  0  0  0  0  0
   -1.8130   13.5782   -5.1211 C   0  0  0  0  0  0  0  0  0  0  0  0
   -2.9407   14.3275   -5.4222 C   0  0  0  0  0  0  0  0  0  0  0  0
   -2.7182   16.1369   -5.9628 Br  0  0  0  0  0  0  0  0  0  0  0  0
   -4.2293   13.8105   -5.3473 C   0  0  0  0  0  0  0  0  0  0  0  0
   -4.3700   12.4927   -4.9489 C   0  0  0  0  0  0  0  0  0  0  0  0
   -5.5561   11.6472   -4.7871 C   0  0  0  0  0  0  0  0  0  0  0  0
   -6.8436   12.0338   -5.0759 C   0  0  0  0  0  0  0  0  0  0  0  0
   -7.9723   11.1933   -5.0643 C   0  0  0  0  0  0  0  0  0  0  0  0
   -8.9393   10.5728   -5.1159 N   0  0  0  0  0  0  0  0  0  0  0  0
   -7.2098   13.3383   -5.4613 C   0  0  0  0  0  0  0  0  0  0  0  0
   -7.5780   14.3849   -5.7591 N   0  0  0  0  0  0  0  0  0  0  0  0
   10.9188   -5.9316    6.8391 H   0  0  0  0  0  0  0  0  0  0  0  0
   12.5412   -4.3158    4.4217 H   0  0  0  0  0  0  0  0  0  0  0  0
   14.6699   -5.4834    4.8022 H   0  0  0  0  0  0  0  0  0  0  0  0
   15.9274   -7.5769    4.7860 H   0  0  0  0  0  0  0  0  0  0  0  0
   15.2131   -8.2572    6.2468 H   0  0  0  0  0  0  0  0  0  0  0  0
   15.0837   -9.1334    4.7243 H   0  0  0  0  0  0  0  0  0  0  0  0
   12.6092   -9.2167    4.9045 H   0  0  0  0  0  0  0  0  0  0  0  0
   10.4816   -8.0574    4.5111 H   0  0  0  0  0  0  0  0  0  0  0  0
   11.4213   -5.3807    1.9225 H   0  0  0  0  0  0  0  0  0  0  0  0
   11.3000   -3.5901    0.2483 H   0  0  0  0  0  0  0  0  0  0  0  0
    9.6894   -0.3313    0.8005 H   0  0  0  0  0  0  0  0  0  0  0  0
    8.9912   -1.4994   -0.3182 H   0  0  0  0  0  0  0  0  0  0  0  0
   10.7382   -1.2687   -0.2751 H   0  0  0  0  0  0  0  0  0  0  0  0
    8.6088   -1.4228    2.7491 H   0  0  0  0  0  0  0  0  0  0  0  0
    8.7476   -3.1965    4.4397 H   0  0  0  0  0  0  0  0  0  0  0  0
    3.0976   -6.5944    7.5143 H   0  0  0  0  0  0  0  0  0  0  0  0
    3.4014   -8.1666    9.3782 H   0  0  0  0  0  0  0  0  0  0  0  0
    4.1997  -10.2984   10.2117 H   0  0  0  0  0  0  0  0  0  0  0  0
    5.0846  -11.4033    9.1447 H   0  0  0  0  0  0  0  0  0  0  0  0
    5.9290  -10.0725    9.9343 H   0  0  0  0  0  0  0  0  0  0  0  0
    5.9670  -10.5576    6.9535 H   0  0  0  0  0  0  0  0  0  0  0  0
    5.6527   -8.9961    5.0808 H   0  0  0  0  0  0  0  0  0  0  0  0
    1.9273   -7.9200    5.1531 H   0  0  0  0  0  0  0  0  0  0  0  0
   -0.2168   -6.9061    4.4944 H   0  0  0  0  0  0  0  0  0  0  0  0
   -1.1482   -4.9811    2.9171 H   0  0  0  0  0  0  0  0  0  0  0  0
   -1.3977   -4.3161    4.5281 H   0  0  0  0  0  0  0  0  0  0  0  0
   -0.5490   -3.3628    3.3054 H   0  0  0  0  0  0  0  0  0  0  0  0
    1.7254   -3.1486    3.9625 H   0  0  0  0  0  0  0  0  0  0  0  0
    3.8596   -4.1536    4.6212 H   0  0  0  0  0  0  0  0  0  0  0  0
    1.6899   -8.7058    2.7346 H   0  0  0  0  0  0  0  0  0  0  0  0
    2.1323  -11.0338    3.3812 H   0  0  0  0  0  0  0  0  0  0  0  0
    4.4353  -11.9048    3.3915 H   0  0  0  0  0  0  0  0  0  0  0  0
    6.8534  -11.3363    3.4563 H   0  0  0  0  0  0  0  0  0  0  0  0
    7.4236   -9.8031    2.7791 H   0  0  0  0  0  0  0  0  0  0  0  0
    6.8238  -10.5941    0.4907 H   0  0  0  0  0  0  0  0  0  0  0  0
    6.2561  -12.1217    1.1638 H   0  0  0  0  0  0  0  0  0  0  0  0
    7.9685  -11.6967    1.2635 H   0  0  0  0  0  0  0  0  0  0  0  0
    5.8618   -8.1325    2.0173 H   0  0  0  0  0  0  0  0  0  0  0  0
   -8.0006    2.0866   -1.4918 H   0  0  0  0  0  0  0  0  0  0  0  0
  -10.1037    1.9477   -2.7544 H   0  0  0  0  0  0  0  0  0  0  0  0
  -10.1499    0.8711   -4.9740 H   0  0  0  0  0  0  0  0  0  0  0  0
   -7.1564   -0.1368   -6.8334 H   0  0  0  0  0  0  0  0  0  0  0  0
   -8.9129    0.0640   -6.9075 H   0  0  0  0  0  0  0  0  0  0  0  0
   -9.2058   -2.0032   -5.5440 H   0  0  0  0  0  0  0  0  0  0  0  0
   -7.4568   -2.1986   -5.4523 H   0  0  0  0  0  0  0  0  0  0  0  0
   -8.2803   -2.3431   -7.0102 H   0  0  0  0  0  0  0  0  0  0  0  0
   -5.9668    0.1000   -4.6747 H   0  0  0  0  0  0  0  0  0  0  0  0
    2.1371   -1.8708    0.5130 H   0  0  0  0  0  0  0  0  0  0  0  0
    0.8729   -1.4131   -0.6634 H   0  0  0  0  0  0  0  0  0  0  0  0
    2.9675   -1.8324   -1.8491 H   0  0  0  0  0  0  0  0  0  0  0  0
    3.0942   -3.4467   -1.1506 H   0  0  0  0  0  0  0  0  0  0  0  0
    1.7854   -3.0761   -2.2790 H   0  0  0  0  0  0  0  0  0  0  0  0
   -0.2850   -0.9998    0.9861 H   0  0  0  0  0  0  0  0  0  0  0  0
   -0.9091    0.4727    0.1934 H   0  0  0  0  0  0  0  0  0  0  0  0
   -1.6390    0.2632    2.5809 H   0  0  0  0  0  0  0  0  0  0  0  0
   -3.0218    0.2489    1.4868 H   0  0  0  0  0  0  0  0  0  0  0  0
   -2.4445   -1.2637    2.1962 H   0  0  0  0  0  0  0  0  0  0  0  0
   -2.6738    5.8965   -0.9230 H   0  0  0  0  0  0  0  0  0  0  0  0
   -1.1068    7.7805   -0.7028 H   0  0  0  0  0  0  0  0  0  0  0  0
    1.1678    8.6936   -1.4293 H   0  0  0  0  0  0  0  0  0  0  0  0
    0.2345    9.4902   -2.6928 H   0  0  0  0  0  0  0  0  0  0  0  0
    1.6342    8.5050   -3.1281 H   0  0  0  0  0  0  0  0  0  0  0  0
    0.6688    6.7401   -4.4381 H   0  0  0  0  0  0  0  0  0  0  0  0
   -0.9051    4.8663   -4.6691 H   0  0  0  0  0  0  0  0  0  0  0  0
   -4.1931    2.5986   -4.6073 H   0  0  0  0  0  0  0  0  0  0  0  0
   -3.5263    0.3113   -5.1920 H   0  0  0  0  0  0  0  0  0  0  0  0
   -1.4734   -1.2673   -5.4780 H   0  0  0  0  0  0  0  0  0  0  0  0
   -1.9612   -1.7276   -3.8510 H   0  0  0  0  0  0  0  0  0  0  0  0
   -0.2885   -1.2561   -4.1642 H   0  0  0  0  0  0  0  0  0  0  0  0
    0.1049    0.7948   -3.0153 H   0  0  0  0  0  0  0  0  0  0  0  0
   -0.5606    3.0777   -2.4092 H   0  0  0  0  0  0  0  0  0  0  0  0
   -8.0689    5.7960   -4.7717 H   0  0  0  0  0  0  0  0  0  0  0  0
   -9.8368    4.1558   -5.2147 H   0  0  0  0  0  0  0  0  0  0  0  0
  -12.9433    4.2715   -4.2061 H   0  0  0  0  0  0  0  0  0  0  0  0
  -11.8043    2.9595   -4.5037 H   0  0  0  0  0  0  0  0  0  0  0  0
  -12.4660    3.2204   -2.8796 H   0  0  0  0  0  0  0  0  0  0  0  0
  -11.8457    5.3503   -1.6456 H   0  0  0  0  0  0  0  0  0  0  0  0
  -10.0600    6.9688   -1.1782 H   0  0  0  0  0  0  0  0  0  0  0  0
   -6.6636    8.9022   -0.8994 H   0  0  0  0  0  0  0  0  0  0  0  0
   -7.3437   11.0842   -0.0104 H   0  0  0  0  0  0  0  0  0  0  0  0
  -10.5726   12.5092   -0.2730 H   0  0  0  0  0  0  0  0  0  0  0  0
   -9.5249   13.2817   -1.4554 H   0  0  0  0  0  0  0  0  0  0  0  0
   -8.8929   12.8768    0.1443 H   0  0  0  0  0  0  0  0  0  0  0  0
  -10.8440   10.9925   -2.4474 H   0  0  0  0  0  0  0  0  0  0  0  0
  -10.1581    8.8234   -3.3606 H   0  0  0  0  0  0  0  0  0  0  0  0
   -7.0042    9.5842   -3.9046 H   0  0  0  0  0  0  0  0  0  0  0  0
   -1.1000   11.6486   -4.4848 H   0  0  0  0  0  0  0  0  0  0  0  0
   -0.8344   14.0260   -5.1986 H   0  0  0  0  0  0  0  0  0  0  0  0
   -5.0751   14.4312   -5.5942 H   0  0  0  0  0  0  0  0  0  0  0  0
  1  2  2  0  0  0  0
  2  3  1  0  0  0  0
  3  4  3  0  0  0  0
  2  5  1  0  0  0  0
  5  6  3  0  0  0  0
  1  7  1  0  0  0  0
  7  8  2  0  0  0  0
  8  9  1  0  0  0  0
  9 10  1  0  0  0  0
 10 11  2  0  0  0  0
 11 12  1  0  0  0  0
 12 13  2  0  0  0  0
 13 14  1  0  0  0  0
 13 15  1  0  0  0  0
 15 16  2  0  0  0  0
  9 17  1  0  0  0  0
 17 18  2  0  0  0  0
 18 19  1  0  0  0  0
 19 20  2  0  0  0  0
 20 21  1  0  0  0  0
 20 22  1  0  0  0  0
 22 23  2  0  0  0  0
  8 24  1  0  0  0  0
 24 25  1  0  0  0  0
 25 26  1  0  0  0  0
 26 27  2  0  0  0  0
 27 28  1  0  0  0  0
 28 29  1  0  0  0  0
 29 30  2  0  0  0  0
 30 31  1  0  0  0  0
 31 32  2  0  0  0  0
 32 33  1  0  0  0  0
 32 34  1  0  0  0  0
 34 35  2  0  0  0  0
 28 36  1  0  0  0  0
 36 37  2  0  0  0  0
 37 38  1  0  0  0  0
 38 39  2  0  0  0  0
 39 40  1  0  0  0  0
 39 41  1  0  0  0  0
 41 42  2  0  0  0  0
 27 43  1  0  0  0  0
 43 44  1  0  0  0  0
 26 45  1  0  0  0  0
 45 46  2  0  0  0  0
 46 47  1  0  0  0  0
 47 48  2  0  0  0  0
 48 49  1  0  0  0  0
 49 50  2  0  0  0  0
 50 51  1  0  0  0  0
 51 52  1  0  0  0  0
 52 53  1  0  0  0  0
 51 54  2  0  0  0  0
 46 55  1  0  0  0  0
 55 56  1  0  0  0  0
 56 57  1  0  0  0  0
 57 58  1  0  0  0  0
 58 59  1  0  0  0  0
 59 60  1  0  0  0  0
 60 61  2  0  0  0  0
 61 62  1  0  0  0  0
 62 63  1  0  0  0  0
 60 64  1  0  0  0  0
 64 65  1  0  0  0  0
 65 66  1  0  0  0  0
 66 67  1  0  0  0  0
 67 68  1  0  0  0  0
 68 69  1  0  0  0  0
 69 70  2  0  0  0  0
 70 71  1  0  0  0  0
 71 72  2  0  0  0  0
 72 73  1  0  0  0  0
 73 74  1  0  0  0  0
 74 75  1  0  0  0  0
 73 76  2  0  0  0  0
 68 77  2  0  0  0  0
 77 78  1  0  0  0  0
 78 79  1  0  0  0  0
 79 80  1  0  0  0  0
 80 81  1  0  0  0  0
 81 82  1  0  0  0  0
 82 83  1  0  0  0  0
 83 84  1  0  0  0  0
 84 85  1  0  0  0  0
 85 86  1  0  0  0  0
 86 87  1  0  0  0  0
 84 88  1  0  0  0  0
 88 89  1  0  0  0  0
 81 90  1  0  0  0  0
 90 91  1  0  0  0  0
 77 92  1  0  0  0  0
 92 93  2  0  0  0  0
 93 94  1  0  0  0  0
 94 95  1  0  0  0  0
 95 96  2  0  0  0  0
 96 97  1  0  0  0  0
 97 98  2  0  0  0  0
 98 99  1  0  0  0  0
 98100  1  0  0  0  0
100101  2  0  0  0  0
 94102  1  0  0  0  0
102103  2  0  0  0  0
103104  1  0  0  0  0
104105  2  0  0  0  0
105106  1  0  0  0  0
105107  1  0  0  0  0
107108  2  0  0  0  0
 93109  1  0  0  0  0
109110  1  0  0  0  0
110111  1  0  0  0  0
111112  2  0  0  0  0
112113  1  0  0  0  0
113114  1  0  0  0  0
114115  2  0  0  0  0
115116  1  0  0  0  0
116117  2  0  0  0  0
117118  1  0  0  0  0
117119  1  0  0  0  0
119120  2  0  0  0  0
113121  1  0  0  0  0
121122  2  0  0  0  0
122123  1  0  0  0  0
123124  2  0  0  0  0
124125  1  0  0  0  0
124126  1  0  0  0  0
126127  2  0  0  0  0
112128  1  0  0  0  0
128129  1  0  0  0  0
111130  1  0  0  0  0
130131  2  0  0  0  0
131132  1  0  0  0  0
132133  2  0  0  0  0
132134  1  0  0  0  0
134135  2  0  0  0  0
135136  1  0  0  0  0
136137  2  0  0  0  0
137138  1  0  0  0  0
137139  1  0  0  0  0
139140  2  0  0  0  0
140141  1  0  0  0  0
141142  2  0  0  0  0
142143  1  0  0  0  0
143144  3  0  0  0  0
142145  1  0  0  0  0
145146  3  0  0  0  0
 44  7  1  0  0  0  0
 87 45  1  0  0  0  0
129 92  1  0  0  0  0
141131  1  0  0  0  0
 16 10  1  0  0  0  0
 23 17  1  0  0  0  0
 43 24  2  0  0  0  0
 54 47  1  0  0  0  0
 86 55  2  0  0  0  0
101 95  1  0  0  0  0
108102  1  0  0  0  0
128109  2  0  0  0  0
140134  1  0  0  0  0
 35 29  1  0  0  0  0
 42 36  1  0  0  0  0
 85 57  2  0  0  0  0
120114  1  0  0  0  0
127121  1  0  0  0  0
 83 58  2  0  0  0  0
 63 59  2  0  0  0  0
 82 64  2  0  0  0  0
 80 65  2  0  0  0  0
 79 67  2  0  0  0  0
 76 69  1  0  0  0  0
  1147  1  0  0  0  0
 11148  1  0  0  0  0
 12149  1  0  0  0  0
 14150  1  0  0  0  0
 14151  1  0  0  0  0
 14152  1  0  0  0  0
 15153  1  0  0  0  0
 16154  1  0  0  0  0
 18155  1  0  0  0  0
 19156  1  0  0  0  0
 21157  1  0  0  0  0
 21158  1  0  0  0  0
 21159  1  0  0  0  0
 22160  1  0  0  0  0
 23161  1  0  0  0  0
 30162  1  0  0  0  0
 31163  1  0  0  0  0
 33164  1  0  0  0  0
 33165  1  0  0  0  0
 33166  1  0  0  0  0
 34167  1  0  0  0  0
 35168  1  0  0  0  0
 37169  1  0  0  0  0
 38170  1  0  0  0  0
 40171  1  0  0  0  0
 40172  1  0  0  0  0
 40173  1  0  0  0  0
 41174  1  0  0  0  0
 42175  1  0  0  0  0
 48176  1  0  0  0  0
 49177  1  0  0  0  0
 50178  1  0  0  0  0
 52179  1  0  0  0  0
 52180  1  0  0  0  0
 53181  1  0  0  0  0
 53182  1  0  0  0  0
 53183  1  0  0  0  0
 54184  1  0  0  0  0
 70185  1  0  0  0  0
 71186  1  0  0  0  0
 72187  1  0  0  0  0
 74188  1  0  0  0  0
 74189  1  0  0  0  0
 75190  1  0  0  0  0
 75191  1  0  0  0  0
 75192  1  0  0  0  0
 76193  1  0  0  0  0
 88194  1  0  0  0  0
 88195  1  0  0  0  0
 89196  1  0  0  0  0
 89197  1  0  0  0  0
 89198  1  0  0  0  0
 90199  1  0  0  0  0
 90200  1  0  0  0  0
 91201  1  0  0  0  0
 91202  1  0  0  0  0
 91203  1  0  0  0  0
 96204  1  0  0  0  0
 97205  1  0  0  0  0
 99206  1  0  0  0  0
 99207  1  0  0  0  0
 99208  1  0  0  0  0
100209  1  0  0  0  0
101210  1  0  0  0  0
103211  1  0  0  0  0
104212  1  0  0  0  0
106213  1  0  0  0  0
106214  1  0  0  0  0
106215  1  0  0  0  0
107216  1  0  0  0  0
108217  1  0  0  0  0
115218  1  0  0  0  0
116219  1  0  0  0  0
118220  1  0  0  0  0
118221  1  0  0  0  0
118222  1  0  0  0  0
119223  1  0  0  0  0
120224  1  0  0  0  0
122225  1  0  0  0  0
123226  1  0  0  0  0
125227  1  0  0  0  0
125228  1  0  0  0  0
125229  1  0  0  0  0
126230  1  0  0  0  0
127231  1  0  0  0  0
130232  1  0  0  0  0
135233  1  0  0  0  0
136234  1  0  0  0  0
139235  1  0  0  0  0
M  END
