117

C         -5.76770        9.94450       -0.06960
C         -6.32320       10.47030        1.06220
C         -6.92890       11.74480        1.02850
N         -7.41560       12.78270        0.99440
C         -6.35380        9.84320        2.32310
N         -6.40960        9.38120        3.37280
C         -5.12180        8.69930       -0.20390
C         -4.56530        8.20190       -1.36940
C         -3.97580        6.95160       -1.21270
S         -3.17500        6.10290       -2.54330
C         -1.46710        6.73970       -2.32770
C         -1.35070        8.21340       -2.65590
C         -4.09000        6.43700        0.07720
S         -4.91930        7.56130        1.11080
C         -3.60290        5.20780        0.58070
C         -3.77500        4.69940        1.86120
C         -4.60920        5.31740        2.90230
C         -5.99600        5.23210        2.81980
C         -6.77490        5.81370        3.80140
C         -6.18110        6.48180        4.85720
C         -4.79870        6.56140        4.95950
C         -4.15280        7.33310        6.07220
C         -3.84770        8.75770        5.60420
C         -4.01920        5.96650        3.97810
C         -3.07570        3.50030        2.03880
S         -2.89790        2.43220        3.41030
C         -1.88450        1.41210        2.44620
C         -1.12920        0.23320        2.57770
C         -0.79390       -0.58130        3.68370
C          0.16460       -1.64240        3.51020
N          0.43810       -2.26280        4.64680
S         -0.43480       -1.58560        5.82870
N         -1.19550       -0.46820        4.93960
C          0.63380       -1.94260        2.21080
C          1.44810       -2.96690        1.69390
S          2.42020       -4.27920        2.26710
C          2.80280       -4.68160        0.61270
C          3.61200       -5.67720        0.04500
C          4.37860       -6.66700        0.81840
C          3.75870       -7.80660        1.31510
C          4.50260       -8.73270        2.02250
C          5.85180       -8.52400        2.24200
C          6.47870       -7.37840        1.76970
C          7.95050       -7.16410        1.96870
C          8.71930       -7.64610        0.73730
C          5.73090       -6.45450        1.05570
C          3.61800       -5.60080       -1.33490
S          2.61880       -4.27840       -1.93730
C          2.19480       -3.83660       -0.32190
C          1.42320       -2.84980        0.29820
N          0.64630       -1.77890       -0.07370
C          0.18470       -1.19450        1.09310
C         -0.55720       -0.01340        1.30260
N         -0.89430        1.01090        0.43710
C         -1.70610        1.87210        1.13460
C         -2.38060        3.07310        0.90200
S         -2.59900        4.16150       -0.42190
C         -0.10120        1.49370       -0.67540
C          0.79460        2.65820       -0.25340
C         -0.03340       -1.77420       -1.35400
C         -0.89360       -3.02530       -1.53060
C          4.28270       -6.44500       -2.26070
C          4.26880       -6.31540       -3.63580
C          4.98960       -7.31350       -4.29290
S          5.21700       -7.46150       -6.02090
C          3.94870       -6.34370       -6.71310
C          2.54210       -6.87030       -6.50600
C          5.57710       -8.22960       -3.41360
S          5.21500       -7.81620       -1.75140
C          6.34900       -9.34080       -3.78780
C          6.94150      -10.25630       -2.96100
C          6.89030      -10.23450       -1.55530
N          6.88350      -10.26420       -0.40670
C          7.67920      -11.32880       -3.50360
N          8.27910      -12.20030       -3.94750
H         -5.82080       10.54380       -0.97140
H         -4.58870        8.72520       -2.30870
H         -0.87300        6.13300       -3.00950
H         -1.16430        6.52850       -1.30230
H         -1.94450        8.81020       -1.96610
H         -0.31160        8.52680       -2.57510
H         -1.69490        8.40460       -3.66970
H         -6.45130        4.71490        1.98730
H         -7.85100        5.75070        3.73850
H         -6.79720        6.95060        5.60900
H         -4.82330        7.37200        6.93210
H         -3.22640        6.84270        6.38030
H         -3.12620        8.74250        4.78980
H         -4.75600        9.23340        5.24220
H         -3.43870        9.34850        6.42060
H         -2.94090        6.01870        4.03960
H          2.70550       -7.96590        1.13500
H          4.02650       -9.62520        2.39980
H          6.42730       -9.25960        2.78280
H          8.28950       -7.71930        2.84460
H          8.15420       -6.10350        2.13380
H          8.49050       -8.69100        0.54220
H          8.43300       -7.06760       -0.13890
H          9.79080       -7.54040        0.88990
H          6.20120       -5.55870        0.67350
H          0.53370        0.68810       -1.03860
H         -0.77870        1.81690       -1.47240
H          0.20160        3.51070        0.06450
H          1.44070        2.35570        0.56790
H          1.41410        2.96210       -1.09240
H          0.71730       -1.72430       -2.14960
H         -0.68300       -0.90250       -1.40830
H         -1.43470       -2.96400       -2.47070
H         -1.61230       -3.10340       -0.71760
H         -0.28150       -3.92260       -1.54270
H          3.75130       -5.50620       -4.11820
H          4.09220       -5.35380       -6.28240
H          4.19680       -6.30300       -7.77360
H          2.43580       -7.85070       -6.96440
H          2.30840       -6.95880       -5.44730
H          1.82490       -6.19210       -6.96390
H          6.47890       -9.47860       -4.85550
