
  xtb     02242201463D
 energy: -198.172559711805 gnorm: 0.000824156894 xtb: 6.4.1 (unknown)
117128  0     0  0            999 V2000
   -5.7677    9.9445   -0.0696 C   0  0  0  0  0  0  0  0  0  0  0  0
   -6.3232   10.4703    1.0622 C   0  0  0  0  0  0  0  0  0  0  0  0
   -6.9289   11.7448    1.0285 C   0  0  0  0  0  0  0  0  0  0  0  0
   -7.4156   12.7827    0.9944 N   0  0  0  0  0  0  0  0  0  0  0  0
   -6.3538    9.8432    2.3231 C   0  0  0  0  0  0  0  0  0  0  0  0
   -6.4096    9.3812    3.3728 N   0  0  0  0  0  0  0  0  0  0  0  0
   -5.1218    8.6993   -0.2039 C   0  0  0  0  0  0  0  0  0  0  0  0
   -4.5653    8.2019   -1.3694 C   0  0  0  0  0  0  0  0  0  0  0  0
   -3.9758    6.9516   -1.2127 C   0  0  0  0  0  0  0  0  0  0  0  0
   -3.1750    6.1029   -2.5433 S   0  0  0  0  0  0  0  0  0  0  0  0
   -1.4671    6.7397   -2.3277 C   0  0  0  0  0  0  0  0  0  0  0  0
   -1.3507    8.2134   -2.6559 C   0  0  0  0  0  0  0  0  0  0  0  0
   -4.0900    6.4370    0.0772 C   0  0  0  0  0  0  0  0  0  0  0  0
   -4.9193    7.5613    1.1108 S   0  0  0  0  0  0  0  0  0  0  0  0
   -3.6029    5.2078    0.5807 C   0  0  0  0  0  0  0  0  0  0  0  0
   -3.7750    4.6994    1.8612 C   0  0  0  0  0  0  0  0  0  0  0  0
   -4.6092    5.3174    2.9023 C   0  0  0  0  0  0  0  0  0  0  0  0
   -5.9960    5.2321    2.8198 C   0  0  0  0  0  0  0  0  0  0  0  0
   -6.7749    5.8137    3.8014 C   0  0  0  0  0  0  0  0  0  0  0  0
   -6.1811    6.4818    4.8572 C   0  0  0  0  0  0  0  0  0  0  0  0
   -4.7987    6.5614    4.9595 C   0  0  0  0  0  0  0  0  0  0  0  0
   -4.1528    7.3331    6.0722 C   0  0  0  0  0  0  0  0  0  0  0  0
   -3.8477    8.7577    5.6042 C   0  0  0  0  0  0  0  0  0  0  0  0
   -4.0192    5.9665    3.9781 C   0  0  0  0  0  0  0  0  0  0  0  0
   -3.0757    3.5003    2.0388 C   0  0  0  0  0  0  0  0  0  0  0  0
   -2.8979    2.4322    3.4103 S   0  0  0  0  0  0  0  0  0  0  0  0
   -1.8845    1.4121    2.4462 C   0  0  0  0  0  0  0  0  0  0  0  0
   -1.1292    0.2332    2.5777 C   0  0  0  0  0  0  0  0  0  0  0  0
   -0.7939   -0.5813    3.6837 C   0  0  0  0  0  0  0  0  0  0  0  0
    0.1646   -1.6424    3.5102 C   0  0  0  0  0  0  0  0  0  0  0  0
    0.4381   -2.2628    4.6468 N   0  0  0  0  0  0  0  0  0  0  0  0
   -0.4348   -1.5856    5.8287 S   0  0  0  0  0  0  0  0  0  0  0  0
   -1.1955   -0.4682    4.9396 N   0  0  0  0  0  0  0  0  0  0  0  0
    0.6338   -1.9426    2.2108 C   0  0  0  0  0  0  0  0  0  0  0  0
    1.4481   -2.9669    1.6939 C   0  0  0  0  0  0  0  0  0  0  0  0
    2.4202   -4.2792    2.2671 S   0  0  0  0  0  0  0  0  0  0  0  0
    2.8028   -4.6816    0.6127 C   0  0  0  0  0  0  0  0  0  0  0  0
    3.6120   -5.6772    0.0450 C   0  0  0  0  0  0  0  0  0  0  0  0
    4.3786   -6.6670    0.8184 C   0  0  0  0  0  0  0  0  0  0  0  0
    3.7587   -7.8066    1.3151 C   0  0  0  0  0  0  0  0  0  0  0  0
    4.5026   -8.7327    2.0225 C   0  0  0  0  0  0  0  0  0  0  0  0
    5.8518   -8.5240    2.2420 C   0  0  0  0  0  0  0  0  0  0  0  0
    6.4787   -7.3784    1.7697 C   0  0  0  0  0  0  0  0  0  0  0  0
    7.9505   -7.1641    1.9687 C   0  0  0  0  0  0  0  0  0  0  0  0
    8.7193   -7.6461    0.7373 C   0  0  0  0  0  0  0  0  0  0  0  0
    5.7309   -6.4545    1.0557 C   0  0  0  0  0  0  0  0  0  0  0  0
    3.6180   -5.6008   -1.3349 C   0  0  0  0  0  0  0  0  0  0  0  0
    2.6188   -4.2784   -1.9373 S   0  0  0  0  0  0  0  0  0  0  0  0
    2.1948   -3.8366   -0.3219 C   0  0  0  0  0  0  0  0  0  0  0  0
    1.4232   -2.8498    0.2982 C   0  0  0  0  0  0  0  0  0  0  0  0
    0.6463   -1.7789   -0.0737 N   0  0  0  0  0  0  0  0  0  0  0  0
    0.1847   -1.1945    1.0931 C   0  0  0  0  0  0  0  0  0  0  0  0
   -0.5572   -0.0134    1.3026 C   0  0  0  0  0  0  0  0  0  0  0  0
   -0.8943    1.0109    0.4371 N   0  0  0  0  0  0  0  0  0  0  0  0
   -1.7061    1.8721    1.1346 C   0  0  0  0  0  0  0  0  0  0  0  0
   -2.3806    3.0731    0.9020 C   0  0  0  0  0  0  0  0  0  0  0  0
   -2.5990    4.1615   -0.4219 S   0  0  0  0  0  0  0  0  0  0  0  0
   -0.1012    1.4937   -0.6754 C   0  0  0  0  0  0  0  0  0  0  0  0
    0.7946    2.6582   -0.2534 C   0  0  0  0  0  0  0  0  0  0  0  0
   -0.0334   -1.7742   -1.3540 C   0  0  0  0  0  0  0  0  0  0  0  0
   -0.8936   -3.0253   -1.5306 C   0  0  0  0  0  0  0  0  0  0  0  0
    4.2827   -6.4450   -2.2607 C   0  0  0  0  0  0  0  0  0  0  0  0
    4.2688   -6.3154   -3.6358 C   0  0  0  0  0  0  0  0  0  0  0  0
    4.9896   -7.3135   -4.2929 C   0  0  0  0  0  0  0  0  0  0  0  0
    5.2170   -7.4615   -6.0209 S   0  0  0  0  0  0  0  0  0  0  0  0
    3.9487   -6.3437   -6.7131 C   0  0  0  0  0  0  0  0  0  0  0  0
    2.5421   -6.8703   -6.5060 C   0  0  0  0  0  0  0  0  0  0  0  0
    5.5771   -8.2296   -3.4136 C   0  0  0  0  0  0  0  0  0  0  0  0
    5.2150   -7.8162   -1.7514 S   0  0  0  0  0  0  0  0  0  0  0  0
    6.3490   -9.3408   -3.7878 C   0  0  0  0  0  0  0  0  0  0  0  0
    6.9415  -10.2563   -2.9610 C   0  0  0  0  0  0  0  0  0  0  0  0
    6.8903  -10.2345   -1.5553 C   0  0  0  0  0  0  0  0  0  0  0  0
    6.8835  -10.2642   -0.4067 N   0  0  0  0  0  0  0  0  0  0  0  0
    7.6792  -11.3288   -3.5036 C   0  0  0  0  0  0  0  0  0  0  0  0
    8.2791  -12.2003   -3.9475 N   0  0  0  0  0  0  0  0  0  0  0  0
   -5.8208   10.5438   -0.9714 H   0  0  0  0  0  0  0  0  0  0  0  0
   -4.5887    8.7252   -2.3087 H   0  0  0  0  0  0  0  0  0  0  0  0
   -0.8730    6.1330   -3.0095 H   0  0  0  0  0  0  0  0  0  0  0  0
   -1.1643    6.5285   -1.3023 H   0  0  0  0  0  0  0  0  0  0  0  0
   -1.9445    8.8102   -1.9661 H   0  0  0  0  0  0  0  0  0  0  0  0
   -0.3116    8.5268   -2.5751 H   0  0  0  0  0  0  0  0  0  0  0  0
   -1.6949    8.4046   -3.6697 H   0  0  0  0  0  0  0  0  0  0  0  0
   -6.4513    4.7149    1.9873 H   0  0  0  0  0  0  0  0  0  0  0  0
   -7.8510    5.7507    3.7385 H   0  0  0  0  0  0  0  0  0  0  0  0
   -6.7972    6.9506    5.6090 H   0  0  0  0  0  0  0  0  0  0  0  0
   -4.8233    7.3720    6.9321 H   0  0  0  0  0  0  0  0  0  0  0  0
   -3.2264    6.8427    6.3803 H   0  0  0  0  0  0  0  0  0  0  0  0
   -3.1262    8.7425    4.7898 H   0  0  0  0  0  0  0  0  0  0  0  0
   -4.7560    9.2334    5.2422 H   0  0  0  0  0  0  0  0  0  0  0  0
   -3.4387    9.3485    6.4206 H   0  0  0  0  0  0  0  0  0  0  0  0
   -2.9409    6.0187    4.0396 H   0  0  0  0  0  0  0  0  0  0  0  0
    2.7055   -7.9659    1.1350 H   0  0  0  0  0  0  0  0  0  0  0  0
    4.0265   -9.6252    2.3998 H   0  0  0  0  0  0  0  0  0  0  0  0
    6.4273   -9.2596    2.7828 H   0  0  0  0  0  0  0  0  0  0  0  0
    8.2895   -7.7193    2.8446 H   0  0  0  0  0  0  0  0  0  0  0  0
    8.1542   -6.1035    2.1338 H   0  0  0  0  0  0  0  0  0  0  0  0
    8.4905   -8.6910    0.5422 H   0  0  0  0  0  0  0  0  0  0  0  0
    8.4330   -7.0676   -0.1389 H   0  0  0  0  0  0  0  0  0  0  0  0
    9.7908   -7.5404    0.8899 H   0  0  0  0  0  0  0  0  0  0  0  0
    6.2012   -5.5587    0.6735 H   0  0  0  0  0  0  0  0  0  0  0  0
    0.5337    0.6881   -1.0386 H   0  0  0  0  0  0  0  0  0  0  0  0
   -0.7787    1.8169   -1.4724 H   0  0  0  0  0  0  0  0  0  0  0  0
    0.2016    3.5107    0.0645 H   0  0  0  0  0  0  0  0  0  0  0  0
    1.4407    2.3557    0.5679 H   0  0  0  0  0  0  0  0  0  0  0  0
    1.4141    2.9621   -1.0924 H   0  0  0  0  0  0  0  0  0  0  0  0
    0.7173   -1.7243   -2.1496 H   0  0  0  0  0  0  0  0  0  0  0  0
   -0.6830   -0.9025   -1.4083 H   0  0  0  0  0  0  0  0  0  0  0  0
   -1.4347   -2.9640   -2.4707 H   0  0  0  0  0  0  0  0  0  0  0  0
   -1.6123   -3.1034   -0.7176 H   0  0  0  0  0  0  0  0  0  0  0  0
   -0.2815   -3.9226   -1.5427 H   0  0  0  0  0  0  0  0  0  0  0  0
    3.7513   -5.5062   -4.1182 H   0  0  0  0  0  0  0  0  0  0  0  0
    4.0922   -5.3538   -6.2824 H   0  0  0  0  0  0  0  0  0  0  0  0
    4.1968   -6.3030   -7.7736 H   0  0  0  0  0  0  0  0  0  0  0  0
    2.4358   -7.8507   -6.9644 H   0  0  0  0  0  0  0  0  0  0  0  0
    2.3084   -6.9588   -5.4473 H   0  0  0  0  0  0  0  0  0  0  0  0
    1.8249   -6.1921   -6.9639 H   0  0  0  0  0  0  0  0  0  0  0  0
    6.4789   -9.4786   -4.8555 H   0  0  0  0  0  0  0  0  0  0  0  0
  1  2  2  0  0  0  0
  2  3  1  0  0  0  0
  3  4  3  0  0  0  0
  2  5  1  0  0  0  0
  5  6  3  0  0  0  0
  1  7  1  0  0  0  0
  7  8  2  0  0  0  0
  8  9  1  0  0  0  0
  9 10  1  0  0  0  0
 10 11  1  0  0  0  0
 11 12  1  0  0  0  0
  9 13  2  0  0  0  0
 13 14  1  0  0  0  0
 13 15  1  0  0  0  0
 15 16  2  0  0  0  0
 16 17  1  0  0  0  0
 17 18  2  0  0  0  0
 18 19  1  0  0  0  0
 19 20  2  0  0  0  0
 20 21  1  0  0  0  0
 21 22  1  0  0  0  0
 22 23  1  0  0  0  0
 21 24  2  0  0  0  0
 16 25  1  0  0  0  0
 25 26  1  0  0  0  0
 26 27  1  0  0  0  0
 27 28  1  0  0  0  0
 28 29  1  0  0  0  0
 29 30  1  0  0  0  0
 30 31  2  0  0  0  0
 31 32  1  0  0  0  0
 32 33  1  0  0  0  0
 30 34  1  0  0  0  0
 34 35  1  0  0  0  0
 35 36  1  0  0  0  0
 36 37  1  0  0  0  0
 37 38  1  0  0  0  0
 38 39  1  0  0  0  0
 39 40  2  0  0  0  0
 40 41  1  0  0  0  0
 41 42  2  0  0  0  0
 42 43  1  0  0  0  0
 43 44  1  0  0  0  0
 44 45  1  0  0  0  0
 43 46  2  0  0  0  0
 38 47  2  0  0  0  0
 47 48  1  0  0  0  0
 48 49  1  0  0  0  0
 49 50  1  0  0  0  0
 50 51  1  0  0  0  0
 51 52  1  0  0  0  0
 52 53  1  0  0  0  0
 53 54  1  0  0  0  0
 54 55  1  0  0  0  0
 55 56  1  0  0  0  0
 56 57  1  0  0  0  0
 54 58  1  0  0  0  0
 58 59  1  0  0  0  0
 51 60  1  0  0  0  0
 60 61  1  0  0  0  0
 47 62  1  0  0  0  0
 62 63  2  0  0  0  0
 63 64  1  0  0  0  0
 64 65  1  0  0  0  0
 65 66  1  0  0  0  0
 66 67  1  0  0  0  0
 64 68  2  0  0  0  0
 68 69  1  0  0  0  0
 68 70  1  0  0  0  0
 70 71  2  0  0  0  0
 71 72  1  0  0  0  0
 72 73  3  0  0  0  0
 71 74  1  0  0  0  0
 74 75  3  0  0  0  0
 14  7  1  0  0  0  0
 57 15  1  0  0  0  0
 69 62  1  0  0  0  0
 24 17  1  0  0  0  0
 56 25  2  0  0  0  0
 55 27  2  0  0  0  0
 53 28  2  0  0  0  0
 33 29  2  0  0  0  0
 52 34  2  0  0  0  0
 50 35  2  0  0  0  0
 49 37  2  0  0  0  0
 46 39  1  0  0  0  0
  1 76  1  0  0  0  0
  8 77  1  0  0  0  0
 11 78  1  0  0  0  0
 11 79  1  0  0  0  0
 12 80  1  0  0  0  0
 12 81  1  0  0  0  0
 12 82  1  0  0  0  0
 18 83  1  0  0  0  0
 19 84  1  0  0  0  0
 20 85  1  0  0  0  0
 22 86  1  0  0  0  0
 22 87  1  0  0  0  0
 23 88  1  0  0  0  0
 23 89  1  0  0  0  0
 23 90  1  0  0  0  0
 24 91  1  0  0  0  0
 40 92  1  0  0  0  0
 41 93  1  0  0  0  0
 42 94  1  0  0  0  0
 44 95  1  0  0  0  0
 44 96  1  0  0  0  0
 45 97  1  0  0  0  0
 45 98  1  0  0  0  0
 45 99  1  0  0  0  0
 46100  1  0  0  0  0
 58101  1  0  0  0  0
 58102  1  0  0  0  0
 59103  1  0  0  0  0
 59104  1  0  0  0  0
 59105  1  0  0  0  0
 60106  1  0  0  0  0
 60107  1  0  0  0  0
 61108  1  0  0  0  0
 61109  1  0  0  0  0
 61110  1  0  0  0  0
 63111  1  0  0  0  0
 66112  1  0  0  0  0
 66113  1  0  0  0  0
 67114  1  0  0  0  0
 67115  1  0  0  0  0
 67116  1  0  0  0  0
 70117  1  0  0  0  0
M  END
