199

C          6.22290        9.47190       -3.24090
C          7.46840       10.00090       -3.23720
S          9.02740        9.23790       -3.38200
C          9.82410       10.79520       -3.13100
C         11.18850       10.88030       -3.04390
C         11.91790       12.05040       -2.76890
N         12.56830       12.96440       -2.52300
C         11.95580        9.70810       -3.19760
N         12.57960        8.75430       -3.33100
N          8.93870       11.81930       -3.01880
C          9.31990       13.19070       -2.92300
C          9.89260       13.81690       -4.02040
C         10.25170       15.14840       -3.92710
C         10.02970       15.84690       -2.75250
C          9.44110       15.21870       -1.66860
C          9.08130       13.88550       -1.74860
C          7.60360       11.45840       -3.05420
O          6.69120       12.24350       -2.93980
C          5.75670        8.12620       -3.35520
C          4.38650        7.86890       -3.20580
O          3.51060        8.88070       -2.92230
C          3.41820        9.26210       -1.55260
C          2.79260        8.18000       -0.68260
C          3.85460        6.58120       -3.41690
O          2.49900        6.41010       -3.27990
C          1.77010        6.31310       -4.49780
C          1.80010        7.60130       -5.30810
C          4.67060        5.49590       -3.72930
C          6.07630        5.70830       -3.78790
C          6.60360        7.02150       -3.64620
N          7.92210        7.21270       -3.78270
C          8.70470        6.18780       -4.00040
C          8.18290        4.88540       -4.03920
N          6.90020        4.65920       -3.93580
C          4.11960        4.17910       -3.91660
C          4.53120        3.18490       -4.78520
C          5.53370        3.36300       -5.83400
C          6.44880        2.35140       -6.10890
C          7.40880        2.53710       -7.08520
C          7.46460        3.72290       -7.79550
C          6.54560        4.73640       -7.54940
C          6.57140        6.00530       -8.35290
C          5.74170        5.84850       -9.62860
C          5.57830        4.53930       -6.57810
C          3.79810        1.99880       -4.57930
S          3.82630        0.43500       -5.36100
C          2.55160       -0.08560       -4.31240
C          1.76240       -1.22080       -4.07730
C          1.69080       -2.45270       -4.76340
C          0.69980       -3.40950       -4.36750
N          0.71200       -4.49440       -5.12580
S          1.87500       -4.32780       -6.23990
N          2.40700       -2.86390       -5.79820
C         -0.10140       -3.13300       -3.23790
C         -1.03660       -3.92850       -2.56170
S         -1.78570       -5.48430       -2.69160
C         -2.63470       -5.17300       -1.19100
C         -3.51120       -5.94390       -0.41250
C         -3.83350       -7.33720       -0.71140
C         -4.16450       -7.72360       -2.00700
C         -4.46850       -9.04480       -2.27120
C         -4.44250       -9.98570       -1.25650
C         -4.09060       -9.62290        0.03800
C         -4.09510      -10.62770        1.15430
C         -5.31110      -10.42140        2.05930
C         -3.77910       -8.29730        0.29580
C         -3.90780       -5.25010        0.73210
S         -3.10430       -3.70010        0.89090
C         -2.33840       -3.92080       -0.63850
C         -1.42870       -3.21170       -1.42580
N         -0.79970       -1.99750       -1.39180
C          0.02330       -1.91640       -2.50140
C          0.89350       -0.90690       -2.99190
N          1.13490        0.40450       -2.61120
C          2.12930        0.89550       -3.41180
C          2.83660        2.09420       -3.57040
S          2.80590        3.67390       -2.87190
C          0.32010        1.32470       -1.84890
C         -1.07450        1.47070       -2.45230
C         -0.81170       -1.22730       -0.16800
C          0.54150       -1.27680        0.53720
C         -4.86170       -5.60930        1.72910
C         -4.78310       -5.02220        3.03230
N         -3.85750       -4.09010        3.25800
C         -3.73870       -3.54310        4.44580
C         -2.66270       -2.54980        4.59520
C         -1.71740       -2.61240        5.61130
C         -0.68370       -1.69150        5.73070
C         -0.53520       -0.64070        4.81860
O          0.41710        0.29660        4.76450
C          1.30190        0.54120        5.85620
C          0.59410        1.19210        7.03640
C         -1.49780       -0.58490        3.79420
C         -2.52640       -1.50090        3.68340
F         -3.41980       -1.33930        2.70760
F         -1.39530        0.40240        2.88980
F          0.17340       -1.86200        6.75700
F         -1.76620       -3.61100        6.50740
C         -4.61080       -3.93710        5.49720
C         -4.52510       -3.39040        6.86010
C         -4.39780       -2.03630        7.14070
F         -4.41100       -1.13740        6.14100
C         -4.27250       -1.54900        8.43570
F         -4.12920       -0.21360        8.57390
C         -4.28850       -2.40460        9.54260
O         -4.15390       -2.10600       10.83660
C         -4.22020       -0.76810       11.32250
C         -5.63600       -0.20920       11.27790
C         -4.43290       -3.77550        9.25110
F         -4.45030       -4.63270       10.27790
C         -4.55000       -4.25450        7.96010
F         -4.65250       -5.56860        7.76910
N         -5.52850       -4.85290        5.29320
C         -5.64910       -5.41930        4.08690
C         -6.63590       -6.42590        3.88330
C         -6.77500       -6.87750        2.57310
C         -5.94440       -6.46800        1.53180
F         -6.26310       -6.89550        0.30140
F         -7.79810       -7.68500        2.25300
C         -7.42110       -6.85250        5.00150
C         -7.98790       -8.05740        5.22790
S         -7.84960       -9.51700        4.27480
C         -8.67410      -10.44030        5.50990
C         -8.78820      -11.80300        5.42520
C         -9.36770      -12.62840        6.40590
N         -9.80570      -13.36510        7.16960
C         -8.24380      -12.47900        4.31420
N         -7.79090      -13.02890        3.41510
N         -9.11730       -9.64790        6.52300
C         -9.94750      -10.12260        7.58200
C        -11.24250      -10.53260        7.29980
C        -12.05040      -10.97300        8.33130
C        -11.57030      -10.99150        9.63000
C        -10.28270      -10.56310        9.90360
C         -9.46280      -10.12400        8.87980
C         -8.75540       -8.30970        6.45930
O         -9.04630       -7.49100        7.29550
H          5.43900       10.21750       -3.14500
H         10.05850       13.26270       -4.93280
H         10.70590       15.63890       -4.77400
H         10.31540       16.88540       -2.68270
H          9.26380       15.76490       -0.75480
H          8.62050       13.38350       -0.91160
H          2.78970       10.15520       -1.56840
H          4.41030        9.53080       -1.16560
H          2.62780        8.56930        0.31830
H          3.44580        7.31190       -0.62050
H          1.84400        7.86220       -1.10630
H          0.75170        6.08030       -4.17900
H          2.15100        5.47800       -5.10300
H          1.12640        7.51380       -6.15610
H          1.49280        8.43910       -4.68840
H          2.80480        7.80060       -5.67610
H          9.75820        6.40070       -4.11310
H          8.82020        4.01980       -4.14810
H          6.42260        1.43580       -5.53910
H          8.12340        1.75360       -7.28960
H          8.22540        3.86650       -8.54920
H          6.16930        6.82910       -7.75820
H          7.60110        6.25060       -8.62090
H          5.76070        6.76680      -10.21070
H          6.13830        5.04070      -10.23940
H          4.70870        5.61390       -9.38150
H          4.84890        5.31620       -6.39100
H         -4.20970       -6.98430       -2.79180
H         -4.73630       -9.34190       -3.27400
H         -4.69570      -11.01400       -1.46950
H         -4.12350      -11.63680        0.74140
H         -3.18330      -10.52690        1.74830
H         -5.36580      -11.20550        2.81020
H         -5.25220       -9.45930        2.56550
H         -6.22780      -10.44560        1.47510
H         -3.48300       -8.00300        1.29410
H          0.82960        2.29080       -1.88550
H          0.27580        1.02690       -0.80150
H         -1.57900        0.50940       -2.51660
H         -1.67290        2.14180       -1.84230
H         -1.00390        1.88350       -3.45610
H         -1.12780       -0.20230       -0.35780
H         -1.57200       -1.67880        0.47330
H          0.52380       -0.64120        1.41790
H          1.33880       -0.94010       -0.12150
H          0.76420       -2.29600        0.84480
H          1.81440       -0.37590        6.15830
H          2.03580        1.22960        5.43090
H          0.06700        2.08460        6.70800
H          1.32950        1.47100        7.78500
H         -0.12040        0.51210        7.49280
H         -3.52160       -0.11990       10.78670
H         -3.88630       -0.86310       12.35830
H         -5.97520       -0.07160       10.25450
H         -6.31790       -0.88710       11.78540
H         -5.65700        0.75370       11.77940
H         -7.50680       -6.13290        5.80720
H        -11.60860      -10.50970        6.28360
H        -13.05580      -11.30110        8.11810
H        -12.20360      -11.33900       10.43170
H         -9.91100      -10.57240       10.91670
H         -8.45820       -9.78420        9.07910
