
  xtb     02052207143D
 energy: -381.146281461565 gnorm: 0.000666960580 xtb: 6.4.1 (unknown)
199218  0     0  0            999 V2000
    6.2229    9.4719   -3.2409 C   0  0  0  0  0  0  0  0  0  0  0  0
    7.4684   10.0009   -3.2372 C   0  0  0  0  0  0  0  0  0  0  0  0
    9.0274    9.2379   -3.3820 S   0  0  0  0  0  0  0  0  0  0  0  0
    9.8241   10.7952   -3.1310 C   0  0  0  0  0  0  0  0  0  0  0  0
   11.1885   10.8803   -3.0439 C   0  0  0  0  0  0  0  0  0  0  0  0
   11.9179   12.0504   -2.7689 C   0  0  0  0  0  0  0  0  0  0  0  0
   12.5683   12.9644   -2.5230 N   0  0  0  0  0  0  0  0  0  0  0  0
   11.9558    9.7081   -3.1976 C   0  0  0  0  0  0  0  0  0  0  0  0
   12.5796    8.7543   -3.3310 N   0  0  0  0  0  0  0  0  0  0  0  0
    8.9387   11.8193   -3.0188 N   0  0  0  0  0  0  0  0  0  0  0  0
    9.3199   13.1907   -2.9230 C   0  0  0  0  0  0  0  0  0  0  0  0
    9.8926   13.8169   -4.0204 C   0  0  0  0  0  0  0  0  0  0  0  0
   10.2517   15.1484   -3.9271 C   0  0  0  0  0  0  0  0  0  0  0  0
   10.0297   15.8469   -2.7525 C   0  0  0  0  0  0  0  0  0  0  0  0
    9.4411   15.2187   -1.6686 C   0  0  0  0  0  0  0  0  0  0  0  0
    9.0813   13.8855   -1.7486 C   0  0  0  0  0  0  0  0  0  0  0  0
    7.6036   11.4584   -3.0542 C   0  0  0  0  0  0  0  0  0  0  0  0
    6.6912   12.2435   -2.9398 O   0  0  0  0  0  0  0  0  0  0  0  0
    5.7567    8.1262   -3.3552 C   0  0  0  0  0  0  0  0  0  0  0  0
    4.3865    7.8689   -3.2058 C   0  0  0  0  0  0  0  0  0  0  0  0
    3.5106    8.8807   -2.9223 O   0  0  0  0  0  0  0  0  0  0  0  0
    3.4182    9.2621   -1.5526 C   0  0  0  0  0  0  0  0  0  0  0  0
    2.7926    8.1800   -0.6826 C   0  0  0  0  0  0  0  0  0  0  0  0
    3.8546    6.5812   -3.4169 C   0  0  0  0  0  0  0  0  0  0  0  0
    2.4990    6.4101   -3.2799 O   0  0  0  0  0  0  0  0  0  0  0  0
    1.7701    6.3131   -4.4978 C   0  0  0  0  0  0  0  0  0  0  0  0
    1.8001    7.6013   -5.3081 C   0  0  0  0  0  0  0  0  0  0  0  0
    4.6706    5.4959   -3.7293 C   0  0  0  0  0  0  0  0  0  0  0  0
    6.0763    5.7083   -3.7879 C   0  0  0  0  0  0  0  0  0  0  0  0
    6.6036    7.0215   -3.6462 C   0  0  0  0  0  0  0  0  0  0  0  0
    7.9221    7.2127   -3.7827 N   0  0  0  0  0  0  0  0  0  0  0  0
    8.7047    6.1878   -4.0004 C   0  0  0  0  0  0  0  0  0  0  0  0
    8.1829    4.8854   -4.0392 C   0  0  0  0  0  0  0  0  0  0  0  0
    6.9002    4.6592   -3.9358 N   0  0  0  0  0  0  0  0  0  0  0  0
    4.1196    4.1791   -3.9166 C   0  0  0  0  0  0  0  0  0  0  0  0
    4.5312    3.1849   -4.7852 C   0  0  0  0  0  0  0  0  0  0  0  0
    5.5337    3.3630   -5.8340 C   0  0  0  0  0  0  0  0  0  0  0  0
    6.4488    2.3514   -6.1089 C   0  0  0  0  0  0  0  0  0  0  0  0
    7.4088    2.5371   -7.0852 C   0  0  0  0  0  0  0  0  0  0  0  0
    7.4646    3.7229   -7.7955 C   0  0  0  0  0  0  0  0  0  0  0  0
    6.5456    4.7364   -7.5494 C   0  0  0  0  0  0  0  0  0  0  0  0
    6.5714    6.0053   -8.3529 C   0  0  0  0  0  0  0  0  0  0  0  0
    5.7417    5.8485   -9.6286 C   0  0  0  0  0  0  0  0  0  0  0  0
    5.5783    4.5393   -6.5781 C   0  0  0  0  0  0  0  0  0  0  0  0
    3.7981    1.9988   -4.5793 C   0  0  0  0  0  0  0  0  0  0  0  0
    3.8263    0.4350   -5.3610 S   0  0  0  0  0  0  0  0  0  0  0  0
    2.5516   -0.0856   -4.3124 C   0  0  0  0  0  0  0  0  0  0  0  0
    1.7624   -1.2208   -4.0773 C   0  0  0  0  0  0  0  0  0  0  0  0
    1.6908   -2.4527   -4.7634 C   0  0  0  0  0  0  0  0  0  0  0  0
    0.6998   -3.4095   -4.3675 C   0  0  0  0  0  0  0  0  0  0  0  0
    0.7120   -4.4944   -5.1258 N   0  0  0  0  0  0  0  0  0  0  0  0
    1.8750   -4.3278   -6.2399 S   0  0  0  0  0  0  0  0  0  0  0  0
    2.4070   -2.8639   -5.7982 N   0  0  0  0  0  0  0  0  0  0  0  0
   -0.1014   -3.1330   -3.2379 C   0  0  0  0  0  0  0  0  0  0  0  0
   -1.0366   -3.9285   -2.5617 C   0  0  0  0  0  0  0  0  0  0  0  0
   -1.7857   -5.4843   -2.6916 S   0  0  0  0  0  0  0  0  0  0  0  0
   -2.6347   -5.1730   -1.1910 C   0  0  0  0  0  0  0  0  0  0  0  0
   -3.5112   -5.9439   -0.4125 C   0  0  0  0  0  0  0  0  0  0  0  0
   -3.8335   -7.3372   -0.7114 C   0  0  0  0  0  0  0  0  0  0  0  0
   -4.1645   -7.7236   -2.0070 C   0  0  0  0  0  0  0  0  0  0  0  0
   -4.4685   -9.0448   -2.2712 C   0  0  0  0  0  0  0  0  0  0  0  0
   -4.4425   -9.9857   -1.2565 C   0  0  0  0  0  0  0  0  0  0  0  0
   -4.0906   -9.6229    0.0380 C   0  0  0  0  0  0  0  0  0  0  0  0
   -4.0951  -10.6277    1.1543 C   0  0  0  0  0  0  0  0  0  0  0  0
   -5.3111  -10.4214    2.0593 C   0  0  0  0  0  0  0  0  0  0  0  0
   -3.7791   -8.2973    0.2958 C   0  0  0  0  0  0  0  0  0  0  0  0
   -3.9078   -5.2501    0.7321 C   0  0  0  0  0  0  0  0  0  0  0  0
   -3.1043   -3.7001    0.8909 S   0  0  0  0  0  0  0  0  0  0  0  0
   -2.3384   -3.9208   -0.6385 C   0  0  0  0  0  0  0  0  0  0  0  0
   -1.4287   -3.2117   -1.4258 C   0  0  0  0  0  0  0  0  0  0  0  0
   -0.7997   -1.9975   -1.3918 N   0  0  0  0  0  0  0  0  0  0  0  0
    0.0233   -1.9164   -2.5014 C   0  0  0  0  0  0  0  0  0  0  0  0
    0.8935   -0.9069   -2.9919 C   0  0  0  0  0  0  0  0  0  0  0  0
    1.1349    0.4045   -2.6112 N   0  0  0  0  0  0  0  0  0  0  0  0
    2.1293    0.8955   -3.4118 C   0  0  0  0  0  0  0  0  0  0  0  0
    2.8366    2.0942   -3.5704 C   0  0  0  0  0  0  0  0  0  0  0  0
    2.8059    3.6739   -2.8719 S   0  0  0  0  0  0  0  0  0  0  0  0
    0.3201    1.3247   -1.8489 C   0  0  0  0  0  0  0  0  0  0  0  0
   -1.0745    1.4707   -2.4523 C   0  0  0  0  0  0  0  0  0  0  0  0
   -0.8117   -1.2273   -0.1680 C   0  0  0  0  0  0  0  0  0  0  0  0
    0.5415   -1.2768    0.5372 C   0  0  0  0  0  0  0  0  0  0  0  0
   -4.8617   -5.6093    1.7291 C   0  0  0  0  0  0  0  0  0  0  0  0
   -4.7831   -5.0222    3.0323 C   0  0  0  0  0  0  0  0  0  0  0  0
   -3.8575   -4.0901    3.2580 N   0  0  0  0  0  0  0  0  0  0  0  0
   -3.7387   -3.5431    4.4458 C   0  0  0  0  0  0  0  0  0  0  0  0
   -2.6627   -2.5498    4.5952 C   0  0  0  0  0  0  0  0  0  0  0  0
   -1.7174   -2.6124    5.6113 C   0  0  0  0  0  0  0  0  0  0  0  0
   -0.6837   -1.6915    5.7307 C   0  0  0  0  0  0  0  0  0  0  0  0
   -0.5352   -0.6407    4.8186 C   0  0  0  0  0  0  0  0  0  0  0  0
    0.4171    0.2966    4.7645 O   0  0  0  0  0  0  0  0  0  0  0  0
    1.3019    0.5412    5.8562 C   0  0  0  0  0  0  0  0  0  0  0  0
    0.5941    1.1921    7.0364 C   0  0  0  0  0  0  0  0  0  0  0  0
   -1.4978   -0.5849    3.7942 C   0  0  0  0  0  0  0  0  0  0  0  0
   -2.5264   -1.5009    3.6834 C   0  0  0  0  0  0  0  0  0  0  0  0
   -3.4198   -1.3393    2.7076 F   0  0  0  0  0  0  0  0  0  0  0  0
   -1.3953    0.4024    2.8898 F   0  0  0  0  0  0  0  0  0  0  0  0
    0.1734   -1.8620    6.7570 F   0  0  0  0  0  0  0  0  0  0  0  0
   -1.7662   -3.6110    6.5074 F   0  0  0  0  0  0  0  0  0  0  0  0
   -4.6108   -3.9371    5.4972 C   0  0  0  0  0  0  0  0  0  0  0  0
   -4.5251   -3.3904    6.8601 C   0  0  0  0  0  0  0  0  0  0  0  0
   -4.3978   -2.0363    7.1407 C   0  0  0  0  0  0  0  0  0  0  0  0
   -4.4110   -1.1374    6.1410 F   0  0  0  0  0  0  0  0  0  0  0  0
   -4.2725   -1.5490    8.4357 C   0  0  0  0  0  0  0  0  0  0  0  0
   -4.1292   -0.2136    8.5739 F   0  0  0  0  0  0  0  0  0  0  0  0
   -4.2885   -2.4046    9.5426 C   0  0  0  0  0  0  0  0  0  0  0  0
   -4.1539   -2.1060   10.8366 O   0  0  0  0  0  0  0  0  0  0  0  0
   -4.2202   -0.7681   11.3225 C   0  0  0  0  0  0  0  0  0  0  0  0
   -5.6360   -0.2092   11.2779 C   0  0  0  0  0  0  0  0  0  0  0  0
   -4.4329   -3.7755    9.2511 C   0  0  0  0  0  0  0  0  0  0  0  0
   -4.4503   -4.6327   10.2779 F   0  0  0  0  0  0  0  0  0  0  0  0
   -4.5500   -4.2545    7.9601 C   0  0  0  0  0  0  0  0  0  0  0  0
   -4.6525   -5.5686    7.7691 F   0  0  0  0  0  0  0  0  0  0  0  0
   -5.5285   -4.8529    5.2932 N   0  0  0  0  0  0  0  0  0  0  0  0
   -5.6491   -5.4193    4.0869 C   0  0  0  0  0  0  0  0  0  0  0  0
   -6.6359   -6.4259    3.8833 C   0  0  0  0  0  0  0  0  0  0  0  0
   -6.7750   -6.8775    2.5731 C   0  0  0  0  0  0  0  0  0  0  0  0
   -5.9444   -6.4680    1.5318 C   0  0  0  0  0  0  0  0  0  0  0  0
   -6.2631   -6.8955    0.3014 F   0  0  0  0  0  0  0  0  0  0  0  0
   -7.7981   -7.6850    2.2530 F   0  0  0  0  0  0  0  0  0  0  0  0
   -7.4211   -6.8525    5.0015 C   0  0  0  0  0  0  0  0  0  0  0  0
   -7.9879   -8.0574    5.2279 C   0  0  0  0  0  0  0  0  0  0  0  0
   -7.8496   -9.5170    4.2748 S   0  0  0  0  0  0  0  0  0  0  0  0
   -8.6741  -10.4403    5.5099 C   0  0  0  0  0  0  0  0  0  0  0  0
   -8.7882  -11.8030    5.4252 C   0  0  0  0  0  0  0  0  0  0  0  0
   -9.3677  -12.6284    6.4059 C   0  0  0  0  0  0  0  0  0  0  0  0
   -9.8057  -13.3651    7.1696 N   0  0  0  0  0  0  0  0  0  0  0  0
   -8.2438  -12.4790    4.3142 C   0  0  0  0  0  0  0  0  0  0  0  0
   -7.7909  -13.0289    3.4151 N   0  0  0  0  0  0  0  0  0  0  0  0
   -9.1173   -9.6479    6.5230 N   0  0  0  0  0  0  0  0  0  0  0  0
   -9.9475  -10.1226    7.5820 C   0  0  0  0  0  0  0  0  0  0  0  0
  -11.2425  -10.5326    7.2998 C   0  0  0  0  0  0  0  0  0  0  0  0
  -12.0504  -10.9730    8.3313 C   0  0  0  0  0  0  0  0  0  0  0  0
  -11.5703  -10.9915    9.6300 C   0  0  0  0  0  0  0  0  0  0  0  0
  -10.2827  -10.5631    9.9036 C   0  0  0  0  0  0  0  0  0  0  0  0
   -9.4628  -10.1240    8.8798 C   0  0  0  0  0  0  0  0  0  0  0  0
   -8.7554   -8.3097    6.4593 C   0  0  0  0  0  0  0  0  0  0  0  0
   -9.0463   -7.4910    7.2955 O   0  0  0  0  0  0  0  0  0  0  0  0
    5.4390   10.2175   -3.1450 H   0  0  0  0  0  0  0  0  0  0  0  0
   10.0585   13.2627   -4.9328 H   0  0  0  0  0  0  0  0  0  0  0  0
   10.7059   15.6389   -4.7740 H   0  0  0  0  0  0  0  0  0  0  0  0
   10.3154   16.8854   -2.6827 H   0  0  0  0  0  0  0  0  0  0  0  0
    9.2638   15.7649   -0.7548 H   0  0  0  0  0  0  0  0  0  0  0  0
    8.6205   13.3835   -0.9116 H   0  0  0  0  0  0  0  0  0  0  0  0
    2.7897   10.1552   -1.5684 H   0  0  0  0  0  0  0  0  0  0  0  0
    4.4103    9.5308   -1.1656 H   0  0  0  0  0  0  0  0  0  0  0  0
    2.6278    8.5693    0.3183 H   0  0  0  0  0  0  0  0  0  0  0  0
    3.4458    7.3119   -0.6205 H   0  0  0  0  0  0  0  0  0  0  0  0
    1.8440    7.8622   -1.1063 H   0  0  0  0  0  0  0  0  0  0  0  0
    0.7517    6.0803   -4.1790 H   0  0  0  0  0  0  0  0  0  0  0  0
    2.1510    5.4780   -5.1030 H   0  0  0  0  0  0  0  0  0  0  0  0
    1.1264    7.5138   -6.1561 H   0  0  0  0  0  0  0  0  0  0  0  0
    1.4928    8.4391   -4.6884 H   0  0  0  0  0  0  0  0  0  0  0  0
    2.8048    7.8006   -5.6761 H   0  0  0  0  0  0  0  0  0  0  0  0
    9.7582    6.4007   -4.1131 H   0  0  0  0  0  0  0  0  0  0  0  0
    8.8202    4.0198   -4.1481 H   0  0  0  0  0  0  0  0  0  0  0  0
    6.4226    1.4358   -5.5391 H   0  0  0  0  0  0  0  0  0  0  0  0
    8.1234    1.7536   -7.2896 H   0  0  0  0  0  0  0  0  0  0  0  0
    8.2254    3.8665   -8.5492 H   0  0  0  0  0  0  0  0  0  0  0  0
    6.1693    6.8291   -7.7582 H   0  0  0  0  0  0  0  0  0  0  0  0
    7.6011    6.2506   -8.6209 H   0  0  0  0  0  0  0  0  0  0  0  0
    5.7607    6.7668  -10.2107 H   0  0  0  0  0  0  0  0  0  0  0  0
    6.1383    5.0407  -10.2394 H   0  0  0  0  0  0  0  0  0  0  0  0
    4.7087    5.6139   -9.3815 H   0  0  0  0  0  0  0  0  0  0  0  0
    4.8489    5.3162   -6.3910 H   0  0  0  0  0  0  0  0  0  0  0  0
   -4.2097   -6.9843   -2.7918 H   0  0  0  0  0  0  0  0  0  0  0  0
   -4.7363   -9.3419   -3.2740 H   0  0  0  0  0  0  0  0  0  0  0  0
   -4.6957  -11.0140   -1.4695 H   0  0  0  0  0  0  0  0  0  0  0  0
   -4.1235  -11.6368    0.7414 H   0  0  0  0  0  0  0  0  0  0  0  0
   -3.1833  -10.5269    1.7483 H   0  0  0  0  0  0  0  0  0  0  0  0
   -5.3658  -11.2055    2.8102 H   0  0  0  0  0  0  0  0  0  0  0  0
   -5.2522   -9.4593    2.5655 H   0  0  0  0  0  0  0  0  0  0  0  0
   -6.2278  -10.4456    1.4751 H   0  0  0  0  0  0  0  0  0  0  0  0
   -3.4830   -8.0030    1.2941 H   0  0  0  0  0  0  0  0  0  0  0  0
    0.8296    2.2908   -1.8855 H   0  0  0  0  0  0  0  0  0  0  0  0
    0.2758    1.0269   -0.8015 H   0  0  0  0  0  0  0  0  0  0  0  0
   -1.5790    0.5094   -2.5166 H   0  0  0  0  0  0  0  0  0  0  0  0
   -1.6729    2.1418   -1.8423 H   0  0  0  0  0  0  0  0  0  0  0  0
   -1.0039    1.8835   -3.4561 H   0  0  0  0  0  0  0  0  0  0  0  0
   -1.1278   -0.2023   -0.3578 H   0  0  0  0  0  0  0  0  0  0  0  0
   -1.5720   -1.6788    0.4733 H   0  0  0  0  0  0  0  0  0  0  0  0
    0.5238   -0.6412    1.4179 H   0  0  0  0  0  0  0  0  0  0  0  0
    1.3388   -0.9401   -0.1215 H   0  0  0  0  0  0  0  0  0  0  0  0
    0.7642   -2.2960    0.8448 H   0  0  0  0  0  0  0  0  0  0  0  0
    1.8144   -0.3759    6.1583 H   0  0  0  0  0  0  0  0  0  0  0  0
    2.0358    1.2296    5.4309 H   0  0  0  0  0  0  0  0  0  0  0  0
    0.0670    2.0846    6.7080 H   0  0  0  0  0  0  0  0  0  0  0  0
    1.3295    1.4710    7.7850 H   0  0  0  0  0  0  0  0  0  0  0  0
   -0.1204    0.5121    7.4928 H   0  0  0  0  0  0  0  0  0  0  0  0
   -3.5216   -0.1199   10.7867 H   0  0  0  0  0  0  0  0  0  0  0  0
   -3.8863   -0.8631   12.3583 H   0  0  0  0  0  0  0  0  0  0  0  0
   -5.9752   -0.0716   10.2545 H   0  0  0  0  0  0  0  0  0  0  0  0
   -6.3179   -0.8871   11.7854 H   0  0  0  0  0  0  0  0  0  0  0  0
   -5.6570    0.7537   11.7794 H   0  0  0  0  0  0  0  0  0  0  0  0
   -7.5068   -6.1329    5.8072 H   0  0  0  0  0  0  0  0  0  0  0  0
  -11.6086  -10.5097    6.2836 H   0  0  0  0  0  0  0  0  0  0  0  0
  -13.0558  -11.3011    8.1181 H   0  0  0  0  0  0  0  0  0  0  0  0
  -12.2036  -11.3390   10.4317 H   0  0  0  0  0  0  0  0  0  0  0  0
   -9.9110  -10.5724   10.9167 H   0  0  0  0  0  0  0  0  0  0  0  0
   -8.4582   -9.7842    9.0791 H   0  0  0  0  0  0  0  0  0  0  0  0
  1  2  2  0  0  0  0
  2  3  1  0  0  0  0
  3  4  1  0  0  0  0
  4  5  2  0  0  0  0
  5  6  1  0  0  0  0
  6  7  3  0  0  0  0
  5  8  1  0  0  0  0
  8  9  3  0  0  0  0
  4 10  1  0  0  0  0
 10 11  1  0  0  0  0
 11 12  2  0  0  0  0
 12 13  1  0  0  0  0
 13 14  2  0  0  0  0
 14 15  1  0  0  0  0
 15 16  2  0  0  0  0
 10 17  1  0  0  0  0
 17 18  2  0  0  0  0
  1 19  1  0  0  0  0
 19 20  2  0  0  0  0
 20 21  1  0  0  0  0
 21 22  1  0  0  0  0
 22 23  1  0  0  0  0
 20 24  1  0  0  0  0
 24 25  1  0  0  0  0
 25 26  1  0  0  0  0
 26 27  1  0  0  0  0
 24 28  2  0  0  0  0
 28 29  1  0  0  0  0
 29 30  2  0  0  0  0
 30 31  1  0  0  0  0
 31 32  2  0  0  0  0
 32 33  1  0  0  0  0
 33 34  2  0  0  0  0
 28 35  1  0  0  0  0
 35 36  2  0  0  0  0
 36 37  1  0  0  0  0
 37 38  2  0  0  0  0
 38 39  1  0  0  0  0
 39 40  2  0  0  0  0
 40 41  1  0  0  0  0
 41 42  1  0  0  0  0
 42 43  1  0  0  0  0
 41 44  2  0  0  0  0
 36 45  1  0  0  0  0
 45 46  1  0  0  0  0
 46 47  1  0  0  0  0
 47 48  1  0  0  0  0
 48 49  1  0  0  0  0
 49 50  1  0  0  0  0
 50 51  2  0  0  0  0
 51 52  1  0  0  0  0
 52 53  1  0  0  0  0
 50 54  1  0  0  0  0
 54 55  1  0  0  0  0
 55 56  1  0  0  0  0
 56 57  1  0  0  0  0
 57 58  1  0  0  0  0
 58 59  1  0  0  0  0
 59 60  2  0  0  0  0
 60 61  1  0  0  0  0
 61 62  2  0  0  0  0
 62 63  1  0  0  0  0
 63 64  1  0  0  0  0
 64 65  1  0  0  0  0
 63 66  2  0  0  0  0
 58 67  2  0  0  0  0
 67 68  1  0  0  0  0
 68 69  1  0  0  0  0
 69 70  1  0  0  0  0
 70 71  1  0  0  0  0
 71 72  1  0  0  0  0
 72 73  1  0  0  0  0
 73 74  1  0  0  0  0
 74 75  1  0  0  0  0
 75 76  1  0  0  0  0
 76 77  1  0  0  0  0
 74 78  1  0  0  0  0
 78 79  1  0  0  0  0
 71 80  1  0  0  0  0
 80 81  1  0  0  0  0
 67 82  1  0  0  0  0
 82 83  1  0  0  0  0
 83 84  2  0  0  0  0
 84 85  1  0  0  0  0
 85 86  1  0  0  0  0
 86 87  2  0  0  0  0
 87 88  1  0  0  0  0
 88 89  2  0  0  0  0
 89 90  1  0  0  0  0
 90 91  1  0  0  0  0
 91 92  1  0  0  0  0
 89 93  1  0  0  0  0
 93 94  2  0  0  0  0
 94 95  1  0  0  0  0
 93 96  1  0  0  0  0
 88 97  1  0  0  0  0
 87 98  1  0  0  0  0
 85 99  2  0  0  0  0
 99100  1  0  0  0  0
100101  2  0  0  0  0
101102  1  0  0  0  0
101103  1  0  0  0  0
103104  1  0  0  0  0
103105  2  0  0  0  0
105106  1  0  0  0  0
106107  1  0  0  0  0
107108  1  0  0  0  0
105109  1  0  0  0  0
109110  1  0  0  0  0
109111  2  0  0  0  0
111112  1  0  0  0  0
 99113  1  0  0  0  0
113114  2  0  0  0  0
114115  1  0  0  0  0
115116  2  0  0  0  0
116117  1  0  0  0  0
117118  1  0  0  0  0
116119  1  0  0  0  0
115120  1  0  0  0  0
120121  2  0  0  0  0
121122  1  0  0  0  0
122123  1  0  0  0  0
123124  2  0  0  0  0
124125  1  0  0  0  0
125126  3  0  0  0  0
124127  1  0  0  0  0
127128  3  0  0  0  0
123129  1  0  0  0  0
129130  1  0  0  0  0
130131  2  0  0  0  0
131132  1  0  0  0  0
132133  2  0  0  0  0
133134  1  0  0  0  0
134135  2  0  0  0  0
129136  1  0  0  0  0
136137  2  0  0  0  0
 17  2  1  0  0  0  0
 30 19  1  0  0  0  0
 77 35  1  0  0  0  0
117 82  2  0  0  0  0
136121  1  0  0  0  0
 16 11  1  0  0  0  0
 34 29  1  0  0  0  0
 44 37  1  0  0  0  0
 76 45  2  0  0  0  0
114 83  1  0  0  0  0
135130  1  0  0  0  0
 75 47  2  0  0  0  0
 94 86  1  0  0  0  0
111100  1  0  0  0  0
 73 48  2  0  0  0  0
 53 49  2  0  0  0  0
 72 54  2  0  0  0  0
 70 55  2  0  0  0  0
 69 57  2  0  0  0  0
 66 59  1  0  0  0  0
  1138  1  0  0  0  0
 12139  1  0  0  0  0
 13140  1  0  0  0  0
 14141  1  0  0  0  0
 15142  1  0  0  0  0
 16143  1  0  0  0  0
 22144  1  0  0  0  0
 22145  1  0  0  0  0
 23146  1  0  0  0  0
 23147  1  0  0  0  0
 23148  1  0  0  0  0
 26149  1  0  0  0  0
 26150  1  0  0  0  0
 27151  1  0  0  0  0
 27152  1  0  0  0  0
 27153  1  0  0  0  0
 32154  1  0  0  0  0
 33155  1  0  0  0  0
 38156  1  0  0  0  0
 39157  1  0  0  0  0
 40158  1  0  0  0  0
 42159  1  0  0  0  0
 42160  1  0  0  0  0
 43161  1  0  0  0  0
 43162  1  0  0  0  0
 43163  1  0  0  0  0
 44164  1  0  0  0  0
 60165  1  0  0  0  0
 61166  1  0  0  0  0
 62167  1  0  0  0  0
 64168  1  0  0  0  0
 64169  1  0  0  0  0
 65170  1  0  0  0  0
 65171  1  0  0  0  0
 65172  1  0  0  0  0
 66173  1  0  0  0  0
 78174  1  0  0  0  0
 78175  1  0  0  0  0
 79176  1  0  0  0  0
 79177  1  0  0  0  0
 79178  1  0  0  0  0
 80179  1  0  0  0  0
 80180  1  0  0  0  0
 81181  1  0  0  0  0
 81182  1  0  0  0  0
 81183  1  0  0  0  0
 91184  1  0  0  0  0
 91185  1  0  0  0  0
 92186  1  0  0  0  0
 92187  1  0  0  0  0
 92188  1  0  0  0  0
107189  1  0  0  0  0
107190  1  0  0  0  0
108191  1  0  0  0  0
108192  1  0  0  0  0
108193  1  0  0  0  0
120194  1  0  0  0  0
131195  1  0  0  0  0
132196  1  0  0  0  0
133197  1  0  0  0  0
134198  1  0  0  0  0
135199  1  0  0  0  0
M  END
