252

C          0.45190       12.61690       -0.50740
C         -0.18590       13.77370       -0.83010
S         -1.36250       13.97960       -2.11090
C         -1.67070       15.61950       -1.60430
C         -2.64340       16.38010       -2.20310
C         -3.47130       15.78880       -3.17640
N         -4.15870       15.28830       -3.94730
C         -2.89690       17.73120       -1.91350
N         -3.14670       18.83850       -1.73720
N         -0.84940       15.99350       -0.59200
C         -0.96740       17.24780        0.07830
C         -2.00760       17.43470        0.97640
C         -2.11700       18.64200        1.64020
C         -1.19100       19.64590        1.41180
C         -0.14720       19.44340        0.52570
C         -0.02750       18.23960       -0.14540
C          0.03900       15.02560       -0.12290
O          0.82440       15.22220        0.77520
C          0.12510       11.32160       -0.95950
C         -1.11290       10.79320       -1.34180
N         -2.34360       11.40300       -1.20420
C         -3.30910       11.16590       -2.20450
C         -2.93820       11.22210       -3.54390
C         -3.88870       11.07120       -4.53330
C         -5.22430       10.86420       -4.21680
C         -6.27290       10.79650       -5.28270
C         -5.57710       10.76430       -2.87510
C         -4.63620       10.90780       -1.87610
C         -2.66880       12.17380       -0.07870
C         -3.60610       13.20200       -0.17600
C         -3.88550       13.99950        0.91620
C         -3.24500       13.80440        2.13370
C         -3.51030       14.69130        3.31120
C         -2.33480       12.75790        2.23200
C         -2.05320       11.94830        1.15060
C         -0.97180        9.45680       -1.77800
S         -2.08470        8.27540       -2.37370
C         -0.79390        7.08100       -2.45310
C          0.44010        7.59890       -2.07890
N          1.64760        6.92010       -2.11570
C          1.93630        6.01450       -3.14270
C          2.69800        4.87640       -2.88510
C          2.91270        3.94290       -3.88000
C          2.37340        4.10680       -5.14890
C          2.55980        3.07250       -6.21670
C          1.64070        5.26050       -5.40790
C          1.43140        6.20700       -4.42690
C          2.59420        7.18660       -1.11350
C          2.18750        7.35410        0.20770
C          3.11640        7.63630        1.18930
C          4.46790        7.74780        0.88700
C          5.46710        8.07600        1.95320
C          4.86560        7.56890       -0.43300
C          3.94630        7.29640       -1.42570
C          0.31710        8.95190       -1.68250
S          1.41540       10.11850       -1.03850
C         -1.11410        5.73010       -2.77840
C         -2.13220        5.26300       -3.58720
C         -2.99190        6.10460       -4.42120
C         -2.45180        7.08970       -5.24390
C         -3.28250        7.85830       -6.03370
C         -4.65200        7.65910       -6.00600
C         -5.20740        6.67980       -5.19470
C         -6.69380        6.47790       -5.12270
C         -7.24500        7.00450       -3.79650
C         -4.36600        5.90150       -4.41360
C         -2.21790        3.85720       -3.54650
S         -3.25940        2.70760       -4.35200
C         -2.40160        1.41970       -3.57280
C         -2.40640        0.01670       -3.50900
C         -3.19950       -0.93380       -4.18620
C         -2.95530       -2.32840       -3.95910
N         -3.74780       -3.10590       -4.68070
S         -4.72010       -2.16220       -5.56790
N         -4.16780       -0.72540       -5.06490
C         -1.98800       -2.70280       -3.00240
C         -1.65030       -3.96440       -2.48800
S         -2.08460       -5.62900       -2.69520
C         -1.01430       -6.04550       -1.37770
C         -0.67430       -7.27090       -0.77810
C         -1.21380       -8.57200       -1.18030
C         -2.58820       -8.76520       -1.27360
C         -3.08430      -10.01530       -1.59080
C         -2.22310      -11.07590       -1.81100
C         -0.84770      -10.89310       -1.75280
C          0.10480      -12.03770       -1.94570
C          0.63060      -12.51850       -0.59170
C         -0.35670       -9.63350       -1.44860
C          0.24750       -7.10080        0.24120
S          0.68640       -5.40990        0.46390
C         -0.35600       -4.94270       -0.83080
C         -0.71870       -3.75100       -1.47080
N         -0.44140       -2.41590       -1.36000
C         -1.21640       -1.74020       -2.28960
C         -1.36820       -0.36460       -2.61200
N         -0.73260        0.78910       -2.17090
C         -1.36500        1.85750       -2.74920
C         -1.26300        3.25390       -2.72870
S         -0.27280        4.42790       -1.94400
C          0.60080        0.97900       -1.64290
C          1.65800        0.38530       -2.57070
C          0.27130       -1.93500       -0.19980
C         -0.66540       -1.23800        0.78440
C          0.70480       -8.07380        1.17390
C          1.86810       -8.06530        1.94260
N          2.94230       -7.21480        1.77750
C          3.83780       -7.05170        2.85610
C          5.19740       -7.29620        2.68330
C          6.05860       -7.19940        3.75630
C          5.59280       -6.85730        5.02180
C          6.54120       -6.76800        6.17660
C          4.23930       -6.58820        5.17860
C          3.36560       -6.68030        4.11090
C          3.33440       -6.76870        0.50650
C          3.12870       -7.53960       -0.63510
C          3.46760       -7.04530       -1.87710
C          4.03570       -5.78340       -2.01840
C          4.37550       -5.25720       -3.37910
C          4.27550       -5.03790       -0.87180
C          3.93020       -5.51710        0.37680
C          1.84510       -9.11310        2.88950
S          2.94400       -9.60900        4.11980
C          1.92030      -10.99270        4.51790
C          0.79190      -11.06610        3.67050
N         -0.10620      -12.08840        3.66300
C          0.25450      -13.40250        4.04060
C         -0.64040      -14.16760        4.78040
C         -0.30680      -15.45710        5.14600
C          0.91580      -16.00990        4.78400
C          1.28650      -17.39400        5.21680
C          1.79360      -15.23910        4.02940
C          1.47220      -13.95120        3.65110
C         -1.38410      -11.89440        3.10120
C         -2.14060      -10.77620        3.44250
C         -3.37470      -10.57350        2.85880
C         -3.88700      -11.47400        1.93160
C         -5.22280      -11.23080        1.30220
C         -3.14060      -12.60510        1.62700
C         -1.90580      -12.82220        2.20590
C          0.74680       -9.95680        2.79830
S         -0.33850       -9.44030        1.55200
C          2.14240      -11.73670        5.67770
C          3.21550      -11.65200        6.53440
C          3.05200      -11.98680        7.96170
O          2.14020      -12.59620        8.48010
C          4.21370      -11.35710        8.63780
C          4.49270      -11.25200        9.98590
C          5.62620      -10.55350       10.37790
C          6.44810       -9.98640        9.41540
Br         7.97530       -8.99940        9.97460
C          6.19680      -10.10040        8.05340
C          5.06400      -10.79300        7.66950
C          4.53020      -11.10520        6.34370
C          5.26180      -11.12790        5.17850
C          4.80230      -11.78810        4.02210
N          4.47050      -12.38160        3.09570
C          6.54440      -10.57110        5.04710
N          7.57940      -10.09620        4.89280
H          1.30640       12.71740        0.15180
H         -2.71900       16.63960        1.14250
H         -2.92760       18.79850        2.33530
H         -1.28300       20.58920        1.92810
H          0.57660       20.22480        0.35210
H          0.78270       18.06700       -0.83730
H         -1.90710       11.41600       -3.80210
H         -3.58980       11.14540       -5.56790
H         -6.91290        9.92670       -5.14670
H         -5.82100       10.75470       -6.26990
H         -6.90300       11.68450       -5.23360
H         -6.60870       10.58490       -2.60750
H         -4.92550       10.83670       -0.83790
H         -4.10120       13.38700       -1.11830
H         -4.61200       14.79380        0.81080
H         -4.32080       15.38600        3.10370
H         -2.61580       15.26310        3.56030
H         -3.77640       14.09660        4.18370
H         -1.83780       12.57460        3.17310
H         -1.35000       11.13640        1.25900
H          3.09950        4.71930       -1.89510
H          3.49840        3.06230       -3.65770
H          1.60600        2.60040       -6.45440
H          3.25680        2.30180       -5.89660
H          2.93870        3.52820       -7.13000
H          1.22910        5.41830       -6.39440
H          0.87280        7.10440       -4.64830
H          1.14160        7.25320        0.45950
H          2.78630        7.76560        2.20990
H          5.15870        7.66830        2.91330
H          6.44900        7.68300        1.70060
H          5.55410        9.15780        2.06020
H          5.91150        7.65400       -0.69000
H          4.26800        7.17040       -2.44900
H         -1.38220        7.23290       -5.27370
H         -2.86000        8.61400       -6.67920
H         -5.29430        8.26200       -6.63020
H         -6.92460        5.41360       -5.20960
H         -7.17750        6.99890       -5.95120
H         -8.32800        6.90740       -3.76900
H         -6.98200        8.05190       -3.66630
H         -6.82590        6.44790       -2.96200
H         -4.78320        5.13130       -3.78130
H         -3.25830       -7.94080       -1.08140
H         -4.15140      -10.16590       -1.66040
H         -2.62140      -12.05370       -2.04030
H         -0.40080      -12.86210       -2.45150
H          0.94560      -11.72050       -2.56680
H         -0.19870      -12.81720        0.04520
H          1.17340      -11.72220       -0.08720
H          1.30050      -13.36560       -0.71880
H          0.71110       -9.47020       -1.41430
H          0.75420        2.05890       -1.57290
H          0.68140        0.57880       -0.63260
H          1.61650        0.87920       -3.53890
H          2.64760        0.53340       -2.14650
H          1.49470       -0.67940       -2.72320
H          0.70970       -2.81340        0.28070
H          1.09740       -1.28990       -0.49930
H         -0.10120       -0.86340        1.63430
H         -1.40980       -1.94310        1.14670
H         -1.18620       -0.40870        0.31160
H          5.56650       -7.58250        1.70940
H          7.10670       -7.41840        3.61820
H          6.02830       -6.94810        7.11890
H          7.34780       -7.48830        6.06030
H          6.98670       -5.77370        6.22060
H          3.85920       -6.30960        6.15110
H          2.31270       -6.47670        4.24410
H          2.71020       -8.53060       -0.54130
H          3.29420       -7.65080       -2.75520
H          4.88410       -4.29890       -3.31090
H          5.02000       -5.95720       -3.90870
H          3.46960       -5.12810       -3.97120
H          4.72980       -4.06090       -0.95490
H          4.10780       -4.92280        1.26080
H         -1.59040      -13.74360        5.07150
H         -1.00490      -16.04000        5.72860
H          1.75040      -17.35920        6.20310
H          0.40680      -18.03010        5.28270
H          1.99760      -17.84030        4.52600
H          2.74360      -15.65270        3.72540
H          2.16820      -13.37120        3.06410
H         -1.75680      -10.07390        4.16800
H         -3.95130       -9.70040        3.12660
H         -5.39990      -11.92450        0.48470
H         -5.28200      -10.21310        0.92140
H         -6.01580      -11.35770        2.03940
H         -3.52650      -13.32530        0.92070
H         -1.33520      -13.70730        1.96540
H          1.31790      -12.34480        6.03310
H          3.83630      -11.70120       10.71490
H          5.86960      -10.44460       11.42360
H          6.86070       -9.64910        7.33460
