
  xtb     02072206513D
 energy: -413.411084086882 gnorm: 0.000527618109 xtb: 6.4.1 (unknown)
252277  0     0  0            999 V2000
    0.4519   12.6169   -0.5074 C   0  0  0  0  0  0  0  0  0  0  0  0
   -0.1859   13.7737   -0.8301 C   0  0  0  0  0  0  0  0  0  0  0  0
   -1.3625   13.9796   -2.1109 S   0  0  0  0  0  0  0  0  0  0  0  0
   -1.6707   15.6195   -1.6043 C   0  0  0  0  0  0  0  0  0  0  0  0
   -2.6434   16.3801   -2.2031 C   0  0  0  0  0  0  0  0  0  0  0  0
   -3.4713   15.7888   -3.1764 C   0  0  0  0  0  0  0  0  0  0  0  0
   -4.1587   15.2883   -3.9473 N   0  0  0  0  0  0  0  0  0  0  0  0
   -2.8969   17.7312   -1.9135 C   0  0  0  0  0  0  0  0  0  0  0  0
   -3.1467   18.8385   -1.7372 N   0  0  0  0  0  0  0  0  0  0  0  0
   -0.8494   15.9935   -0.5920 N   0  0  0  0  0  0  0  0  0  0  0  0
   -0.9674   17.2478    0.0783 C   0  0  0  0  0  0  0  0  0  0  0  0
   -2.0076   17.4347    0.9764 C   0  0  0  0  0  0  0  0  0  0  0  0
   -2.1170   18.6420    1.6402 C   0  0  0  0  0  0  0  0  0  0  0  0
   -1.1910   19.6459    1.4118 C   0  0  0  0  0  0  0  0  0  0  0  0
   -0.1472   19.4434    0.5257 C   0  0  0  0  0  0  0  0  0  0  0  0
   -0.0275   18.2396   -0.1454 C   0  0  0  0  0  0  0  0  0  0  0  0
    0.0390   15.0256   -0.1229 C   0  0  0  0  0  0  0  0  0  0  0  0
    0.8244   15.2222    0.7752 O   0  0  0  0  0  0  0  0  0  0  0  0
    0.1251   11.3216   -0.9595 C   0  0  0  0  0  0  0  0  0  0  0  0
   -1.1129   10.7932   -1.3418 C   0  0  0  0  0  0  0  0  0  0  0  0
   -2.3436   11.4030   -1.2042 N   0  0  0  0  0  0  0  0  0  0  0  0
   -3.3091   11.1659   -2.2045 C   0  0  0  0  0  0  0  0  0  0  0  0
   -2.9382   11.2221   -3.5439 C   0  0  0  0  0  0  0  0  0  0  0  0
   -3.8887   11.0712   -4.5333 C   0  0  0  0  0  0  0  0  0  0  0  0
   -5.2243   10.8642   -4.2168 C   0  0  0  0  0  0  0  0  0  0  0  0
   -6.2729   10.7965   -5.2827 C   0  0  0  0  0  0  0  0  0  0  0  0
   -5.5771   10.7643   -2.8751 C   0  0  0  0  0  0  0  0  0  0  0  0
   -4.6362   10.9078   -1.8761 C   0  0  0  0  0  0  0  0  0  0  0  0
   -2.6688   12.1738   -0.0787 C   0  0  0  0  0  0  0  0  0  0  0  0
   -3.6061   13.2020   -0.1760 C   0  0  0  0  0  0  0  0  0  0  0  0
   -3.8855   13.9995    0.9162 C   0  0  0  0  0  0  0  0  0  0  0  0
   -3.2450   13.8044    2.1337 C   0  0  0  0  0  0  0  0  0  0  0  0
   -3.5103   14.6913    3.3112 C   0  0  0  0  0  0  0  0  0  0  0  0
   -2.3348   12.7579    2.2320 C   0  0  0  0  0  0  0  0  0  0  0  0
   -2.0532   11.9483    1.1506 C   0  0  0  0  0  0  0  0  0  0  0  0
   -0.9718    9.4568   -1.7780 C   0  0  0  0  0  0  0  0  0  0  0  0
   -2.0847    8.2754   -2.3737 S   0  0  0  0  0  0  0  0  0  0  0  0
   -0.7939    7.0810   -2.4531 C   0  0  0  0  0  0  0  0  0  0  0  0
    0.4401    7.5989   -2.0789 C   0  0  0  0  0  0  0  0  0  0  0  0
    1.6476    6.9201   -2.1157 N   0  0  0  0  0  0  0  0  0  0  0  0
    1.9363    6.0145   -3.1427 C   0  0  0  0  0  0  0  0  0  0  0  0
    2.6980    4.8764   -2.8851 C   0  0  0  0  0  0  0  0  0  0  0  0
    2.9127    3.9429   -3.8800 C   0  0  0  0  0  0  0  0  0  0  0  0
    2.3734    4.1068   -5.1489 C   0  0  0  0  0  0  0  0  0  0  0  0
    2.5598    3.0725   -6.2167 C   0  0  0  0  0  0  0  0  0  0  0  0
    1.6407    5.2605   -5.4079 C   0  0  0  0  0  0  0  0  0  0  0  0
    1.4314    6.2070   -4.4269 C   0  0  0  0  0  0  0  0  0  0  0  0
    2.5942    7.1866   -1.1135 C   0  0  0  0  0  0  0  0  0  0  0  0
    2.1875    7.3541    0.2077 C   0  0  0  0  0  0  0  0  0  0  0  0
    3.1164    7.6363    1.1893 C   0  0  0  0  0  0  0  0  0  0  0  0
    4.4679    7.7478    0.8870 C   0  0  0  0  0  0  0  0  0  0  0  0
    5.4671    8.0760    1.9532 C   0  0  0  0  0  0  0  0  0  0  0  0
    4.8656    7.5689   -0.4330 C   0  0  0  0  0  0  0  0  0  0  0  0
    3.9463    7.2964   -1.4257 C   0  0  0  0  0  0  0  0  0  0  0  0
    0.3171    8.9519   -1.6825 C   0  0  0  0  0  0  0  0  0  0  0  0
    1.4154   10.1185   -1.0385 S   0  0  0  0  0  0  0  0  0  0  0  0
   -1.1141    5.7301   -2.7784 C   0  0  0  0  0  0  0  0  0  0  0  0
   -2.1322    5.2630   -3.5872 C   0  0  0  0  0  0  0  0  0  0  0  0
   -2.9919    6.1046   -4.4212 C   0  0  0  0  0  0  0  0  0  0  0  0
   -2.4518    7.0897   -5.2439 C   0  0  0  0  0  0  0  0  0  0  0  0
   -3.2825    7.8583   -6.0337 C   0  0  0  0  0  0  0  0  0  0  0  0
   -4.6520    7.6591   -6.0060 C   0  0  0  0  0  0  0  0  0  0  0  0
   -5.2074    6.6798   -5.1947 C   0  0  0  0  0  0  0  0  0  0  0  0
   -6.6938    6.4779   -5.1227 C   0  0  0  0  0  0  0  0  0  0  0  0
   -7.2450    7.0045   -3.7965 C   0  0  0  0  0  0  0  0  0  0  0  0
   -4.3660    5.9015   -4.4136 C   0  0  0  0  0  0  0  0  0  0  0  0
   -2.2179    3.8572   -3.5465 C   0  0  0  0  0  0  0  0  0  0  0  0
   -3.2594    2.7076   -4.3520 S   0  0  0  0  0  0  0  0  0  0  0  0
   -2.4016    1.4197   -3.5728 C   0  0  0  0  0  0  0  0  0  0  0  0
   -2.4064    0.0167   -3.5090 C   0  0  0  0  0  0  0  0  0  0  0  0
   -3.1995   -0.9338   -4.1862 C   0  0  0  0  0  0  0  0  0  0  0  0
   -2.9553   -2.3284   -3.9591 C   0  0  0  0  0  0  0  0  0  0  0  0
   -3.7478   -3.1059   -4.6807 N   0  0  0  0  0  0  0  0  0  0  0  0
   -4.7201   -2.1622   -5.5679 S   0  0  0  0  0  0  0  0  0  0  0  0
   -4.1678   -0.7254   -5.0649 N   0  0  0  0  0  0  0  0  0  0  0  0
   -1.9880   -2.7028   -3.0024 C   0  0  0  0  0  0  0  0  0  0  0  0
   -1.6503   -3.9644   -2.4880 C   0  0  0  0  0  0  0  0  0  0  0  0
   -2.0846   -5.6290   -2.6952 S   0  0  0  0  0  0  0  0  0  0  0  0
   -1.0143   -6.0455   -1.3777 C   0  0  0  0  0  0  0  0  0  0  0  0
   -0.6743   -7.2709   -0.7781 C   0  0  0  0  0  0  0  0  0  0  0  0
   -1.2138   -8.5720   -1.1803 C   0  0  0  0  0  0  0  0  0  0  0  0
   -2.5882   -8.7652   -1.2736 C   0  0  0  0  0  0  0  0  0  0  0  0
   -3.0843  -10.0153   -1.5908 C   0  0  0  0  0  0  0  0  0  0  0  0
   -2.2231  -11.0759   -1.8110 C   0  0  0  0  0  0  0  0  0  0  0  0
   -0.8477  -10.8931   -1.7528 C   0  0  0  0  0  0  0  0  0  0  0  0
    0.1048  -12.0377   -1.9457 C   0  0  0  0  0  0  0  0  0  0  0  0
    0.6306  -12.5185   -0.5917 C   0  0  0  0  0  0  0  0  0  0  0  0
   -0.3567   -9.6335   -1.4486 C   0  0  0  0  0  0  0  0  0  0  0  0
    0.2475   -7.1008    0.2412 C   0  0  0  0  0  0  0  0  0  0  0  0
    0.6864   -5.4099    0.4639 S   0  0  0  0  0  0  0  0  0  0  0  0
   -0.3560   -4.9427   -0.8308 C   0  0  0  0  0  0  0  0  0  0  0  0
   -0.7187   -3.7510   -1.4708 C   0  0  0  0  0  0  0  0  0  0  0  0
   -0.4414   -2.4159   -1.3600 N   0  0  0  0  0  0  0  0  0  0  0  0
   -1.2164   -1.7402   -2.2896 C   0  0  0  0  0  0  0  0  0  0  0  0
   -1.3682   -0.3646   -2.6120 C   0  0  0  0  0  0  0  0  0  0  0  0
   -0.7326    0.7891   -2.1709 N   0  0  0  0  0  0  0  0  0  0  0  0
   -1.3650    1.8575   -2.7492 C   0  0  0  0  0  0  0  0  0  0  0  0
   -1.2630    3.2539   -2.7287 C   0  0  0  0  0  0  0  0  0  0  0  0
   -0.2728    4.4279   -1.9440 S   0  0  0  0  0  0  0  0  0  0  0  0
    0.6008    0.9790   -1.6429 C   0  0  0  0  0  0  0  0  0  0  0  0
    1.6580    0.3853   -2.5707 C   0  0  0  0  0  0  0  0  0  0  0  0
    0.2713   -1.9350   -0.1998 C   0  0  0  0  0  0  0  0  0  0  0  0
   -0.6654   -1.2380    0.7844 C   0  0  0  0  0  0  0  0  0  0  0  0
    0.7048   -8.0738    1.1739 C   0  0  0  0  0  0  0  0  0  0  0  0
    1.8681   -8.0653    1.9426 C   0  0  0  0  0  0  0  0  0  0  0  0
    2.9423   -7.2148    1.7775 N   0  0  0  0  0  0  0  0  0  0  0  0
    3.8378   -7.0517    2.8561 C   0  0  0  0  0  0  0  0  0  0  0  0
    5.1974   -7.2962    2.6833 C   0  0  0  0  0  0  0  0  0  0  0  0
    6.0586   -7.1994    3.7563 C   0  0  0  0  0  0  0  0  0  0  0  0
    5.5928   -6.8573    5.0218 C   0  0  0  0  0  0  0  0  0  0  0  0
    6.5412   -6.7680    6.1766 C   0  0  0  0  0  0  0  0  0  0  0  0
    4.2393   -6.5882    5.1786 C   0  0  0  0  0  0  0  0  0  0  0  0
    3.3656   -6.6803    4.1109 C   0  0  0  0  0  0  0  0  0  0  0  0
    3.3344   -6.7687    0.5065 C   0  0  0  0  0  0  0  0  0  0  0  0
    3.1287   -7.5396   -0.6351 C   0  0  0  0  0  0  0  0  0  0  0  0
    3.4676   -7.0453   -1.8771 C   0  0  0  0  0  0  0  0  0  0  0  0
    4.0357   -5.7834   -2.0184 C   0  0  0  0  0  0  0  0  0  0  0  0
    4.3755   -5.2572   -3.3791 C   0  0  0  0  0  0  0  0  0  0  0  0
    4.2755   -5.0379   -0.8718 C   0  0  0  0  0  0  0  0  0  0  0  0
    3.9302   -5.5171    0.3768 C   0  0  0  0  0  0  0  0  0  0  0  0
    1.8451   -9.1131    2.8895 C   0  0  0  0  0  0  0  0  0  0  0  0
    2.9440   -9.6090    4.1198 S   0  0  0  0  0  0  0  0  0  0  0  0
    1.9203  -10.9927    4.5179 C   0  0  0  0  0  0  0  0  0  0  0  0
    0.7919  -11.0661    3.6705 C   0  0  0  0  0  0  0  0  0  0  0  0
   -0.1062  -12.0884    3.6630 N   0  0  0  0  0  0  0  0  0  0  0  0
    0.2545  -13.4025    4.0406 C   0  0  0  0  0  0  0  0  0  0  0  0
   -0.6404  -14.1676    4.7804 C   0  0  0  0  0  0  0  0  0  0  0  0
   -0.3068  -15.4571    5.1460 C   0  0  0  0  0  0  0  0  0  0  0  0
    0.9158  -16.0099    4.7840 C   0  0  0  0  0  0  0  0  0  0  0  0
    1.2865  -17.3940    5.2168 C   0  0  0  0  0  0  0  0  0  0  0  0
    1.7936  -15.2391    4.0294 C   0  0  0  0  0  0  0  0  0  0  0  0
    1.4722  -13.9512    3.6511 C   0  0  0  0  0  0  0  0  0  0  0  0
   -1.3841  -11.8944    3.1012 C   0  0  0  0  0  0  0  0  0  0  0  0
   -2.1406  -10.7762    3.4425 C   0  0  0  0  0  0  0  0  0  0  0  0
   -3.3747  -10.5735    2.8588 C   0  0  0  0  0  0  0  0  0  0  0  0
   -3.8870  -11.4740    1.9316 C   0  0  0  0  0  0  0  0  0  0  0  0
   -5.2228  -11.2308    1.3022 C   0  0  0  0  0  0  0  0  0  0  0  0
   -3.1406  -12.6051    1.6270 C   0  0  0  0  0  0  0  0  0  0  0  0
   -1.9058  -12.8222    2.2059 C   0  0  0  0  0  0  0  0  0  0  0  0
    0.7468   -9.9568    2.7983 C   0  0  0  0  0  0  0  0  0  0  0  0
   -0.3385   -9.4403    1.5520 S   0  0  0  0  0  0  0  0  0  0  0  0
    2.1424  -11.7367    5.6777 C   0  0  0  0  0  0  0  0  0  0  0  0
    3.2155  -11.6520    6.5344 C   0  0  0  0  0  0  0  0  0  0  0  0
    3.0520  -11.9868    7.9617 C   0  0  0  0  0  0  0  0  0  0  0  0
    2.1402  -12.5962    8.4801 O   0  0  0  0  0  0  0  0  0  0  0  0
    4.2137  -11.3571    8.6378 C   0  0  0  0  0  0  0  0  0  0  0  0
    4.4927  -11.2520    9.9859 C   0  0  0  0  0  0  0  0  0  0  0  0
    5.6262  -10.5535   10.3779 C   0  0  0  0  0  0  0  0  0  0  0  0
    6.4481   -9.9864    9.4154 C   0  0  0  0  0  0  0  0  0  0  0  0
    7.9753   -8.9994    9.9746 Br  0  0  0  0  0  0  0  0  0  0  0  0
    6.1968  -10.1004    8.0534 C   0  0  0  0  0  0  0  0  0  0  0  0
    5.0640  -10.7930    7.6695 C   0  0  0  0  0  0  0  0  0  0  0  0
    4.5302  -11.1052    6.3437 C   0  0  0  0  0  0  0  0  0  0  0  0
    5.2618  -11.1279    5.1785 C   0  0  0  0  0  0  0  0  0  0  0  0
    4.8023  -11.7881    4.0221 C   0  0  0  0  0  0  0  0  0  0  0  0
    4.4705  -12.3816    3.0957 N   0  0  0  0  0  0  0  0  0  0  0  0
    6.5444  -10.5711    5.0471 C   0  0  0  0  0  0  0  0  0  0  0  0
    7.5794  -10.0962    4.8928 N   0  0  0  0  0  0  0  0  0  0  0  0
    1.3064   12.7174    0.1518 H   0  0  0  0  0  0  0  0  0  0  0  0
   -2.7190   16.6396    1.1425 H   0  0  0  0  0  0  0  0  0  0  0  0
   -2.9276   18.7985    2.3353 H   0  0  0  0  0  0  0  0  0  0  0  0
   -1.2830   20.5892    1.9281 H   0  0  0  0  0  0  0  0  0  0  0  0
    0.5766   20.2248    0.3521 H   0  0  0  0  0  0  0  0  0  0  0  0
    0.7827   18.0670   -0.8373 H   0  0  0  0  0  0  0  0  0  0  0  0
   -1.9071   11.4160   -3.8021 H   0  0  0  0  0  0  0  0  0  0  0  0
   -3.5898   11.1454   -5.5679 H   0  0  0  0  0  0  0  0  0  0  0  0
   -6.9129    9.9267   -5.1467 H   0  0  0  0  0  0  0  0  0  0  0  0
   -5.8210   10.7547   -6.2699 H   0  0  0  0  0  0  0  0  0  0  0  0
   -6.9030   11.6845   -5.2336 H   0  0  0  0  0  0  0  0  0  0  0  0
   -6.6087   10.5849   -2.6075 H   0  0  0  0  0  0  0  0  0  0  0  0
   -4.9255   10.8367   -0.8379 H   0  0  0  0  0  0  0  0  0  0  0  0
   -4.1012   13.3870   -1.1183 H   0  0  0  0  0  0  0  0  0  0  0  0
   -4.6120   14.7938    0.8108 H   0  0  0  0  0  0  0  0  0  0  0  0
   -4.3208   15.3860    3.1037 H   0  0  0  0  0  0  0  0  0  0  0  0
   -2.6158   15.2631    3.5603 H   0  0  0  0  0  0  0  0  0  0  0  0
   -3.7764   14.0966    4.1837 H   0  0  0  0  0  0  0  0  0  0  0  0
   -1.8378   12.5746    3.1731 H   0  0  0  0  0  0  0  0  0  0  0  0
   -1.3500   11.1364    1.2590 H   0  0  0  0  0  0  0  0  0  0  0  0
    3.0995    4.7193   -1.8951 H   0  0  0  0  0  0  0  0  0  0  0  0
    3.4984    3.0623   -3.6577 H   0  0  0  0  0  0  0  0  0  0  0  0
    1.6060    2.6004   -6.4544 H   0  0  0  0  0  0  0  0  0  0  0  0
    3.2568    2.3018   -5.8966 H   0  0  0  0  0  0  0  0  0  0  0  0
    2.9387    3.5282   -7.1300 H   0  0  0  0  0  0  0  0  0  0  0  0
    1.2291    5.4183   -6.3944 H   0  0  0  0  0  0  0  0  0  0  0  0
    0.8728    7.1044   -4.6483 H   0  0  0  0  0  0  0  0  0  0  0  0
    1.1416    7.2532    0.4595 H   0  0  0  0  0  0  0  0  0  0  0  0
    2.7863    7.7656    2.2099 H   0  0  0  0  0  0  0  0  0  0  0  0
    5.1587    7.6683    2.9133 H   0  0  0  0  0  0  0  0  0  0  0  0
    6.4490    7.6830    1.7006 H   0  0  0  0  0  0  0  0  0  0  0  0
    5.5541    9.1578    2.0602 H   0  0  0  0  0  0  0  0  0  0  0  0
    5.9115    7.6540   -0.6900 H   0  0  0  0  0  0  0  0  0  0  0  0
    4.2680    7.1704   -2.4490 H   0  0  0  0  0  0  0  0  0  0  0  0
   -1.3822    7.2329   -5.2737 H   0  0  0  0  0  0  0  0  0  0  0  0
   -2.8600    8.6140   -6.6792 H   0  0  0  0  0  0  0  0  0  0  0  0
   -5.2943    8.2620   -6.6302 H   0  0  0  0  0  0  0  0  0  0  0  0
   -6.9246    5.4136   -5.2096 H   0  0  0  0  0  0  0  0  0  0  0  0
   -7.1775    6.9989   -5.9512 H   0  0  0  0  0  0  0  0  0  0  0  0
   -8.3280    6.9074   -3.7690 H   0  0  0  0  0  0  0  0  0  0  0  0
   -6.9820    8.0519   -3.6663 H   0  0  0  0  0  0  0  0  0  0  0  0
   -6.8259    6.4479   -2.9620 H   0  0  0  0  0  0  0  0  0  0  0  0
   -4.7832    5.1313   -3.7813 H   0  0  0  0  0  0  0  0  0  0  0  0
   -3.2583   -7.9408   -1.0814 H   0  0  0  0  0  0  0  0  0  0  0  0
   -4.1514  -10.1659   -1.6604 H   0  0  0  0  0  0  0  0  0  0  0  0
   -2.6214  -12.0537   -2.0403 H   0  0  0  0  0  0  0  0  0  0  0  0
   -0.4008  -12.8621   -2.4515 H   0  0  0  0  0  0  0  0  0  0  0  0
    0.9456  -11.7205   -2.5668 H   0  0  0  0  0  0  0  0  0  0  0  0
   -0.1987  -12.8172    0.0452 H   0  0  0  0  0  0  0  0  0  0  0  0
    1.1734  -11.7222   -0.0872 H   0  0  0  0  0  0  0  0  0  0  0  0
    1.3005  -13.3656   -0.7188 H   0  0  0  0  0  0  0  0  0  0  0  0
    0.7111   -9.4702   -1.4143 H   0  0  0  0  0  0  0  0  0  0  0  0
    0.7542    2.0589   -1.5729 H   0  0  0  0  0  0  0  0  0  0  0  0
    0.6814    0.5788   -0.6326 H   0  0  0  0  0  0  0  0  0  0  0  0
    1.6165    0.8792   -3.5389 H   0  0  0  0  0  0  0  0  0  0  0  0
    2.6476    0.5334   -2.1465 H   0  0  0  0  0  0  0  0  0  0  0  0
    1.4947   -0.6794   -2.7232 H   0  0  0  0  0  0  0  0  0  0  0  0
    0.7097   -2.8134    0.2807 H   0  0  0  0  0  0  0  0  0  0  0  0
    1.0974   -1.2899   -0.4993 H   0  0  0  0  0  0  0  0  0  0  0  0
   -0.1012   -0.8634    1.6343 H   0  0  0  0  0  0  0  0  0  0  0  0
   -1.4098   -1.9431    1.1467 H   0  0  0  0  0  0  0  0  0  0  0  0
   -1.1862   -0.4087    0.3116 H   0  0  0  0  0  0  0  0  0  0  0  0
    5.5665   -7.5825    1.7094 H   0  0  0  0  0  0  0  0  0  0  0  0
    7.1067   -7.4184    3.6182 H   0  0  0  0  0  0  0  0  0  0  0  0
    6.0283   -6.9481    7.1189 H   0  0  0  0  0  0  0  0  0  0  0  0
    7.3478   -7.4883    6.0603 H   0  0  0  0  0  0  0  0  0  0  0  0
    6.9867   -5.7737    6.2206 H   0  0  0  0  0  0  0  0  0  0  0  0
    3.8592   -6.3096    6.1511 H   0  0  0  0  0  0  0  0  0  0  0  0
    2.3127   -6.4767    4.2441 H   0  0  0  0  0  0  0  0  0  0  0  0
    2.7102   -8.5306   -0.5413 H   0  0  0  0  0  0  0  0  0  0  0  0
    3.2942   -7.6508   -2.7552 H   0  0  0  0  0  0  0  0  0  0  0  0
    4.8841   -4.2989   -3.3109 H   0  0  0  0  0  0  0  0  0  0  0  0
    5.0200   -5.9572   -3.9087 H   0  0  0  0  0  0  0  0  0  0  0  0
    3.4696   -5.1281   -3.9712 H   0  0  0  0  0  0  0  0  0  0  0  0
    4.7298   -4.0609   -0.9549 H   0  0  0  0  0  0  0  0  0  0  0  0
    4.1078   -4.9228    1.2608 H   0  0  0  0  0  0  0  0  0  0  0  0
   -1.5904  -13.7436    5.0715 H   0  0  0  0  0  0  0  0  0  0  0  0
   -1.0049  -16.0400    5.7286 H   0  0  0  0  0  0  0  0  0  0  0  0
    1.7504  -17.3592    6.2031 H   0  0  0  0  0  0  0  0  0  0  0  0
    0.4068  -18.0301    5.2827 H   0  0  0  0  0  0  0  0  0  0  0  0
    1.9976  -17.8403    4.5260 H   0  0  0  0  0  0  0  0  0  0  0  0
    2.7436  -15.6527    3.7254 H   0  0  0  0  0  0  0  0  0  0  0  0
    2.1682  -13.3712    3.0641 H   0  0  0  0  0  0  0  0  0  0  0  0
   -1.7568  -10.0739    4.1680 H   0  0  0  0  0  0  0  0  0  0  0  0
   -3.9513   -9.7004    3.1266 H   0  0  0  0  0  0  0  0  0  0  0  0
   -5.3999  -11.9245    0.4847 H   0  0  0  0  0  0  0  0  0  0  0  0
   -5.2820  -10.2131    0.9214 H   0  0  0  0  0  0  0  0  0  0  0  0
   -6.0158  -11.3577    2.0394 H   0  0  0  0  0  0  0  0  0  0  0  0
   -3.5265  -13.3253    0.9207 H   0  0  0  0  0  0  0  0  0  0  0  0
   -1.3352  -13.7073    1.9654 H   0  0  0  0  0  0  0  0  0  0  0  0
    1.3179  -12.3448    6.0331 H   0  0  0  0  0  0  0  0  0  0  0  0
    3.8363  -11.7012   10.7149 H   0  0  0  0  0  0  0  0  0  0  0  0
    5.8696  -10.4446   11.4236 H   0  0  0  0  0  0  0  0  0  0  0  0
    6.8607   -9.6491    7.3346 H   0  0  0  0  0  0  0  0  0  0  0  0
  1  2  2  0  0  0  0
  2  3  1  0  0  0  0
  3  4  1  0  0  0  0
  4  5  2  0  0  0  0
  5  6  1  0  0  0  0
  6  7  3  0  0  0  0
  5  8  1  0  0  0  0
  8  9  3  0  0  0  0
  4 10  1  0  0  0  0
 10 11  1  0  0  0  0
 11 12  2  0  0  0  0
 12 13  1  0  0  0  0
 13 14  2  0  0  0  0
 14 15  1  0  0  0  0
 15 16  2  0  0  0  0
 10 17  1  0  0  0  0
 17 18  2  0  0  0  0
  1 19  1  0  0  0  0
 19 20  2  0  0  0  0
 20 21  1  0  0  0  0
 21 22  1  0  0  0  0
 22 23  2  0  0  0  0
 23 24  1  0  0  0  0
 24 25  2  0  0  0  0
 25 26  1  0  0  0  0
 25 27  1  0  0  0  0
 27 28  2  0  0  0  0
 21 29  1  0  0  0  0
 29 30  2  0  0  0  0
 30 31  1  0  0  0  0
 31 32  2  0  0  0  0
 32 33  1  0  0  0  0
 32 34  1  0  0  0  0
 34 35  2  0  0  0  0
 20 36  1  0  0  0  0
 36 37  1  0  0  0  0
 37 38  1  0  0  0  0
 38 39  2  0  0  0  0
 39 40  1  0  0  0  0
 40 41  1  0  0  0  0
 41 42  2  0  0  0  0
 42 43  1  0  0  0  0
 43 44  2  0  0  0  0
 44 45  1  0  0  0  0
 44 46  1  0  0  0  0
 46 47  2  0  0  0  0
 40 48  1  0  0  0  0
 48 49  2  0  0  0  0
 49 50  1  0  0  0  0
 50 51  2  0  0  0  0
 51 52  1  0  0  0  0
 51 53  1  0  0  0  0
 53 54  2  0  0  0  0
 39 55  1  0  0  0  0
 55 56  1  0  0  0  0
 38 57  1  0  0  0  0
 57 58  2  0  0  0  0
 58 59  1  0  0  0  0
 59 60  2  0  0  0  0
 60 61  1  0  0  0  0
 61 62  2  0  0  0  0
 62 63  1  0  0  0  0
 63 64  1  0  0  0  0
 64 65  1  0  0  0  0
 63 66  2  0  0  0  0
 58 67  1  0  0  0  0
 67 68  1  0  0  0  0
 68 69  1  0  0  0  0
 69 70  1  0  0  0  0
 70 71  1  0  0  0  0
 71 72  1  0  0  0  0
 72 73  2  0  0  0  0
 73 74  1  0  0  0  0
 74 75  1  0  0  0  0
 72 76  1  0  0  0  0
 76 77  1  0  0  0  0
 77 78  1  0  0  0  0
 78 79  1  0  0  0  0
 79 80  1  0  0  0  0
 80 81  1  0  0  0  0
 81 82  2  0  0  0  0
 82 83  1  0  0  0  0
 83 84  2  0  0  0  0
 84 85  1  0  0  0  0
 85 86  1  0  0  0  0
 86 87  1  0  0  0  0
 85 88  2  0  0  0  0
 80 89  2  0  0  0  0
 89 90  1  0  0  0  0
 90 91  1  0  0  0  0
 91 92  1  0  0  0  0
 92 93  1  0  0  0  0
 93 94  1  0  0  0  0
 94 95  1  0  0  0  0
 95 96  1  0  0  0  0
 96 97  1  0  0  0  0
 97 98  1  0  0  0  0
 98 99  1  0  0  0  0
 96100  1  0  0  0  0
100101  1  0  0  0  0
 93102  1  0  0  0  0
102103  1  0  0  0  0
 89104  1  0  0  0  0
104105  2  0  0  0  0
105106  1  0  0  0  0
106107  1  0  0  0  0
107108  2  0  0  0  0
108109  1  0  0  0  0
109110  2  0  0  0  0
110111  1  0  0  0  0
110112  1  0  0  0  0
112113  2  0  0  0  0
106114  1  0  0  0  0
114115  2  0  0  0  0
115116  1  0  0  0  0
116117  2  0  0  0  0
117118  1  0  0  0  0
117119  1  0  0  0  0
119120  2  0  0  0  0
105121  1  0  0  0  0
121122  1  0  0  0  0
122123  1  0  0  0  0
123124  2  0  0  0  0
124125  1  0  0  0  0
125126  1  0  0  0  0
126127  2  0  0  0  0
127128  1  0  0  0  0
128129  2  0  0  0  0
129130  1  0  0  0  0
129131  1  0  0  0  0
131132  2  0  0  0  0
125133  1  0  0  0  0
133134  2  0  0  0  0
134135  1  0  0  0  0
135136  2  0  0  0  0
136137  1  0  0  0  0
136138  1  0  0  0  0
138139  2  0  0  0  0
124140  1  0  0  0  0
140141  1  0  0  0  0
123142  1  0  0  0  0
142143  2  0  0  0  0
143144  1  0  0  0  0
144145  2  0  0  0  0
144146  1  0  0  0  0
146147  2  0  0  0  0
147148  1  0  0  0  0
148149  2  0  0  0  0
149150  1  0  0  0  0
149151  1  0  0  0  0
151152  2  0  0  0  0
152153  1  0  0  0  0
153154  2  0  0  0  0
154155  1  0  0  0  0
155156  3  0  0  0  0
154157  1  0  0  0  0
157158  3  0  0  0  0
 17  2  1  0  0  0  0
 56 19  1  0  0  0  0
 99 57  1  0  0  0  0
141104  1  0  0  0  0
153143  1  0  0  0  0
 16 11  1  0  0  0  0
 28 22  1  0  0  0  0
 35 29  1  0  0  0  0
 55 36  2  0  0  0  0
 66 59  1  0  0  0  0
 98 67  2  0  0  0  0
113107  1  0  0  0  0
120114  1  0  0  0  0
140121  2  0  0  0  0
152146  1  0  0  0  0
 47 41  1  0  0  0  0
 54 48  1  0  0  0  0
 97 69  2  0  0  0  0
132126  1  0  0  0  0
139133  1  0  0  0  0
 95 70  2  0  0  0  0
 75 71  2  0  0  0  0
 94 76  2  0  0  0  0
 92 77  2  0  0  0  0
 91 79  2  0  0  0  0
 88 81  1  0  0  0  0
  1159  1  0  0  0  0
 12160  1  0  0  0  0
 13161  1  0  0  0  0
 14162  1  0  0  0  0
 15163  1  0  0  0  0
 16164  1  0  0  0  0
 23165  1  0  0  0  0
 24166  1  0  0  0  0
 26167  1  0  0  0  0
 26168  1  0  0  0  0
 26169  1  0  0  0  0
 27170  1  0  0  0  0
 28171  1  0  0  0  0
 30172  1  0  0  0  0
 31173  1  0  0  0  0
 33174  1  0  0  0  0
 33175  1  0  0  0  0
 33176  1  0  0  0  0
 34177  1  0  0  0  0
 35178  1  0  0  0  0
 42179  1  0  0  0  0
 43180  1  0  0  0  0
 45181  1  0  0  0  0
 45182  1  0  0  0  0
 45183  1  0  0  0  0
 46184  1  0  0  0  0
 47185  1  0  0  0  0
 49186  1  0  0  0  0
 50187  1  0  0  0  0
 52188  1  0  0  0  0
 52189  1  0  0  0  0
 52190  1  0  0  0  0
 53191  1  0  0  0  0
 54192  1  0  0  0  0
 60193  1  0  0  0  0
 61194  1  0  0  0  0
 62195  1  0  0  0  0
 64196  1  0  0  0  0
 64197  1  0  0  0  0
 65198  1  0  0  0  0
 65199  1  0  0  0  0
 65200  1  0  0  0  0
 66201  1  0  0  0  0
 82202  1  0  0  0  0
 83203  1  0  0  0  0
 84204  1  0  0  0  0
 86205  1  0  0  0  0
 86206  1  0  0  0  0
 87207  1  0  0  0  0
 87208  1  0  0  0  0
 87209  1  0  0  0  0
 88210  1  0  0  0  0
100211  1  0  0  0  0
100212  1  0  0  0  0
101213  1  0  0  0  0
101214  1  0  0  0  0
101215  1  0  0  0  0
102216  1  0  0  0  0
102217  1  0  0  0  0
103218  1  0  0  0  0
103219  1  0  0  0  0
103220  1  0  0  0  0
108221  1  0  0  0  0
109222  1  0  0  0  0
111223  1  0  0  0  0
111224  1  0  0  0  0
111225  1  0  0  0  0
112226  1  0  0  0  0
113227  1  0  0  0  0
115228  1  0  0  0  0
116229  1  0  0  0  0
118230  1  0  0  0  0
118231  1  0  0  0  0
118232  1  0  0  0  0
119233  1  0  0  0  0
120234  1  0  0  0  0
127235  1  0  0  0  0
128236  1  0  0  0  0
130237  1  0  0  0  0
130238  1  0  0  0  0
130239  1  0  0  0  0
131240  1  0  0  0  0
132241  1  0  0  0  0
134242  1  0  0  0  0
135243  1  0  0  0  0
137244  1  0  0  0  0
137245  1  0  0  0  0
137246  1  0  0  0  0
138247  1  0  0  0  0
139248  1  0  0  0  0
142249  1  0  0  0  0
147250  1  0  0  0  0
148251  1  0  0  0  0
151252  1  0  0  0  0
M  END
