237

C         -9.83030        5.89850       -5.03150
C        -10.22170        6.78320       -4.07200
S        -11.75970        7.62690       -4.27250
C        -11.52040        8.52050       -2.79530
C        -12.47000        9.37090       -2.28850
C        -12.37080       10.04250       -1.05740
N        -12.37060       10.59660       -0.05130
C        -13.66720        9.59120       -2.99760
N        -14.64040        9.77910       -3.57530
N        -10.31840        8.22200       -2.23520
C         -9.79950        8.90150       -1.09310
C         -9.43400       10.23550       -1.20140
C         -8.91270       10.88460       -0.09810
C         -8.74730       10.20220        1.09530
C         -9.09570        8.86580        1.18790
C         -9.62320        8.20650        0.09230
C         -9.54560        7.25250       -2.86800
O         -8.46130        6.92380       -2.43730
C         -8.68560        5.07410       -5.10730
C         -7.73110        4.75330       -4.17400
C         -6.72380        3.89730       -4.65490
C         -5.58980        3.41650       -3.95210
C         -5.30340        3.84310       -2.60490
C         -5.54190        5.06890       -2.02260
C         -5.17890        5.13420       -0.67700
C         -4.64540        3.96010       -0.18830
C         -4.18230        3.63710        1.11940
C         -4.37630        4.40500        2.21460
C         -3.92280        4.09190        3.52490
C         -4.20420        4.77550        4.68420
C         -3.62430        4.22140        5.83400
C         -2.87770        3.10610        5.56440
S         -1.96290        2.06050        6.62330
C         -2.18730        2.82560        8.26540
C         -1.34380        4.07010        8.45660
S         -2.89420        2.71800        3.87140
S         -4.57770        2.75980       -1.44680
C         -4.79030        2.51150       -4.64410
C         -5.02820        2.10660       -5.98170
C         -6.12420        2.63440       -6.69970
C         -6.36060        2.27300       -8.08030
C         -5.44090        2.09110       -9.08150
C         -6.00940        1.72070      -10.30710
C         -7.37660        1.61690      -10.26850
C         -8.30630        1.17450      -11.27010
C         -8.27940        1.39590      -12.59860
C         -7.45250        2.26340      -13.37770
C         -7.45680        2.32380      -14.75060
C         -6.64350        3.33140      -15.29060
C         -6.02080        4.07010      -14.32290
S         -4.92820        5.42240      -14.46360
C         -4.93110        5.70830      -16.27500
C         -4.08160        6.92450      -16.58830
S         -6.41970        3.51480      -12.72730
S         -7.97010        1.97820       -8.67100
C         -6.95590        3.50110       -5.99950
S         -8.38340        4.25900       -6.63930
C         -4.08260        1.15200       -6.42660
C         -3.12810        0.85290       -5.49720
S         -3.36290        1.74730       -4.00790
C         -2.01800       -0.03970       -5.57000
C         -1.74680       -1.07750       -6.44370
C         -2.62440       -1.54440       -7.52120
C         -2.12070       -1.69110       -8.80930
C         -2.94860       -2.13390       -9.82420
C         -4.27010       -2.44710       -9.56060
C         -4.78040       -2.33500       -8.27280
C         -6.21990       -2.64820       -7.98390
C         -7.06390       -1.37730       -8.08520
C         -3.94920       -1.87830       -7.26170
C         -0.51730       -1.69590       -6.13390
S          0.29950       -3.11100       -6.76480
C          1.49460       -2.96020       -5.51410
C          2.57370       -3.67550       -4.96070
C          3.08150       -4.97040       -5.21530
C          3.96570       -5.57810       -4.25460
N          4.27270       -6.82560       -4.57180
S          3.52960       -7.20280       -5.96010
N          2.77770       -5.79110       -6.20760
C          4.41760       -4.81570       -3.15420
C          5.24570       -5.11070       -2.05410
S          5.96080       -6.48780       -1.28580
C          6.43510       -5.47700        0.06250
C          6.96610       -5.75760        1.34280
C          7.36400       -7.07800        1.82250
C          6.65150       -8.21490        1.44780
C          7.03900       -9.45650        1.91330
C          8.12430       -9.57620        2.76210
C          8.84150       -8.45310        3.15650
C         10.02980       -8.58460        4.06570
C         11.28410       -8.94430        3.26760
C          8.46520       -7.21430        2.66520
C          7.02770       -4.60500        2.11160
S          6.53270       -3.17150        1.22590
C          6.11200       -4.13210       -0.14140
C          5.41720       -3.92270       -1.33620
N          4.72320       -2.90090       -1.93940
C          4.05470       -3.45030       -3.02160
C          3.02140       -2.92900       -3.83590
N          2.22870       -1.80340       -3.70080
C          1.29020       -1.84810       -4.69360
C          0.13570       -1.13680       -5.03540
S         -0.75080        0.18620       -4.37680
C          1.96230       -1.01120       -2.52040
C          1.32200       -1.85690       -1.42270
C          5.14640       -1.51930       -1.81650
C          4.73230       -0.86180       -0.50090
C          7.11020       -4.41740        3.52230
C          6.95470       -3.22680        4.19060
C          6.76080       -3.54530        5.55270
C          6.41310       -2.77590        6.67060
C          6.07760       -1.35280        6.63940
C          5.36510       -0.81370        5.57070
C          5.00310        0.51650        5.59420
F          4.31420        1.00830        4.54130
C          5.30450        1.37470        6.64550
C          4.96560        2.83450        6.60570
C          6.04250        3.61020        5.84260
C          5.99160        0.79240        7.70380
F          6.29200        1.55910        8.77610
C          6.38060       -0.53070        7.72170
C          6.21200       -3.52400        7.82110
C          6.33000       -4.93750        7.91120
C          6.70480       -5.70420        6.78770
C          6.84400       -7.15980        6.83470
C          7.43870       -7.76390        7.94090
C          7.56960       -9.13640        7.98070
C          7.11400       -9.97590        6.97030
C          7.28010      -11.46540        7.03070
C          8.61060      -11.88650        6.40270
C          6.52870       -9.33470        5.88320
C          6.39690       -7.96440        5.78930
F          6.04430      -10.09480        4.88110
F          8.15790       -9.68920        9.06290
C          6.87220       -4.96380        5.62620
O          7.10130       -5.46910        4.38800
C          5.80990       -5.26490        9.19210
C          5.38780       -4.08180        9.75660
O          5.70530       -3.03010        8.96170
C          4.58430       -3.79330       10.90350
C          3.69570       -2.76620       10.91080
S          2.85880       -2.23130       12.35940
C          2.04730       -0.95420       11.47670
C          1.11250       -0.13780       12.06030
C          0.32440        0.78880       11.35540
N         -0.38020        1.52970       10.83180
C          0.83630       -0.24010       13.43820
N          0.61300       -0.30900       14.56100
N          2.40800       -0.95180       10.16850
C          2.06700        0.07830        9.24360
C          2.48910        1.37730        9.49260
C          2.20970        2.36620        8.56860
C          1.54440        2.05370        7.39440
C          1.14400        0.75280        7.14620
C          1.39660       -0.24190        8.07380
C          3.22240       -2.00050        9.74380
O          3.40520       -2.23890        8.57560
H        -10.49160        5.81980       -5.88760
H         -9.56340       10.75740       -2.13850
H         -8.63610       11.92490       -0.17280
H         -8.34410       10.71450        1.95550
H         -8.96290        8.33270        2.11690
H         -9.89810        7.16440        0.15090
H         -7.78120        5.10610       -3.16370
H         -5.93150        5.91490       -2.55820
H         -5.29450        6.02300       -0.08400
H         -3.65990        2.69510        1.22580
H         -4.93290        5.32900        2.13260
H         -4.82280        5.65530        4.70510
H         -3.76190        4.63370        6.81640
H         -3.25180        3.01770        8.39270
H         -1.87430        2.05130        8.96540
H         -1.55030        4.49490        9.43640
H         -0.28950        3.81200        8.41100
H         -1.55650        4.81810        7.69560
H         -4.38720        2.26030       -8.95110
H         -5.42700        1.49680      -11.18190
H         -9.13200        0.59000      -10.88290
H         -9.03140        0.89160      -13.19450
H         -8.03150        1.64840      -15.35990
H         -6.53190        3.49560      -16.34620
H         -5.96640        5.86080      -16.57950
H         -4.52860        4.81400      -16.75070
H         -3.05870        6.77110      -16.25280
H         -4.07490        7.10290      -17.66140
H         -4.47960        7.80500      -16.08970
H         -4.11490        0.69090       -7.39510
H         -1.08880       -1.44580       -9.01170
H         -2.55940       -2.23730      -10.82630
H         -4.91160       -2.79190      -10.35880
H         -6.58990       -3.38610       -8.69820
H         -6.31400       -3.06560       -6.97940
H         -6.97690       -0.94810       -9.08100
H         -6.72380       -0.63840       -7.36250
H         -8.11130       -1.59460       -7.89020
H         -4.32980       -1.78850       -6.25410
H          5.78610       -8.12380        0.80980
H          6.48300      -10.33490        1.62350
H          8.41380      -10.55100        3.12660
H          9.83960       -9.36200        4.80880
H         10.19290       -7.64410        4.59610
H         11.14170       -9.88580        2.74200
H         11.49820       -8.17220        2.53200
H         12.14200       -9.04190        3.92890
H          9.04040       -6.34030        2.93370
H          2.86800       -0.53150       -2.16100
H          1.26960       -0.22230       -2.82300
H          0.39670       -2.29910       -1.78480
H          1.98850       -2.65980       -1.11510
H          1.09270       -1.23530       -0.56150
H          4.75220       -0.97660       -2.67760
H          6.24030       -1.49270       -1.89150
H          3.70230       -1.08910       -0.24540
H          4.84840        0.21600       -0.57970
H          5.36080       -1.20950        0.31240
H          6.96100       -2.25330        3.74600
H          5.05860       -1.42750        4.74040
H          4.89410        3.21800        7.62380
H          4.00340        2.96770        6.10940
H          5.79450        4.66820        5.82050
H          7.01040        3.49050        6.32440
H          6.11610        3.24950        4.81930
H          6.92080       -0.90980        8.57340
H          7.82210       -7.17220        8.75640
H          6.45940      -11.94230        6.49260
H          7.25400      -11.79020        8.07210
H          8.72610      -12.96560        6.46170
H          9.44270      -11.41970        6.92560
H          8.64400      -11.59140        5.35660
H          5.93430       -7.53900        4.91470
H          5.67990       -6.24310        9.60800
H          4.69520       -4.41640       11.77910
H          3.03000        1.61000       10.39840
H          2.51970        3.38080        8.76810
H          1.33450        2.82360        6.66750
H          0.62400        0.51260        6.23270
H          1.08430       -1.25740        7.89110
