
  xtb     02152222313D
 energy: -274.892822116899 gnorm: 0.000443272772 xtb: 6.4.1 (unknown)
157174  0     0  0            999 V2000
  -10.4384    1.5679   -4.1332 C   0  0  0  0  0  0  0  0  0  0  0  0
  -10.6435    1.3361   -2.8104 C   0  0  0  0  0  0  0  0  0  0  0  0
   -9.4088    1.1167   -1.5890 S   0  0  0  0  0  0  0  0  0  0  0  0
  -10.6303    0.9505   -0.3449 C   0  0  0  0  0  0  0  0  0  0  0  0
  -10.2911    0.8289    0.9782 C   0  0  0  0  0  0  0  0  0  0  0  0
  -11.2069    0.7861    2.0444 C   0  0  0  0  0  0  0  0  0  0  0  0
  -11.8919    0.7700    2.9660 N   0  0  0  0  0  0  0  0  0  0  0  0
   -8.9328    0.7891    1.3497 C   0  0  0  0  0  0  0  0  0  0  0  0
   -7.8276    0.7543    1.6558 N   0  0  0  0  0  0  0  0  0  0  0  0
  -11.8853    1.0065   -0.8618 N   0  0  0  0  0  0  0  0  0  0  0  0
  -13.0574    0.7636   -0.0860 C   0  0  0  0  0  0  0  0  0  0  0  0
  -13.2924   -0.5110    0.4094 C   0  0  0  0  0  0  0  0  0  0  0  0
  -14.4358   -0.7479    1.1488 C   0  0  0  0  0  0  0  0  0  0  0  0
  -15.3381    0.2767    1.3795 C   0  0  0  0  0  0  0  0  0  0  0  0
  -15.1046    1.5402    0.8646 C   0  0  0  0  0  0  0  0  0  0  0  0
  -13.9618    1.7909    0.1266 C   0  0  0  0  0  0  0  0  0  0  0  0
  -11.9804    1.2447   -2.2307 C   0  0  0  0  0  0  0  0  0  0  0  0
  -13.0291    1.3468   -2.8234 O   0  0  0  0  0  0  0  0  0  0  0  0
   -9.2023    1.6632   -4.7996 C   0  0  0  0  0  0  0  0  0  0  0  0
   -9.0075    1.9436   -6.1406 C   0  0  0  0  0  0  0  0  0  0  0  0
   -7.6649    1.9955   -6.5224 C   0  0  0  0  0  0  0  0  0  0  0  0
   -7.0827    2.4384   -8.1207 S   0  0  0  0  0  0  0  0  0  0  0  0
   -8.4174    3.5405   -8.7230 C   0  0  0  0  0  0  0  0  0  0  0  0
   -8.5690    4.7916   -7.8810 C   0  0  0  0  0  0  0  0  0  0  0  0
   -6.7957    1.7140   -5.4707 C   0  0  0  0  0  0  0  0  0  0  0  0
   -7.6732    1.4280   -3.9966 S   0  0  0  0  0  0  0  0  0  0  0  0
   -5.3762    1.6672   -5.4262 C   0  0  0  0  0  0  0  0  0  0  0  0
   -4.4543    1.2782   -6.3848 C   0  0  0  0  0  0  0  0  0  0  0  0
   -4.7576    0.6281   -7.6571 C   0  0  0  0  0  0  0  0  0  0  0  0
   -5.7410   -0.3563   -7.7369 C   0  0  0  0  0  0  0  0  0  0  0  0
   -5.9680   -1.0060   -8.9340 C   0  0  0  0  0  0  0  0  0  0  0  0
   -5.2209   -0.6882  -10.0550 C   0  0  0  0  0  0  0  0  0  0  0  0
   -4.2329    0.2859   -9.9920 C   0  0  0  0  0  0  0  0  0  0  0  0
   -3.3742    0.5998  -11.1826 C   0  0  0  0  0  0  0  0  0  0  0  0
   -2.0515   -0.1645  -11.0952 C   0  0  0  0  0  0  0  0  0  0  0  0
   -4.0077    0.9334   -8.7877 C   0  0  0  0  0  0  0  0  0  0  0  0
   -3.1360    1.4384   -5.9104 C   0  0  0  0  0  0  0  0  0  0  0  0
   -1.5740    1.0831   -6.6116 S   0  0  0  0  0  0  0  0  0  0  0  0
   -0.8207    1.5333   -5.1190 C   0  0  0  0  0  0  0  0  0  0  0  0
    0.4615    1.6029   -4.5455 C   0  0  0  0  0  0  0  0  0  0  0  0
    1.7539    1.4021   -5.0782 C   0  0  0  0  0  0  0  0  0  0  0  0
    2.8965    1.5894   -4.2256 C   0  0  0  0  0  0  0  0  0  0  0  0
    4.0398    1.4139   -4.8688 N   0  0  0  0  0  0  0  0  0  0  0  0
    3.7115    1.0421   -6.4101 S   0  0  0  0  0  0  0  0  0  0  0  0
    2.0955    1.0889   -6.3180 N   0  0  0  0  0  0  0  0  0  0  0  0
    2.6921    1.8376   -2.8499 C   0  0  0  0  0  0  0  0  0  0  0  0
    3.5756    1.8247   -1.7575 C   0  0  0  0  0  0  0  0  0  0  0  0
    5.2652    1.6169   -1.4448 S   0  0  0  0  0  0  0  0  0  0  0  0
    4.9248    1.6064    0.2692 C   0  0  0  0  0  0  0  0  0  0  0  0
    5.7482    1.4575    1.4083 C   0  0  0  0  0  0  0  0  0  0  0  0
    7.2069    1.3561    1.3327 C   0  0  0  0  0  0  0  0  0  0  0  0
    8.0171    2.0973    2.1905 C   0  0  0  0  0  0  0  0  0  0  0  0
    9.3911    2.0150    2.0801 C   0  0  0  0  0  0  0  0  0  0  0  0
    9.9685    1.2056    1.1162 C   0  0  0  0  0  0  0  0  0  0  0  0
    9.1762    0.4649    0.2495 C   0  0  0  0  0  0  0  0  0  0  0  0
    9.7860   -0.3712   -0.8378 C   0  0  0  0  0  0  0  0  0  0  0  0
    9.8035    0.4074   -2.1549 C   0  0  0  0  0  0  0  0  0  0  0  0
    7.7966    0.5493    0.3665 C   0  0  0  0  0  0  0  0  0  0  0  0
    5.0065    1.4995    2.5697 C   0  0  0  0  0  0  0  0  0  0  0  0
    3.2977    1.7625    2.2659 S   0  0  0  0  0  0  0  0  0  0  0  0
    3.5724    1.7803    0.5611 C   0  0  0  0  0  0  0  0  0  0  0  0
    2.7978    1.9132   -0.6001 C   0  0  0  0  0  0  0  0  0  0  0  0
    1.4735    2.0187   -0.9333 N   0  0  0  0  0  0  0  0  0  0  0  0
    1.3847    1.9857   -2.3124 C   0  0  0  0  0  0  0  0  0  0  0  0
    0.2774    2.0094   -3.1958 C   0  0  0  0  0  0  0  0  0  0  0  0
   -1.0682    2.2517   -2.9784 N   0  0  0  0  0  0  0  0  0  0  0  0
   -1.7294    1.9435   -4.1403 C   0  0  0  0  0  0  0  0  0  0  0  0
   -3.0513    1.8963   -4.5941 C   0  0  0  0  0  0  0  0  0  0  0  0
   -4.6145    2.1787   -3.9218 S   0  0  0  0  0  0  0  0  0  0  0  0
   -1.6629    3.1885   -2.0495 C   0  0  0  0  0  0  0  0  0  0  0  0
   -1.9625    4.5262   -2.7261 C   0  0  0  0  0  0  0  0  0  0  0  0
    0.4508    1.7927    0.0643 C   0  0  0  0  0  0  0  0  0  0  0  0
    0.2568    3.0024    0.9784 C   0  0  0  0  0  0  0  0  0  0  0  0
    5.4207    1.2616    3.9354 C   0  0  0  0  0  0  0  0  0  0  0  0
    6.4449    0.3423    4.2191 C   0  0  0  0  0  0  0  0  0  0  0  0
    6.7605    0.0945    5.5326 C   0  0  0  0  0  0  0  0  0  0  0  0
    7.7630   -0.8535    6.0905 C   0  0  0  0  0  0  0  0  0  0  0  0
    8.5489   -1.5412    5.4858 O   0  0  0  0  0  0  0  0  0  0  0  0
    7.5895   -0.7435    7.5660 C   0  0  0  0  0  0  0  0  0  0  0  0
    6.6140    0.2338    7.8493 C   0  0  0  0  0  0  0  0  0  0  0  0
    6.0884    0.7409    6.5900 C   0  0  0  0  0  0  0  0  0  0  0  0
    5.0831    1.6476    6.3145 C   0  0  0  0  0  0  0  0  0  0  0  0
    4.7555    1.8924    4.9898 C   0  0  0  0  0  0  0  0  0  0  0  0
    6.3123    0.5475    9.1616 C   0  0  0  0  0  0  0  0  0  0  0  0
    6.9666   -0.1378   10.1733 C   0  0  0  0  0  0  0  0  0  0  0  0
    7.8825   -1.1576    9.8982 C   0  0  0  0  0  0  0  0  0  0  0  0
    8.2152   -1.4468    8.5664 C   0  0  0  0  0  0  0  0  0  0  0  0
    8.4883   -1.8618   11.0114 C   0  0  0  0  0  0  0  0  0  0  0  0
    8.7159   -3.1868   11.0965 C   0  0  0  0  0  0  0  0  0  0  0  0
    9.5248   -3.8991   12.4930 S   0  0  0  0  0  0  0  0  0  0  0  0
    9.2733   -5.5121   11.8704 C   0  0  0  0  0  0  0  0  0  0  0  0
    9.6994   -6.6287   12.5380 C   0  0  0  0  0  0  0  0  0  0  0  0
   10.3735   -6.4973   13.7695 C   0  0  0  0  0  0  0  0  0  0  0  0
   10.9198   -6.3902   14.7720 N   0  0  0  0  0  0  0  0  0  0  0  0
    9.5108   -7.9519   12.0966 C   0  0  0  0  0  0  0  0  0  0  0  0
    9.3936   -9.0573   11.8096 N   0  0  0  0  0  0  0  0  0  0  0  0
    8.6082   -5.4862   10.6845 N   0  0  0  0  0  0  0  0  0  0  0  0
    8.2672   -6.6783    9.9703 C   0  0  0  0  0  0  0  0  0  0  0  0
    9.1716   -7.2093    9.0643 C   0  0  0  0  0  0  0  0  0  0  0  0
    8.8384   -8.3630    8.3790 C   0  0  0  0  0  0  0  0  0  0  0  0
    7.6124   -8.9693    8.5943 C   0  0  0  0  0  0  0  0  0  0  0  0
    6.7085   -8.4197    9.4872 C   0  0  0  0  0  0  0  0  0  0  0  0
    7.0304   -7.2668   10.1796 C   0  0  0  0  0  0  0  0  0  0  0  0
    8.2465   -4.2442   10.1828 C   0  0  0  0  0  0  0  0  0  0  0  0
    7.6013   -4.1091    9.1731 O   0  0  0  0  0  0  0  0  0  0  0  0
  -11.3324    1.6935   -4.7323 H   0  0  0  0  0  0  0  0  0  0  0  0
  -12.5831   -1.3039    0.2204 H   0  0  0  0  0  0  0  0  0  0  0  0
  -14.6199   -1.7346    1.5447 H   0  0  0  0  0  0  0  0  0  0  0  0
  -16.2274    0.0883    1.9611 H   0  0  0  0  0  0  0  0  0  0  0  0
  -15.8110    2.3369    1.0400 H   0  0  0  0  0  0  0  0  0  0  0  0
  -13.7683    2.7708   -0.2820 H   0  0  0  0  0  0  0  0  0  0  0  0
   -9.8333    2.1105   -6.8078 H   0  0  0  0  0  0  0  0  0  0  0  0
   -9.3417    2.9679   -8.7836 H   0  0  0  0  0  0  0  0  0  0  0  0
   -8.0949    3.7870   -9.7343 H   0  0  0  0  0  0  0  0  0  0  0  0
   -9.3333    5.4353   -8.3117 H   0  0  0  0  0  0  0  0  0  0  0  0
   -7.6299    5.3388   -7.8479 H   0  0  0  0  0  0  0  0  0  0  0  0
   -8.8596    4.5431   -6.8624 H   0  0  0  0  0  0  0  0  0  0  0  0
   -6.3088   -0.6203   -6.8569 H   0  0  0  0  0  0  0  0  0  0  0  0
   -6.7297   -1.7698   -8.9925 H   0  0  0  0  0  0  0  0  0  0  0  0
   -5.4050   -1.2029  -10.9871 H   0  0  0  0  0  0  0  0  0  0  0  0
   -3.1676    1.6714  -11.2156 H   0  0  0  0  0  0  0  0  0  0  0  0
   -3.8943    0.3223  -12.1013 H   0  0  0  0  0  0  0  0  0  0  0  0
   -1.5183    0.1048  -10.1864 H   0  0  0  0  0  0  0  0  0  0  0  0
   -2.2355   -1.2365  -11.0783 H   0  0  0  0  0  0  0  0  0  0  0  0
   -1.4214    0.0664  -11.9509 H   0  0  0  0  0  0  0  0  0  0  0  0
   -3.2512    1.7022   -8.7307 H   0  0  0  0  0  0  0  0  0  0  0  0
    7.5660    2.7412    2.9313 H   0  0  0  0  0  0  0  0  0  0  0  0
   10.0172    2.5897    2.7466 H   0  0  0  0  0  0  0  0  0  0  0  0
   11.0445    1.1492    1.0362 H   0  0  0  0  0  0  0  0  0  0  0  0
    9.2054   -1.2864   -0.9700 H   0  0  0  0  0  0  0  0  0  0  0  0
   10.8060   -0.6489   -0.5659 H   0  0  0  0  0  0  0  0  0  0  0  0
   10.3893    1.3178   -2.0475 H   0  0  0  0  0  0  0  0  0  0  0  0
    8.7923    0.6839   -2.4449 H   0  0  0  0  0  0  0  0  0  0  0  0
   10.2407   -0.1956   -2.9473 H   0  0  0  0  0  0  0  0  0  0  0  0
    7.1715   -0.0341   -0.2938 H   0  0  0  0  0  0  0  0  0  0  0  0
   -0.9725    3.3661   -1.2329 H   0  0  0  0  0  0  0  0  0  0  0  0
   -2.5894    2.7542   -1.6599 H   0  0  0  0  0  0  0  0  0  0  0  0
   -2.3650    5.2204   -1.9935 H   0  0  0  0  0  0  0  0  0  0  0  0
   -1.0512    4.9478   -3.1458 H   0  0  0  0  0  0  0  0  0  0  0  0
   -2.6905    4.4076   -3.5235 H   0  0  0  0  0  0  0  0  0  0  0  0
    0.7687    0.9431    0.6799 H   0  0  0  0  0  0  0  0  0  0  0  0
   -0.4761    1.5092   -0.4344 H   0  0  0  0  0  0  0  0  0  0  0  0
    1.1446    3.1590    1.5847 H   0  0  0  0  0  0  0  0  0  0  0  0
    0.0753    3.9131    0.4119 H   0  0  0  0  0  0  0  0  0  0  0  0
   -0.5860    2.8277    1.6410 H   0  0  0  0  0  0  0  0  0  0  0  0
    6.9551   -0.1811    3.4259 H   0  0  0  0  0  0  0  0  0  0  0  0
    4.5510    2.1513    7.1072 H   0  0  0  0  0  0  0  0  0  0  0  0
    3.9628    2.5905    4.7598 H   0  0  0  0  0  0  0  0  0  0  0  0
    5.5844    1.3077    9.4012 H   0  0  0  0  0  0  0  0  0  0  0  0
    6.7379    0.0926   11.2042 H   0  0  0  0  0  0  0  0  0  0  0  0
    8.9582   -2.1893    8.3254 H   0  0  0  0  0  0  0  0  0  0  0  0
    8.7564   -1.2542   11.8682 H   0  0  0  0  0  0  0  0  0  0  0  0
   10.1252   -6.7273    8.9073 H   0  0  0  0  0  0  0  0  0  0  0  0
    9.5401   -8.7887    7.6786 H   0  0  0  0  0  0  0  0  0  0  0  0
    7.3596   -9.8735    8.0622 H   0  0  0  0  0  0  0  0  0  0  0  0
    5.7507   -8.8895    9.6497 H   0  0  0  0  0  0  0  0  0  0  0  0
    6.3357   -6.8279   10.8803 H   0  0  0  0  0  0  0  0  0  0  0  0
  1  2  2  0  0  0  0
  2  3  1  0  0  0  0
  3  4  1  0  0  0  0
  4  5  2  0  0  0  0
  5  6  1  0  0  0  0
  6  7  3  0  0  0  0
  5  8  1  0  0  0  0
  8  9  3  0  0  0  0
  4 10  1  0  0  0  0
 10 11  1  0  0  0  0
 11 12  2  0  0  0  0
 12 13  1  0  0  0  0
 13 14  2  0  0  0  0
 14 15  1  0  0  0  0
 15 16  2  0  0  0  0
 10 17  1  0  0  0  0
 17 18  2  0  0  0  0
  1 19  1  0  0  0  0
 19 20  2  0  0  0  0
 20 21  1  0  0  0  0
 21 22  1  0  0  0  0
 22 23  1  0  0  0  0
 23 24  1  0  0  0  0
 21 25  2  0  0  0  0
 25 26  1  0  0  0  0
 25 27  1  0  0  0  0
 27 28  2  0  0  0  0
 28 29  1  0  0  0  0
 29 30  2  0  0  0  0
 30 31  1  0  0  0  0
 31 32  2  0  0  0  0
 32 33  1  0  0  0  0
 33 34  1  0  0  0  0
 34 35  1  0  0  0  0
 33 36  2  0  0  0  0
 28 37  1  0  0  0  0
 37 38  1  0  0  0  0
 38 39  1  0  0  0  0
 39 40  1  0  0  0  0
 40 41  1  0  0  0  0
 41 42  1  0  0  0  0
 42 43  2  0  0  0  0
 43 44  1  0  0  0  0
 44 45  1  0  0  0  0
 42 46  1  0  0  0  0
 46 47  1  0  0  0  0
 47 48  1  0  0  0  0
 48 49  1  0  0  0  0
 49 50  1  0  0  0  0
 50 51  1  0  0  0  0
 51 52  2  0  0  0  0
 52 53  1  0  0  0  0
 53 54  2  0  0  0  0
 54 55  1  0  0  0  0
 55 56  1  0  0  0  0
 56 57  1  0  0  0  0
 55 58  2  0  0  0  0
 50 59  2  0  0  0  0
 59 60  1  0  0  0  0
 60 61  1  0  0  0  0
 61 62  1  0  0  0  0
 62 63  1  0  0  0  0
 63 64  1  0  0  0  0
 64 65  1  0  0  0  0
 65 66  1  0  0  0  0
 66 67  1  0  0  0  0
 67 68  1  0  0  0  0
 68 69  1  0  0  0  0
 66 70  1  0  0  0  0
 70 71  1  0  0  0  0
 63 72  1  0  0  0  0
 72 73  1  0  0  0  0
 59 74  1  0  0  0  0
 74 75  2  0  0  0  0
 75 76  1  0  0  0  0
 76 77  1  0  0  0  0
 77 78  2  0  0  0  0
 77 79  1  0  0  0  0
 79 80  2  0  0  0  0
 80 81  1  0  0  0  0
 81 82  1  0  0  0  0
 82 83  2  0  0  0  0
 80 84  1  0  0  0  0
 84 85  2  0  0  0  0
 85 86  1  0  0  0  0
 86 87  2  0  0  0  0
 86 88  1  0  0  0  0
 88 89  2  0  0  0  0
 89 90  1  0  0  0  0
 90 91  1  0  0  0  0
 91 92  2  0  0  0  0
 92 93  1  0  0  0  0
 93 94  3  0  0  0  0
 92 95  1  0  0  0  0
 95 96  3  0  0  0  0
 91 97  1  0  0  0  0
 97 98  1  0  0  0  0
 98 99  2  0  0  0  0
 99100  1  0  0  0  0
100101  2  0  0  0  0
101102  1  0  0  0  0
102103  2  0  0  0  0
 97104  1  0  0  0  0
104105  2  0  0  0  0
 17  2  1  0  0  0  0
 26 19  1  0  0  0  0
 69 27  1  0  0  0  0
 83 74  1  0  0  0  0
104 89  1  0  0  0  0
 16 11  1  0  0  0  0
 36 29  1  0  0  0  0
 68 37  2  0  0  0  0
 81 76  2  0  0  0  0
103 98  1  0  0  0  0
 67 39  2  0  0  0  0
 87 79  1  0  0  0  0
 65 40  2  0  0  0  0
 45 41  2  0  0  0  0
 64 46  2  0  0  0  0
 62 47  2  0  0  0  0
 61 49  2  0  0  0  0
 58 51  1  0  0  0  0
  1106  1  0  0  0  0
 12107  1  0  0  0  0
 13108  1  0  0  0  0
 14109  1  0  0  0  0
 15110  1  0  0  0  0
 16111  1  0  0  0  0
 20112  1  0  0  0  0
 23113  1  0  0  0  0
 23114  1  0  0  0  0
 24115  1  0  0  0  0
 24116  1  0  0  0  0
 24117  1  0  0  0  0
 30118  1  0  0  0  0
 31119  1  0  0  0  0
 32120  1  0  0  0  0
 34121  1  0  0  0  0
 34122  1  0  0  0  0
 35123  1  0  0  0  0
 35124  1  0  0  0  0
 35125  1  0  0  0  0
 36126  1  0  0  0  0
 52127  1  0  0  0  0
 53128  1  0  0  0  0
 54129  1  0  0  0  0
 56130  1  0  0  0  0
 56131  1  0  0  0  0
 57132  1  0  0  0  0
 57133  1  0  0  0  0
 57134  1  0  0  0  0
 58135  1  0  0  0  0
 70136  1  0  0  0  0
 70137  1  0  0  0  0
 71138  1  0  0  0  0
 71139  1  0  0  0  0
 71140  1  0  0  0  0
 72141  1  0  0  0  0
 72142  1  0  0  0  0
 73143  1  0  0  0  0
 73144  1  0  0  0  0
 73145  1  0  0  0  0
 75146  1  0  0  0  0
 82147  1  0  0  0  0
 83148  1  0  0  0  0
 84149  1  0  0  0  0
 85150  1  0  0  0  0
 87151  1  0  0  0  0
 88152  1  0  0  0  0
 99153  1  0  0  0  0
100154  1  0  0  0  0
101155  1  0  0  0  0
102156  1  0  0  0  0
103157  1  0  0  0  0
M  END
