
  xtb     02032221023D
 energy: -222.944259566234 gnorm: 0.000343723712 xtb: 6.4.1 (unknown)
117130  0     0  0            999 V2000
    0.7509    5.2258   -8.7784 C   0  0  0  0  0  0  0  0  0  0  0  0
   -0.2360    4.5058   -9.3731 C   0  0  0  0  0  0  0  0  0  0  0  0
   -0.5078    4.5875  -11.1077 S   0  0  0  0  0  0  0  0  0  0  0  0
   -1.8231    3.4418  -11.0026 C   0  0  0  0  0  0  0  0  0  0  0  0
   -2.5538    3.1075  -12.1153 C   0  0  0  0  0  0  0  0  0  0  0  0
   -2.2067    3.6581  -13.3660 C   0  0  0  0  0  0  0  0  0  0  0  0
   -1.9294    4.0934  -14.3904 N   0  0  0  0  0  0  0  0  0  0  0  0
   -3.6815    2.2717  -12.1495 C   0  0  0  0  0  0  0  0  0  0  0  0
   -4.6276    1.6272  -12.2458 N   0  0  0  0  0  0  0  0  0  0  0  0
   -1.9791    2.9872   -9.7332 N   0  0  0  0  0  0  0  0  0  0  0  0
   -2.8716    1.9099   -9.3623 C   0  0  0  0  0  0  0  0  0  0  0  0
   -2.4719    0.5813   -9.9577 C   0  0  0  0  0  0  0  0  0  0  0  0
   -1.1461    0.2936  -10.2504 C   0  0  0  0  0  0  0  0  0  0  0  0
   -0.7986   -0.9348  -10.7851 C   0  0  0  0  0  0  0  0  0  0  0  0
   -1.7715   -1.8892  -11.0222 C   0  0  0  0  0  0  0  0  0  0  0  0
   -3.0941   -1.6123  -10.7190 C   0  0  0  0  0  0  0  0  0  0  0  0
   -3.4432   -0.3832  -10.1914 C   0  0  0  0  0  0  0  0  0  0  0  0
   -1.1049    3.4993   -8.7765 C   0  0  0  0  0  0  0  0  0  0  0  0
   -1.0781    3.0720   -7.6422 O   0  0  0  0  0  0  0  0  0  0  0  0
    0.9677    5.3555   -7.3795 C   0  0  0  0  0  0  0  0  0  0  0  0
    2.2664    5.5351   -6.8633 C   0  0  0  0  0  0  0  0  0  0  0  0
    2.5609    5.5016   -5.4416 C   0  0  0  0  0  0  0  0  0  0  0  0
    3.8764    5.6232   -5.2259 N   0  0  0  0  0  0  0  0  0  0  0  0
    4.6400    5.7719   -6.6242 S   0  0  0  0  0  4  0  0  0  0  0  0
    3.3704    5.6768   -7.5994 N   0  0  0  0  0  0  0  0  0  0  0  0
    1.5627    5.2968   -4.4625 C   0  0  0  0  0  0  0  0  0  0  0  0
    0.2488    5.2907   -4.9820 C   0  0  0  0  0  0  0  0  0  0  0  0
   -0.8798    5.2844   -4.2613 N   0  0  0  0  0  0  0  0  0  0  0  0
   -2.1382    5.3579   -5.2464 S   0  0  0  0  0  0  0  0  0  0  0  0
   -1.3534    5.3983   -6.6401 N   0  0  0  0  0  0  0  0  0  0  0  0
   -0.0430    5.3379   -6.4014 C   0  0  0  0  0  0  0  0  0  0  0  0
    1.8492    5.0503   -3.0672 C   0  0  0  0  0  0  0  0  0  0  0  0
    3.0590    5.4781   -2.4804 C   0  0  0  0  0  0  0  0  0  0  0  0
    3.3846    5.1892   -1.1763 C   0  0  0  0  0  0  0  0  0  0  0  0
    2.4900    4.4358   -0.4198 C   0  0  0  0  0  0  0  0  0  0  0  0
    2.5852    3.9703    0.8594 N   0  0  0  0  0  0  0  0  0  0  0  0
    3.7117    4.1493    1.7366 C   0  0  0  0  0  0  0  0  0  0  0  0
    4.7500    3.0430    1.5562 C   0  0  0  0  0  0  0  0  0  0  0  0
    1.4627    3.2185    1.1466 C   0  0  0  0  0  0  0  0  0  0  0  0
    0.5871    3.2494    0.0266 C   0  0  0  0  0  0  0  0  0  0  0  0
    1.2572    4.0181   -0.9850 C   0  0  0  0  0  0  0  0  0  0  0  0
    0.9380    4.3258   -2.2899 C   0  0  0  0  0  0  0  0  0  0  0  0
   -0.6403    2.6068    0.0436 C   0  0  0  0  0  0  0  0  0  0  0  0
   -0.9524    1.9072    1.1959 C   0  0  0  0  0  0  0  0  0  0  0  0
   -0.0531    1.8265    2.2942 C   0  0  0  0  0  0  0  0  0  0  0  0
    1.1617    2.4966    2.2886 C   0  0  0  0  0  0  0  0  0  0  0  0
   -0.6793    0.9639    3.2583 C   0  0  0  0  0  0  0  0  0  0  0  0
   -0.2687    0.4605    4.4764 C   0  0  0  0  0  0  0  0  0  0  0  0
   -1.1000   -0.4315    5.1601 C   0  0  0  0  0  0  0  0  0  0  0  0
   -2.3509   -0.7730    4.6070 C   0  0  0  0  0  0  0  0  0  0  0  0
   -2.7775   -0.2716    3.4009 C   0  0  0  0  0  0  0  0  0  0  0  0
   -1.9330    0.5902    2.7066 C   0  0  0  0  0  0  0  0  0  0  0  0
   -2.0889    1.1799    1.4879 N   0  0  0  0  0  0  0  0  0  0  0  0
   -3.2041    0.9937    0.5979 C   0  0  0  0  0  0  0  0  0  0  0  0
   -2.9859   -0.1947   -0.3374 C   0  0  0  0  0  0  0  0  0  0  0  0
   -0.6710   -1.0544    6.3998 C   0  0  0  0  0  0  0  0  0  0  0  0
    0.2257   -0.5048    7.2995 C   0  0  0  0  0  0  0  0  0  0  0  0
    0.6982    0.7421    7.1191 F   0  0  0  0  0  0  0  0  0  0  0  0
    0.7030   -1.1669    8.4520 C   0  0  0  0  0  0  0  0  0  0  0  0
    1.5840   -0.4994    9.2084 F   0  0  0  0  0  0  0  0  0  0  0  0
    0.3647   -2.4610    8.7957 C   0  0  0  0  0  0  0  0  0  0  0  0
   -0.6158   -3.0382    7.9472 C   0  0  0  0  0  0  0  0  0  0  0  0
   -1.1317   -2.3475    6.7892 C   0  0  0  0  0  0  0  0  0  0  0  0
   -2.0358   -3.1382    6.2468 N   0  0  0  0  0  0  0  0  0  0  0  0
   -2.0972   -4.2249    7.0077 O   0  0  0  0  0  0  0  0  0  0  0  0
   -1.2545   -4.1855    8.0389 N   0  0  0  0  0  0  0  0  0  0  0  0
    0.9140   -3.1355    9.9423 C   0  0  0  0  0  0  0  0  0  0  0  0
    1.1795   -4.4613    9.9689 C   0  0  0  0  0  0  0  0  0  0  0  0
    1.2080   -5.3278    8.7525 C   0  0  0  0  0  0  0  0  0  0  0  0
    1.3681   -4.9189    7.6200 O   0  0  0  0  0  0  0  0  0  0  0  0
    1.2782   -6.7100    9.2415 C   0  0  0  0  0  0  0  0  0  0  0  0
    1.1613   -7.9426    8.5902 C   0  0  0  0  0  0  0  0  0  0  0  0
    0.7025   -8.1837    7.3563 O   0  0  0  0  0  0  0  0  0  0  0  0
   -0.0234   -7.1970    6.6509 C   0  0  0  0  0  0  0  0  0  0  0  0
    1.5237   -9.0951    9.3141 C   0  0  0  0  0  0  0  0  0  0  0  0
    1.9179   -9.0306   10.6296 C   0  0  0  0  0  0  0  0  0  0  0  0
    1.9462   -7.8173   11.3119 C   0  0  0  0  0  0  0  0  0  0  0  0
    1.6234   -6.6679   10.6182 C   0  0  0  0  0  0  0  0  0  0  0  0
    1.5702   -5.2890   11.0950 C   0  0  0  0  0  0  0  0  0  0  0  0
    1.8087   -4.8667   12.3740 C   0  0  0  0  0  0  0  0  0  0  0  0
    1.7002   -3.5303   12.8176 C   0  0  0  0  0  0  0  0  0  0  0  0
    1.6231   -2.4727   13.2566 N   0  0  0  0  0  0  0  0  0  0  0  0
    2.2006   -5.7014   13.4433 C   0  0  0  0  0  0  0  0  0  0  0  0
    2.5235   -6.3091   14.3618 N   0  0  0  0  0  0  0  0  0  0  0  0
    1.4731    5.7249   -9.4126 H   0  0  0  0  0  0  0  0  0  0  0  0
   -3.8966    2.1628   -9.6462 H   0  0  0  0  0  0  0  0  0  0  0  0
   -2.8115    1.8524   -8.2679 H   0  0  0  0  0  0  0  0  0  0  0  0
   -0.3732    1.0251  -10.0578 H   0  0  0  0  0  0  0  0  0  0  0  0
    0.2356   -1.1437  -11.0156 H   0  0  0  0  0  0  0  0  0  0  0  0
   -1.4998   -2.8459  -11.4425 H   0  0  0  0  0  0  0  0  0  0  0  0
   -3.8582   -2.3526  -10.9011 H   0  0  0  0  0  0  0  0  0  0  0  0
   -4.4767   -0.1633   -9.9709 H   0  0  0  0  0  0  0  0  0  0  0  0
    3.7457    6.0510   -3.0809 H   0  0  0  0  0  0  0  0  0  0  0  0
    4.3200    5.5341   -0.7625 H   0  0  0  0  0  0  0  0  0  0  0  0
    4.1615    5.1231    1.5257 H   0  0  0  0  0  0  0  0  0  0  0  0
    3.3479    4.1594    2.7674 H   0  0  0  0  0  0  0  0  0  0  0  0
    5.5884    3.2054    2.2278 H   0  0  0  0  0  0  0  0  0  0  0  0
    4.3101    2.0725    1.7732 H   0  0  0  0  0  0  0  0  0  0  0  0
    5.1171    3.0340    0.5326 H   0  0  0  0  0  0  0  0  0  0  0  0
    0.0123    3.9820   -2.7191 H   0  0  0  0  0  0  0  0  0  0  0  0
   -1.2989    2.6533   -0.8085 H   0  0  0  0  0  0  0  0  0  0  0  0
    1.8275    2.4402    3.1347 H   0  0  0  0  0  0  0  0  0  0  0  0
    0.7039    0.7233    4.8577 H   0  0  0  0  0  0  0  0  0  0  0  0
   -2.9869   -1.4518    5.1497 H   0  0  0  0  0  0  0  0  0  0  0  0
   -3.7396   -0.5579    3.0052 H   0  0  0  0  0  0  0  0  0  0  0  0
   -4.1033    0.8376    1.1994 H   0  0  0  0  0  0  0  0  0  0  0  0
   -3.3384    1.9102    0.0174 H   0  0  0  0  0  0  0  0  0  0  0  0
   -2.0956   -0.0411   -0.9424 H   0  0  0  0  0  0  0  0  0  0  0  0
   -2.8584   -1.1086    0.2380 H   0  0  0  0  0  0  0  0  0  0  0  0
   -3.8411   -0.3126   -0.9970 H   0  0  0  0  0  0  0  0  0  0  0  0
    1.1132   -2.5131   10.8046 H   0  0  0  0  0  0  0  0  0  0  0  0
   -0.4907   -7.7191    5.8175 H   0  0  0  0  0  0  0  0  0  0  0  0
    0.6278   -6.4049    6.2751 H   0  0  0  0  0  0  0  0  0  0  0  0
   -0.7919   -6.7497    7.2872 H   0  0  0  0  0  0  0  0  0  0  0  0
    1.4633  -10.0399    8.7972 H   0  0  0  0  0  0  0  0  0  0  0  0
    2.1862   -9.9367   11.1505 H   0  0  0  0  0  0  0  0  0  0  0  0
    2.2236   -7.7911   12.3516 H   0  0  0  0  0  0  0  0  0  0  0  0
  1  2  2  0  0  0  0
  2  3  1  0  0  0  0
  3  4  1  0  0  0  0
  4  5  2  0  0  0  0
  5  6  1  0  0  0  0
  6  7  3  0  0  0  0
  5  8  1  0  0  0  0
  8  9  3  0  0  0  0
  4 10  1  0  0  0  0
 10 11  1  0  0  0  0
 11 12  1  0  0  0  0
 12 13  2  0  0  0  0
 13 14  1  0  0  0  0
 14 15  2  0  0  0  0
 15 16  1  0  0  0  0
 16 17  2  0  0  0  0
 10 18  1  0  0  0  0
 18 19  2  0  0  0  0
  1 20  1  0  0  0  0
 20 21  2  0  0  0  0
 21 22  1  0  0  0  0
 22 23  1  0  0  0  0
 23 24  2  0  0  0  0
 24 25  2  0  0  0  0
 22 26  2  0  0  0  0
 26 27  1  0  0  0  0
 27 28  2  0  0  0  0
 28 29  1  0  0  0  0
 29 30  1  0  0  0  0
 30 31  2  0  0  0  0
 26 32  1  0  0  0  0
 32 33  2  0  0  0  0
 33 34  1  0  0  0  0
 34 35  2  0  0  0  0
 35 36  1  0  0  0  0
 36 37  1  0  0  0  0
 37 38  1  0  0  0  0
 36 39  1  0  0  0  0
 39 40  2  0  0  0  0
 40 41  1  0  0  0  0
 41 42  2  0  0  0  0
 40 43  1  0  0  0  0
 43 44  2  0  0  0  0
 44 45  1  0  0  0  0
 45 46  2  0  0  0  0
 45 47  1  0  0  0  0
 47 48  2  0  0  0  0
 48 49  1  0  0  0  0
 49 50  2  0  0  0  0
 50 51  1  0  0  0  0
 51 52  2  0  0  0  0
 52 53  1  0  0  0  0
 53 54  1  0  0  0  0
 54 55  1  0  0  0  0
 49 56  1  0  0  0  0
 56 57  2  0  0  0  0
 57 58  1  0  0  0  0
 57 59  1  0  0  0  0
 59 60  1  0  0  0  0
 59 61  2  0  0  0  0
 61 62  1  0  0  0  0
 62 63  1  0  0  0  0
 63 64  2  0  0  0  0
 64 65  1  0  0  0  0
 65 66  1  0  0  0  0
 61 67  1  0  0  0  0
 67 68  2  0  0  0  0
 68 69  1  0  0  0  0
 69 70  2  0  0  0  0
 69 71  1  0  0  0  0
 71 72  2  0  0  0  0
 72 73  1  0  0  0  0
 73 74  1  0  0  0  0
 72 75  1  0  0  0  0
 75 76  2  0  0  0  0
 76 77  1  0  0  0  0
 77 78  2  0  0  0  0
 78 79  1  0  0  0  0
 79 80  2  0  0  0  0
 80 81  1  0  0  0  0
 81 82  3  0  0  0  0
 80 83  1  0  0  0  0
 83 84  3  0  0  0  0
 18  2  1  0  0  0  0
 31 20  1  0  0  0  0
 42 32  1  0  0  0  0
 53 44  1  0  0  0  0
 63 56  1  0  0  0  0
 79 68  1  0  0  0  0
 17 12  1  0  0  0  0
 25 21  1  0  0  0  0
 31 27  1  0  0  0  0
 41 35  1  0  0  0  0
 52 47  1  0  0  0  0
 66 62  2  0  0  0  0
 78 71  1  0  0  0  0
 46 39  1  0  0  0  0
  1 85  1  0  0  0  0
 11 86  1  0  0  0  0
 11 87  1  0  0  0  0
 13 88  1  0  0  0  0
 14 89  1  0  0  0  0
 15 90  1  0  0  0  0
 16 91  1  0  0  0  0
 17 92  1  0  0  0  0
 33 93  1  0  0  0  0
 34 94  1  0  0  0  0
 37 95  1  0  0  0  0
 37 96  1  0  0  0  0
 38 97  1  0  0  0  0
 38 98  1  0  0  0  0
 38 99  1  0  0  0  0
 42100  1  0  0  0  0
 43101  1  0  0  0  0
 46102  1  0  0  0  0
 48103  1  0  0  0  0
 50104  1  0  0  0  0
 51105  1  0  0  0  0
 54106  1  0  0  0  0
 54107  1  0  0  0  0
 55108  1  0  0  0  0
 55109  1  0  0  0  0
 55110  1  0  0  0  0
 67111  1  0  0  0  0
 74112  1  0  0  0  0
 74113  1  0  0  0  0
 74114  1  0  0  0  0
 75115  1  0  0  0  0
 76116  1  0  0  0  0
 77117  1  0  0  0  0
M  END
