103

C         -3.30260       -4.52660       -1.50170
C         -1.96510       -4.59660       -1.30160
S         -0.84920       -3.24810       -1.29050
C          0.42180       -4.26470       -0.62920
C          1.60560       -3.70140       -0.23110
C          1.80350       -2.31070       -0.37140
N          1.98580       -1.18160       -0.45910
C          2.67810       -4.34240        0.41100
N          3.57900       -4.76260        0.98620
N          0.03860       -5.56420       -0.55760
C          0.93560       -6.65880       -0.23970
C          1.98790       -6.85380       -1.30480
C          1.67520       -6.67140       -2.64610
C          2.63860       -6.86180       -3.62070
C          3.92010       -7.24450       -3.26380
C          4.23340       -7.43960       -1.92920
C          3.27290       -7.24320       -0.95300
C         -1.27390       -5.83750       -0.92760
O         -1.75260       -6.94390       -0.90860
C         -4.03370       -3.33240       -1.72410
S         -3.26980       -1.83750       -2.23450
C         -4.71800       -0.89880       -1.95780
C         -5.73000       -1.72210       -1.54870
C         -7.14660       -1.60150       -1.15200
O         -7.85660       -0.63310       -1.08180
N         -7.53890       -2.90380       -0.85240
C         -8.86940       -3.23220       -0.38430
C         -8.96570       -3.11400        1.13260
C         -6.53020       -3.85060       -0.98520
O         -6.64590       -5.02850       -0.76130
C         -5.36020       -3.08500       -1.45100
C         -4.53840        0.53620       -1.98400
C         -4.77720        1.29820       -0.86600
C         -4.13900        2.54420       -0.67570
C         -3.30490        3.11870       -1.65750
C         -3.26230        2.45300       -2.91530
N         -2.62160        2.83560       -4.01250
S         -2.72950        1.67050       -5.11620
N         -3.57380        0.60950       -4.24670
C         -3.82470        1.14000       -3.05440
C         -2.35490        4.11640       -1.34900
C         -2.12310        4.50750       -0.05090
C         -3.05280        4.08030        0.93670
N         -3.07850        4.43540        2.21590
S         -4.29400        3.67510        2.94240
N         -4.83370        2.84130        1.67440
C         -4.09070        3.14110        0.61590
C         -0.82810        5.01630        0.33740
S         -0.01820        4.10740        1.59070
C          1.53500        4.82500        1.21590
C          1.36250        5.77690        0.22710
C          2.22890        6.67720       -0.55200
O          3.41420        6.87960       -0.46980
N          1.37420        7.28230       -1.46740
C          1.82840        8.23970       -2.45370
C          2.25170        7.54600       -3.74380
C          0.05850        6.83200       -1.39900
O         -0.83340        7.19830       -2.12070
C          0.05580        5.85580       -0.29280
C          2.80640        4.41980        1.69730
C          3.13170        3.23360        2.27710
C          2.19700        2.11540        2.53700
O          0.98980        2.18640        2.67150
C          3.03000        0.91140        2.60220
C          2.64200       -0.41380        2.67130
C          3.62740       -1.38560        2.66650
C          4.97940       -1.05010        2.59310
C          6.01030       -2.13090        2.58230
C          5.36410        0.29010        2.54540
C          4.39010        1.27350        2.55110
C          4.48350        2.72970        2.49190
C          5.60520        3.48340        2.68000
C          5.60610        4.89520        2.75900
N          5.66430        6.03420        2.87980
C          6.88830        2.93660        2.89990
N          7.95010        2.54040        3.07840
H         -3.87510       -5.43940       -1.38490
H          0.29680       -7.54840       -0.17760
H          1.39940       -6.48970        0.73560
H          0.67270       -6.38800       -2.93710
H          2.38420       -6.71440       -4.65980
H          4.67120       -7.39260       -4.02490
H          5.22980       -7.74140       -1.64480
H          3.52350       -7.38600        0.08740
H         -9.56480       -2.53980       -0.86440
H         -9.08260       -4.25550       -0.70160
H         -8.74260       -2.09650        1.44500
H         -8.26340       -3.79470        1.60850
H         -9.97100       -3.36650        1.45690
H         -5.33860        0.89050       -0.03970
H         -1.70000        4.44680       -2.14010
H          1.00250        8.92870       -2.64570
H          2.67160        8.78030       -2.01770
H          3.06220        6.84820       -3.54620
H          2.59390        8.28450       -4.46300
H          1.41160        7.00340       -4.17150
H          3.60400        5.10130        1.41880
H          1.59450       -0.66820        2.71440
H          3.35460       -2.42990        2.70800
H          6.92220       -1.79600        2.09470
H          6.25940       -2.41100        3.60660
H          5.63250       -3.01660        2.07600
H          6.41170        0.54090        2.48800
