
  xtb     02092207443D
 energy: -422.881153241019 gnorm: 0.000554377979 xtb: 6.4.1 (unknown)
261286  0     0  0            999 V2000
    2.8917   12.4941    2.2707 C   0  0  0  0  0  0  0  0  0  0  0  0
    2.0625   13.4289    2.8201 C   0  0  0  0  0  0  0  0  0  0  0  0
    2.6257   14.6114    3.9896 S   0  0  0  0  0  0  0  0  0  0  0  0
    0.9951   15.1912    4.2300 C   0  0  0  0  0  0  0  0  0  0  0  0
    0.6953   16.0451    5.2627 C   0  0  0  0  0  0  0  0  0  0  0  0
    1.7239   16.5043    6.1071 C   0  0  0  0  0  0  0  0  0  0  0  0
    2.5554   16.8738    6.8068 N   0  0  0  0  0  0  0  0  0  0  0  0
   -0.5946   16.4361    5.6500 C   0  0  0  0  0  0  0  0  0  0  0  0
   -1.6265   16.7420    6.0527 N   0  0  0  0  0  0  0  0  0  0  0  0
    0.1453   14.6602    3.3174 N   0  0  0  0  0  0  0  0  0  0  0  0
   -1.2013   15.1353    3.0827 C   0  0  0  0  0  0  0  0  0  0  0  0
   -1.2275   16.5800    2.6490 C   0  0  0  0  0  0  0  0  0  0  0  0
   -2.2660   17.4097    3.0483 C   0  0  0  0  0  0  0  0  0  0  0  0
   -2.2961   18.7329    2.6469 C   0  0  0  0  0  0  0  0  0  0  0  0
   -1.2871   19.2407    1.8464 C   0  0  0  0  0  0  0  0  0  0  0  0
   -0.2531   18.4163    1.4385 C   0  0  0  0  0  0  0  0  0  0  0  0
   -0.2258   17.0908    1.8336 C   0  0  0  0  0  0  0  0  0  0  0  0
    0.6679   13.6520    2.5099 C   0  0  0  0  0  0  0  0  0  0  0  0
    0.0264   13.1274    1.6202 O   0  0  0  0  0  0  0  0  0  0  0  0
    2.5114   11.3137    1.6088 C   0  0  0  0  0  0  0  0  0  0  0  0
    1.3527   10.5241    1.6838 C   0  0  0  0  0  0  0  0  0  0  0  0
    0.2992   10.6619    2.5495 N   0  0  0  0  0  0  0  0  0  0  0  0
    0.4148   11.2221    3.8237 C   0  0  0  0  0  0  0  0  0  0  0  0
    1.5849   11.0973    4.5734 C   0  0  0  0  0  0  0  0  0  0  0  0
    1.6959   11.7165    5.8007 C   0  0  0  0  0  0  0  0  0  0  0  0
    0.6504   12.4703    6.3280 C   0  0  0  0  0  0  0  0  0  0  0  0
    0.8136   13.1881    7.6301 C   0  0  0  0  0  0  0  0  0  0  0  0
   -0.5332   12.5417    5.6042 C   0  0  0  0  0  0  0  0  0  0  0  0
   -0.6555   11.9295    4.3714 C   0  0  0  0  0  0  0  0  0  0  0  0
   -0.9608   10.1649    2.1434 C   0  0  0  0  0  0  0  0  0  0  0  0
   -1.4716   10.5041    0.8946 C   0  0  0  0  0  0  0  0  0  0  0  0
   -2.6952   10.0070    0.4948 C   0  0  0  0  0  0  0  0  0  0  0  0
   -3.4358    9.1715    1.3242 C   0  0  0  0  0  0  0  0  0  0  0  0
   -4.7501    8.6177    0.8678 C   0  0  0  0  0  0  0  0  0  0  0  0
   -2.9212    8.8527    2.5749 C   0  0  0  0  0  0  0  0  0  0  0  0
   -1.6957    9.3401    2.9869 C   0  0  0  0  0  0  0  0  0  0  0  0
    1.4404    9.4351    0.7803 C   0  0  0  0  0  0  0  0  0  0  0  0
    0.3991    8.0980    0.4236 S   0  0  0  0  0  0  0  0  0  0  0  0
    1.5734    7.4695   -0.7185 C   0  0  0  0  0  0  0  0  0  0  0  0
    2.7412    8.2163   -0.7625 C   0  0  0  0  0  0  0  0  0  0  0  0
    3.8762    7.8954   -1.4823 N   0  0  0  0  0  0  0  0  0  0  0  0
    4.6815    8.9268   -1.9943 C   0  0  0  0  0  0  0  0  0  0  0  0
    6.0690    8.8183   -1.9574 C   0  0  0  0  0  0  0  0  0  0  0  0
    6.8551    9.8346   -2.4609 C   0  0  0  0  0  0  0  0  0  0  0  0
    6.2876   10.9815   -3.0050 C   0  0  0  0  0  0  0  0  0  0  0  0
    7.1501   12.0920   -3.5217 C   0  0  0  0  0  0  0  0  0  0  0  0
    4.9027   11.0788   -3.0383 C   0  0  0  0  0  0  0  0  0  0  0  0
    4.1048   10.0663   -2.5444 C   0  0  0  0  0  0  0  0  0  0  0  0
    4.2246    6.5618   -1.7418 C   0  0  0  0  0  0  0  0  0  0  0  0
    4.0495    5.5703   -0.7806 C   0  0  0  0  0  0  0  0  0  0  0  0
    4.3374    4.2522   -1.0799 C   0  0  0  0  0  0  0  0  0  0  0  0
    4.8149    3.8854   -2.3312 C   0  0  0  0  0  0  0  0  0  0  0  0
    5.0703    2.4502   -2.6779 C   0  0  0  0  0  0  0  0  0  0  0  0
    5.0380    4.8890   -3.2669 C   0  0  0  0  0  0  0  0  0  0  0  0
    4.7557    6.2083   -2.9804 C   0  0  0  0  0  0  0  0  0  0  0  0
    2.6364    9.3466    0.0853 C   0  0  0  0  0  0  0  0  0  0  0  0
    3.7169   10.6202    0.5121 S   0  0  0  0  0  0  0  0  0  0  0  0
    1.3078    6.3078   -1.5166 C   0  0  0  0  0  0  0  0  0  0  0  0
    1.4835    6.2224   -2.8822 C   0  0  0  0  0  0  0  0  0  0  0  0
    1.5917    7.4067   -3.7329 C   0  0  0  0  0  0  0  0  0  0  0  0
    2.4072    7.4274   -4.8602 C   0  0  0  0  0  0  0  0  0  0  0  0
    2.4987    8.5776   -5.6210 C   0  0  0  0  0  0  0  0  0  0  0  0
    1.7662    9.7042   -5.2875 C   0  0  0  0  0  0  0  0  0  0  0  0
    0.9074    9.6867   -4.1955 C   0  0  0  0  0  0  0  0  0  0  0  0
    0.0713   10.8811   -3.8263 C   0  0  0  0  0  0  0  0  0  0  0  0
    0.5874   11.5705   -2.5617 C   0  0  0  0  0  0  0  0  0  0  0  0
    0.8323    8.5340   -3.4288 C   0  0  0  0  0  0  0  0  0  0  0  0
    1.4543    4.8784   -3.3140 C   0  0  0  0  0  0  0  0  0  0  0  0
    1.7235    4.1162   -4.8606 S   0  0  0  0  0  0  0  0  0  0  0  0
    1.4926    2.5689   -4.1173 C   0  0  0  0  0  0  0  0  0  0  0  0
    1.5551    1.2039   -4.4471 C   0  0  0  0  0  0  0  0  0  0  0  0
    1.9336    0.5524   -5.6406 C   0  0  0  0  0  0  0  0  0  0  0  0
    2.0338   -0.8795   -5.6485 C   0  0  0  0  0  0  0  0  0  0  0  0
    2.4480   -1.3514   -6.8142 N   0  0  0  0  0  0  0  0  0  0  0  0
    2.6899   -0.1022   -7.8161 S   0  0  0  0  0  0  0  0  0  0  0  0
    2.2761    1.0899   -6.8011 N   0  0  0  0  0  0  0  0  0  0  0  0
    1.6523   -1.5974   -4.4949 C   0  0  0  0  0  0  0  0  0  0  0  0
    1.5476   -2.9790   -4.2561 C   0  0  0  0  0  0  0  0  0  0  0  0
    1.8396   -4.4837   -5.0624 S   0  0  0  0  0  0  0  0  0  0  0  0
    1.1845   -5.3328   -3.6840 C   0  0  0  0  0  0  0  0  0  0  0  0
    0.9670   -6.7017   -3.4041 C   0  0  0  0  0  0  0  0  0  0  0  0
    1.4114   -7.8144   -4.2403 C   0  0  0  0  0  0  0  0  0  0  0  0
    1.4619   -7.6956   -5.6264 C   0  0  0  0  0  0  0  0  0  0  0  0
    1.8997   -8.7584   -6.3925 C   0  0  0  0  0  0  0  0  0  0  0  0
    2.3098   -9.9379   -5.7966 C   0  0  0  0  0  0  0  0  0  0  0  0
    2.2931  -10.0698   -4.4132 C   0  0  0  0  0  0  0  0  0  0  0  0
    2.7868  -11.3131   -3.7208 C   0  0  0  0  0  0  0  0  0  0  0  0
    2.4568  -12.6123   -4.4506 C   0  0  0  0  0  0  0  0  0  0  0  0
    1.8396   -9.0025   -3.6526 C   0  0  0  0  0  0  0  0  0  0  0  0
    0.3451   -6.8602   -2.1823 C   0  0  0  0  0  0  0  0  0  0  0  0
    0.1193   -5.3443   -1.3256 S   0  0  0  0  0  0  0  0  0  0  0  0
    0.7762   -4.4759   -2.6634 C   0  0  0  0  0  0  0  0  0  0  0  0
    0.9904   -3.1297   -2.9873 C   0  0  0  0  0  0  0  0  0  0  0  0
    0.7741   -1.9043   -2.4156 N   0  0  0  0  0  0  0  0  0  0  0  0
    1.1871   -0.9394   -3.3226 C   0  0  0  0  0  0  0  0  0  0  0  0
    1.2477    0.4780   -3.2624 C   0  0  0  0  0  0  0  0  0  0  0  0
    1.0457    1.3875   -2.2361 N   0  0  0  0  0  0  0  0  0  0  0  0
    1.2022    2.6441   -2.7552 C   0  0  0  0  0  0  0  0  0  0  0  0
    1.1946    3.9668   -2.2918 C   0  0  0  0  0  0  0  0  0  0  0  0
    0.9803    4.7548   -0.7700 S   0  0  0  0  0  0  0  0  0  0  0  0
    1.0795    1.1952   -0.8041 C   0  0  0  0  0  0  0  0  0  0  0  0
    2.3603    0.4946   -0.3592 C   0  0  0  0  0  0  0  0  0  0  0  0
   -0.1482   -1.7953   -1.3070 C   0  0  0  0  0  0  0  0  0  0  0  0
   -1.4602   -1.1430   -1.7342 C   0  0  0  0  0  0  0  0  0  0  0  0
   -0.2748   -8.0404   -1.6568 C   0  0  0  0  0  0  0  0  0  0  0  0
   -1.1857   -8.8541   -2.3145 C   0  0  0  0  0  0  0  0  0  0  0  0
   -1.6722   -8.6386   -3.5917 N   0  0  0  0  0  0  0  0  0  0  0  0
   -1.8665   -7.3312   -4.0630 C   0  0  0  0  0  0  0  0  0  0  0  0
   -2.3239   -6.3281   -3.2123 C   0  0  0  0  0  0  0  0  0  0  0  0
   -2.4177   -5.0244   -3.6587 C   0  0  0  0  0  0  0  0  0  0  0  0
   -2.0782   -4.6847   -4.9617 C   0  0  0  0  0  0  0  0  0  0  0  0
   -2.1104   -3.2609   -5.4266 C   0  0  0  0  0  0  0  0  0  0  0  0
   -1.6859   -5.7032   -5.8227 C   0  0  0  0  0  0  0  0  0  0  0  0
   -1.5828   -7.0088   -5.3876 C   0  0  0  0  0  0  0  0  0  0  0  0
   -1.9926   -9.7389   -4.3989 C   0  0  0  0  0  0  0  0  0  0  0  0
   -3.1010   -9.6961   -5.2413 C   0  0  0  0  0  0  0  0  0  0  0  0
   -3.4217  -10.7874   -6.0223 C   0  0  0  0  0  0  0  0  0  0  0  0
   -2.6620  -11.9507   -5.9799 C   0  0  0  0  0  0  0  0  0  0  0  0
   -3.0381  -13.1450   -6.8020 C   0  0  0  0  0  0  0  0  0  0  0  0
   -1.5590  -11.9844   -5.1369 C   0  0  0  0  0  0  0  0  0  0  0  0
   -1.2183  -10.8953   -4.3594 C   0  0  0  0  0  0  0  0  0  0  0  0
   -1.6191   -9.9009   -1.4638 C   0  0  0  0  0  0  0  0  0  0  0  0
   -2.6838  -11.2450   -1.6646 S   0  0  0  0  0  0  0  0  0  0  0  0
   -2.4789  -11.6851    0.0343 C   0  0  0  0  0  0  0  0  0  0  0  0
   -1.5346  -10.8787    0.6806 C   0  0  0  0  0  0  0  0  0  0  0  0
   -0.9959  -11.0903    1.9299 N   0  0  0  0  0  0  0  0  0  0  0  0
   -0.5878   -9.9623    2.6730 C   0  0  0  0  0  0  0  0  0  0  0  0
    0.6421   -9.9438    3.3198 C   0  0  0  0  0  0  0  0  0  0  0  0
    1.0172   -8.8359    4.0546 C   0  0  0  0  0  0  0  0  0  0  0  0
    0.1864   -7.7275    4.1563 C   0  0  0  0  0  0  0  0  0  0  0  0
    0.5798   -6.5341    4.9698 C   0  0  0  0  0  0  0  0  0  0  0  0
   -1.0392   -7.7550    3.5000 C   0  0  0  0  0  0  0  0  0  0  0  0
   -1.4286   -8.8570    2.7682 C   0  0  0  0  0  0  0  0  0  0  0  0
   -0.7797  -12.3754    2.4512 C   0  0  0  0  0  0  0  0  0  0  0  0
   -0.8514  -12.5887    3.8270 C   0  0  0  0  0  0  0  0  0  0  0  0
   -0.7233  -13.8629    4.3437 C   0  0  0  0  0  0  0  0  0  0  0  0
   -0.5135  -14.9568    3.5137 C   0  0  0  0  0  0  0  0  0  0  0  0
   -0.4267  -16.3477    4.0603 C   0  0  0  0  0  0  0  0  0  0  0  0
   -0.3915  -14.7288    2.1473 C   0  0  0  0  0  0  0  0  0  0  0  0
   -0.5157  -13.4602    1.6188 C   0  0  0  0  0  0  0  0  0  0  0  0
   -1.0890   -9.8502   -0.1825 C   0  0  0  0  0  0  0  0  0  0  0  0
   -0.0147   -8.5104    0.0146 S   0  0  0  0  0  0  0  0  0  0  0  0
   -3.2439  -12.7518    0.5506 C   0  0  0  0  0  0  0  0  0  0  0  0
   -3.6699  -12.8718    1.8371 C   0  0  0  0  0  0  0  0  0  0  0  0
   -3.6420  -11.5998    3.0410 S   0  0  0  0  0  0  0  0  0  0  0  0
   -4.1646  -12.7158    4.2780 C   0  0  0  0  0  0  0  0  0  0  0  0
   -4.1905  -12.3149    5.5902 C   0  0  0  0  0  0  0  0  0  0  0  0
   -4.5203  -13.1083    6.6996 C   0  0  0  0  0  0  0  0  0  0  0  0
   -4.7439  -13.7070    7.6540 N   0  0  0  0  0  0  0  0  0  0  0  0
   -3.7764  -11.0042    5.9026 C   0  0  0  0  0  0  0  0  0  0  0  0
   -3.4181   -9.9424    6.1506 N   0  0  0  0  0  0  0  0  0  0  0  0
   -4.4582  -13.9334    3.7597 N   0  0  0  0  0  0  0  0  0  0  0  0
   -5.0564  -15.0154    4.5108 C   0  0  0  0  0  0  0  0  0  0  0  0
   -6.4607  -14.6989    4.9647 C   0  0  0  0  0  0  0  0  0  0  0  0
   -6.9531  -15.2694    6.1307 C   0  0  0  0  0  0  0  0  0  0  0  0
   -8.2417  -14.9972    6.5510 C   0  0  0  0  0  0  0  0  0  0  0  0
   -9.0503  -14.1496    5.8127 C   0  0  0  0  0  0  0  0  0  0  0  0
   -8.5676  -13.5838    4.6461 C   0  0  0  0  0  0  0  0  0  0  0  0
   -7.2801  -13.8606    4.2210 C   0  0  0  0  0  0  0  0  0  0  0  0
   -4.2269  -14.0903    2.3937 C   0  0  0  0  0  0  0  0  0  0  0  0
   -4.4291  -15.1311    1.8074 O   0  0  0  0  0  0  0  0  0  0  0  0
    3.9585   12.6616    2.3603 H   0  0  0  0  0  0  0  0  0  0  0  0
   -1.8132   14.9918    3.9772 H   0  0  0  0  0  0  0  0  0  0  0  0
   -1.5915   14.4949    2.2811 H   0  0  0  0  0  0  0  0  0  0  0  0
   -3.0450   17.0213    3.6867 H   0  0  0  0  0  0  0  0  0  0  0  0
   -3.1058   19.3704    2.9679 H   0  0  0  0  0  0  0  0  0  0  0  0
   -1.3061   20.2760    1.5408 H   0  0  0  0  0  0  0  0  0  0  0  0
    0.5355   18.8038    0.8105 H   0  0  0  0  0  0  0  0  0  0  0  0
    0.5801   16.4511    1.5004 H   0  0  0  0  0  0  0  0  0  0  0  0
    2.4079   10.5141    4.1884 H   0  0  0  0  0  0  0  0  0  0  0  0
    2.6151   11.6237    6.3602 H   0  0  0  0  0  0  0  0  0  0  0  0
    1.1189   12.4961    8.4133 H   0  0  0  0  0  0  0  0  0  0  0  0
   -0.1131   13.6709    7.9299 H   0  0  0  0  0  0  0  0  0  0  0  0
    1.5878   13.9516    7.5465 H   0  0  0  0  0  0  0  0  0  0  0  0
   -1.3674   13.1017    6.0030 H   0  0  0  0  0  0  0  0  0  0  0  0
   -1.5744   12.0141    3.8106 H   0  0  0  0  0  0  0  0  0  0  0  0
   -0.9111   11.1783    0.2664 H   0  0  0  0  0  0  0  0  0  0  0  0
   -3.0877   10.2779   -0.4746 H   0  0  0  0  0  0  0  0  0  0  0  0
   -5.2973    9.3528    0.2816 H   0  0  0  0  0  0  0  0  0  0  0  0
   -4.5846    7.7433    0.2375 H   0  0  0  0  0  0  0  0  0  0  0  0
   -5.3611    8.3142    1.7142 H   0  0  0  0  0  0  0  0  0  0  0  0
   -3.4837    8.2089    3.2353 H   0  0  0  0  0  0  0  0  0  0  0  0
   -1.3023    9.0824    3.9595 H   0  0  0  0  0  0  0  0  0  0  0  0
    6.5231    7.9346   -1.5337 H   0  0  0  0  0  0  0  0  0  0  0  0
    7.9307    9.7390   -2.4251 H   0  0  0  0  0  0  0  0  0  0  0  0
    6.6375   12.6515   -4.3007 H   0  0  0  0  0  0  0  0  0  0  0  0
    8.0847   11.7046   -3.9207 H   0  0  0  0  0  0  0  0  0  0  0  0
    7.3906   12.7831   -2.7129 H   0  0  0  0  0  0  0  0  0  0  0  0
    4.4398   11.9565   -3.4661 H   0  0  0  0  0  0  0  0  0  0  0  0
    3.0306   10.1406   -2.5970 H   0  0  0  0  0  0  0  0  0  0  0  0
    3.6821    5.8346    0.2005 H   0  0  0  0  0  0  0  0  0  0  0  0
    4.1849    3.4977   -0.3208 H   0  0  0  0  0  0  0  0  0  0  0  0
    4.1863    2.0146   -3.1467 H   0  0  0  0  0  0  0  0  0  0  0  0
    5.8933    2.3646   -3.3836 H   0  0  0  0  0  0  0  0  0  0  0  0
    5.3090    1.8684   -1.7899 H   0  0  0  0  0  0  0  0  0  0  0  0
    5.4257    4.6293   -4.2412 H   0  0  0  0  0  0  0  0  0  0  0  0
    4.9305    6.9776   -3.7171 H   0  0  0  0  0  0  0  0  0  0  0  0
    2.9692    6.5474   -5.1309 H   0  0  0  0  0  0  0  0  0  0  0  0
    3.1449    8.5953   -6.4863 H   0  0  0  0  0  0  0  0  0  0  0  0
    1.8483   10.5972   -5.8902 H   0  0  0  0  0  0  0  0  0  0  0  0
    0.0657   11.5967   -4.6505 H   0  0  0  0  0  0  0  0  0  0  0  0
   -0.9575   10.5544   -3.6542 H   0  0  0  0  0  0  0  0  0  0  0  0
   -0.0723   12.3873   -2.2780 H   0  0  0  0  0  0  0  0  0  0  0  0
    1.5828   11.9784   -2.7246 H   0  0  0  0  0  0  0  0  0  0  0  0
    0.6356   10.8658   -1.7338 H   0  0  0  0  0  0  0  0  0  0  0  0
    0.1494    8.5034   -2.5918 H   0  0  0  0  0  0  0  0  0  0  0  0
    1.1488   -6.7789   -6.1001 H   0  0  0  0  0  0  0  0  0  0  0  0
    1.9279   -8.6644   -7.4682 H   0  0  0  0  0  0  0  0  0  0  0  0
    2.6568  -10.7504   -6.4154 H   0  0  0  0  0  0  0  0  0  0  0  0
    3.8729  -11.2359   -3.6042 H   0  0  0  0  0  0  0  0  0  0  0  0
    2.3592  -11.3467   -2.7152 H   0  0  0  0  0  0  0  0  0  0  0  0
    3.0279  -12.7050   -5.3705 H   0  0  0  0  0  0  0  0  0  0  0  0
    2.6990  -13.4642   -3.8189 H   0  0  0  0  0  0  0  0  0  0  0  0
    1.3985  -12.6515   -4.6962 H   0  0  0  0  0  0  0  0  0  0  0  0
    1.8442   -9.0853   -2.5747 H   0  0  0  0  0  0  0  0  0  0  0  0
    1.0429    2.1923   -0.3582 H   0  0  0  0  0  0  0  0  0  0  0  0
    0.1901    0.6613   -0.4657 H   0  0  0  0  0  0  0  0  0  0  0  0
    2.3522    0.3572    0.7189 H   0  0  0  0  0  0  0  0  0  0  0  0
    2.4685   -0.4758   -0.8375 H   0  0  0  0  0  0  0  0  0  0  0  0
    3.2217    1.1011   -0.6269 H   0  0  0  0  0  0  0  0  0  0  0  0
    0.3090   -1.2660   -0.4706 H   0  0  0  0  0  0  0  0  0  0  0  0
   -0.3466   -2.8158   -0.9700 H   0  0  0  0  0  0  0  0  0  0  0  0
   -2.1423   -1.0935   -0.8895 H   0  0  0  0  0  0  0  0  0  0  0  0
   -1.2964   -0.1375   -2.1144 H   0  0  0  0  0  0  0  0  0  0  0  0
   -1.9232   -1.7315   -2.5228 H   0  0  0  0  0  0  0  0  0  0  0  0
   -2.5963   -6.5715   -2.1954 H   0  0  0  0  0  0  0  0  0  0  0  0
   -2.7599   -4.2591   -2.9760 H   0  0  0  0  0  0  0  0  0  0  0  0
   -2.4041   -3.2015   -6.4720 H   0  0  0  0  0  0  0  0  0  0  0  0
   -2.8049   -2.6702   -4.8328 H   0  0  0  0  0  0  0  0  0  0  0  0
   -1.1180   -2.8158   -5.3355 H   0  0  0  0  0  0  0  0  0  0  0  0
   -1.4384   -5.4653   -6.8470 H   0  0  0  0  0  0  0  0  0  0  0  0
   -1.2611   -7.7868   -6.0633 H   0  0  0  0  0  0  0  0  0  0  0  0
   -3.7093   -8.8044   -5.2751 H   0  0  0  0  0  0  0  0  0  0  0  0
   -4.2855  -10.7390   -6.6695 H   0  0  0  0  0  0  0  0  0  0  0  0
   -3.7232  -13.7817   -6.2409 H   0  0  0  0  0  0  0  0  0  0  0  0
   -3.5363  -12.8433   -7.7203 H   0  0  0  0  0  0  0  0  0  0  0  0
   -2.1604  -13.7360   -7.0533 H   0  0  0  0  0  0  0  0  0  0  0  0
   -0.9555  -12.8799   -5.0921 H   0  0  0  0  0  0  0  0  0  0  0  0
   -0.3442  -10.9280   -3.7268 H   0  0  0  0  0  0  0  0  0  0  0  0
    1.2981  -10.7988    3.2443 H   0  0  0  0  0  0  0  0  0  0  0  0
    1.9750   -8.8338    4.5544 H   0  0  0  0  0  0  0  0  0  0  0  0
   -0.0204   -6.4920    5.8786 H   0  0  0  0  0  0  0  0  0  0  0  0
    0.4056   -5.6156    4.4125 H   0  0  0  0  0  0  0  0  0  0  0  0
    1.6283   -6.5818    5.2526 H   0  0  0  0  0  0  0  0  0  0  0  0
   -1.7022   -6.9060    3.5748 H   0  0  0  0  0  0  0  0  0  0  0  0
   -2.3907   -8.8774    2.2773 H   0  0  0  0  0  0  0  0  0  0  0  0
   -1.0343  -11.7528    4.4870 H   0  0  0  0  0  0  0  0  0  0  0  0
   -0.8043  -14.0070    5.4119 H   0  0  0  0  0  0  0  0  0  0  0  0
   -1.2279  -16.9619    3.6499 H   0  0  0  0  0  0  0  0  0  0  0  0
   -0.5084  -16.3470    5.1442 H   0  0  0  0  0  0  0  0  0  0  0  0
    0.5197  -16.8092    3.7818 H   0  0  0  0  0  0  0  0  0  0  0  0
   -0.2027  -15.5611    1.4855 H   0  0  0  0  0  0  0  0  0  0  0  0
   -0.4153  -13.3098    0.5545 H   0  0  0  0  0  0  0  0  0  0  0  0
   -3.5442  -13.5395   -0.1301 H   0  0  0  0  0  0  0  0  0  0  0  0
   -4.4247  -15.2677    5.3672 H   0  0  0  0  0  0  0  0  0  0  0  0
   -5.0717  -15.8685    3.8202 H   0  0  0  0  0  0  0  0  0  0  0  0
   -6.3195  -15.9183    6.7159 H   0  0  0  0  0  0  0  0  0  0  0  0
   -8.6123  -15.4424    7.4617 H   0  0  0  0  0  0  0  0  0  0  0  0
  -10.0538  -13.9304    6.1453 H   0  0  0  0  0  0  0  0  0  0  0  0
   -9.1930  -12.9247    4.0622 H   0  0  0  0  0  0  0  0  0  0  0  0
   -6.9187  -13.4216    3.3011 H   0  0  0  0  0  0  0  0  0  0  0  0
  1  2  2  0  0  0  0
  2  3  1  0  0  0  0
  3  4  1  0  0  0  0
  4  5  2  0  0  0  0
  5  6  1  0  0  0  0
  6  7  3  0  0  0  0
  5  8  1  0  0  0  0
  8  9  3  0  0  0  0
  4 10  1  0  0  0  0
 10 11  1  0  0  0  0
 11 12  1  0  0  0  0
 12 13  2  0  0  0  0
 13 14  1  0  0  0  0
 14 15  2  0  0  0  0
 15 16  1  0  0  0  0
 16 17  2  0  0  0  0
 10 18  1  0  0  0  0
 18 19  2  0  0  0  0
  1 20  1  0  0  0  0
 20 21  2  0  0  0  0
 21 22  1  0  0  0  0
 22 23  1  0  0  0  0
 23 24  2  0  0  0  0
 24 25  1  0  0  0  0
 25 26  2  0  0  0  0
 26 27  1  0  0  0  0
 26 28  1  0  0  0  0
 28 29  2  0  0  0  0
 22 30  1  0  0  0  0
 30 31  2  0  0  0  0
 31 32  1  0  0  0  0
 32 33  2  0  0  0  0
 33 34  1  0  0  0  0
 33 35  1  0  0  0  0
 35 36  2  0  0  0  0
 21 37  1  0  0  0  0
 37 38  1  0  0  0  0
 38 39  1  0  0  0  0
 39 40  2  0  0  0  0
 40 41  1  0  0  0  0
 41 42  1  0  0  0  0
 42 43  2  0  0  0  0
 43 44  1  0  0  0  0
 44 45  2  0  0  0  0
 45 46  1  0  0  0  0
 45 47  1  0  0  0  0
 47 48  2  0  0  0  0
 41 49  1  0  0  0  0
 49 50  2  0  0  0  0
 50 51  1  0  0  0  0
 51 52  2  0  0  0  0
 52 53  1  0  0  0  0
 52 54  1  0  0  0  0
 54 55  2  0  0  0  0
 40 56  1  0  0  0  0
 56 57  1  0  0  0  0
 39 58  1  0  0  0  0
 58 59  2  0  0  0  0
 59 60  1  0  0  0  0
 60 61  2  0  0  0  0
 61 62  1  0  0  0  0
 62 63  2  0  0  0  0
 63 64  1  0  0  0  0
 64 65  1  0  0  0  0
 65 66  1  0  0  0  0
 64 67  2  0  0  0  0
 59 68  1  0  0  0  0
 68 69  1  0  0  0  0
 69 70  1  0  0  0  0
 70 71  1  0  0  0  0
 71 72  1  0  0  0  0
 72 73  1  0  0  0  0
 73 74  2  0  0  0  0
 74 75  1  0  0  0  0
 75 76  1  0  0  0  0
 73 77  1  0  0  0  0
 77 78  1  0  0  0  0
 78 79  1  0  0  0  0
 79 80  1  0  0  0  0
 80 81  1  0  0  0  0
 81 82  1  0  0  0  0
 82 83  2  0  0  0  0
 83 84  1  0  0  0  0
 84 85  2  0  0  0  0
 85 86  1  0  0  0  0
 86 87  1  0  0  0  0
 87 88  1  0  0  0  0
 86 89  2  0  0  0  0
 81 90  2  0  0  0  0
 90 91  1  0  0  0  0
 91 92  1  0  0  0  0
 92 93  1  0  0  0  0
 93 94  1  0  0  0  0
 94 95  1  0  0  0  0
 95 96  1  0  0  0  0
 96 97  1  0  0  0  0
 97 98  1  0  0  0  0
 98 99  1  0  0  0  0
 99100  1  0  0  0  0
 97101  1  0  0  0  0
101102  1  0  0  0  0
 94103  1  0  0  0  0
103104  1  0  0  0  0
 90105  1  0  0  0  0
105106  2  0  0  0  0
106107  1  0  0  0  0
107108  1  0  0  0  0
108109  2  0  0  0  0
109110  1  0  0  0  0
110111  2  0  0  0  0
111112  1  0  0  0  0
111113  1  0  0  0  0
113114  2  0  0  0  0
107115  1  0  0  0  0
115116  2  0  0  0  0
116117  1  0  0  0  0
117118  2  0  0  0  0
118119  1  0  0  0  0
118120  1  0  0  0  0
120121  2  0  0  0  0
106122  1  0  0  0  0
122123  1  0  0  0  0
123124  1  0  0  0  0
124125  2  0  0  0  0
125126  1  0  0  0  0
126127  1  0  0  0  0
127128  2  0  0  0  0
128129  1  0  0  0  0
129130  2  0  0  0  0
130131  1  0  0  0  0
130132  1  0  0  0  0
132133  2  0  0  0  0
126134  1  0  0  0  0
134135  2  0  0  0  0
135136  1  0  0  0  0
136137  2  0  0  0  0
137138  1  0  0  0  0
137139  1  0  0  0  0
139140  2  0  0  0  0
125141  1  0  0  0  0
141142  1  0  0  0  0
124143  1  0  0  0  0
143144  2  0  0  0  0
144145  1  0  0  0  0
145146  1  0  0  0  0
146147  2  0  0  0  0
147148  1  0  0  0  0
148149  3  0  0  0  0
147150  1  0  0  0  0
150151  3  0  0  0  0
146152  1  0  0  0  0
152153  1  0  0  0  0
153154  1  0  0  0  0
154155  2  0  0  0  0
155156  1  0  0  0  0
156157  2  0  0  0  0
157158  1  0  0  0  0
158159  2  0  0  0  0
152160  1  0  0  0  0
160161  2  0  0  0  0
 18  2  1  0  0  0  0
 57 20  1  0  0  0  0
100 58  1  0  0  0  0
142105  1  0  0  0  0
160144  1  0  0  0  0
 17 12  1  0  0  0  0
 29 23  1  0  0  0  0
 36 30  1  0  0  0  0
 56 37  2  0  0  0  0
 67 60  1  0  0  0  0
 99 68  2  0  0  0  0
114108  1  0  0  0  0
121115  1  0  0  0  0
141122  2  0  0  0  0
159154  1  0  0  0  0
 48 42  1  0  0  0  0
 55 49  1  0  0  0  0
 98 70  2  0  0  0  0
133127  1  0  0  0  0
140134  1  0  0  0  0
 96 71  2  0  0  0  0
 76 72  2  0  0  0  0
 95 77  2  0  0  0  0
 93 78  2  0  0  0  0
 92 80  2  0  0  0  0
 89 82  1  0  0  0  0
  1162  1  0  0  0  0
 11163  1  0  0  0  0
 11164  1  0  0  0  0
 13165  1  0  0  0  0
 14166  1  0  0  0  0
 15167  1  0  0  0  0
 16168  1  0  0  0  0
 17169  1  0  0  0  0
 24170  1  0  0  0  0
 25171  1  0  0  0  0
 27172  1  0  0  0  0
 27173  1  0  0  0  0
 27174  1  0  0  0  0
 28175  1  0  0  0  0
 29176  1  0  0  0  0
 31177  1  0  0  0  0
 32178  1  0  0  0  0
 34179  1  0  0  0  0
 34180  1  0  0  0  0
 34181  1  0  0  0  0
 35182  1  0  0  0  0
 36183  1  0  0  0  0
 43184  1  0  0  0  0
 44185  1  0  0  0  0
 46186  1  0  0  0  0
 46187  1  0  0  0  0
 46188  1  0  0  0  0
 47189  1  0  0  0  0
 48190  1  0  0  0  0
 50191  1  0  0  0  0
 51192  1  0  0  0  0
 53193  1  0  0  0  0
 53194  1  0  0  0  0
 53195  1  0  0  0  0
 54196  1  0  0  0  0
 55197  1  0  0  0  0
 61198  1  0  0  0  0
 62199  1  0  0  0  0
 63200  1  0  0  0  0
 65201  1  0  0  0  0
 65202  1  0  0  0  0
 66203  1  0  0  0  0
 66204  1  0  0  0  0
 66205  1  0  0  0  0
 67206  1  0  0  0  0
 83207  1  0  0  0  0
 84208  1  0  0  0  0
 85209  1  0  0  0  0
 87210  1  0  0  0  0
 87211  1  0  0  0  0
 88212  1  0  0  0  0
 88213  1  0  0  0  0
 88214  1  0  0  0  0
 89215  1  0  0  0  0
101216  1  0  0  0  0
101217  1  0  0  0  0
102218  1  0  0  0  0
102219  1  0  0  0  0
102220  1  0  0  0  0
103221  1  0  0  0  0
103222  1  0  0  0  0
104223  1  0  0  0  0
104224  1  0  0  0  0
104225  1  0  0  0  0
109226  1  0  0  0  0
110227  1  0  0  0  0
112228  1  0  0  0  0
112229  1  0  0  0  0
112230  1  0  0  0  0
113231  1  0  0  0  0
114232  1  0  0  0  0
116233  1  0  0  0  0
117234  1  0  0  0  0
119235  1  0  0  0  0
119236  1  0  0  0  0
119237  1  0  0  0  0
120238  1  0  0  0  0
121239  1  0  0  0  0
128240  1  0  0  0  0
129241  1  0  0  0  0
131242  1  0  0  0  0
131243  1  0  0  0  0
131244  1  0  0  0  0
132245  1  0  0  0  0
133246  1  0  0  0  0
135247  1  0  0  0  0
136248  1  0  0  0  0
138249  1  0  0  0  0
138250  1  0  0  0  0
138251  1  0  0  0  0
139252  1  0  0  0  0
140253  1  0  0  0  0
143254  1  0  0  0  0
153255  1  0  0  0  0
153256  1  0  0  0  0
155257  1  0  0  0  0
156258  1  0  0  0  0
157259  1  0  0  0  0
158260  1  0  0  0  0
159261  1  0  0  0  0
M  END
