209

C          1.33480        9.56240       -9.79310
C          1.39950        8.40660      -10.51440
C          1.22940        7.02660       -9.99010
O          1.23730        6.63770       -8.84140
C          0.96660        6.18670      -11.17720
C          0.67470        4.83590      -11.21930
C          0.45570        4.24510      -12.45300
C          0.53210        5.02550      -13.59790
F          0.30920        4.43810      -14.78420
C          0.82420        6.38230      -13.58110
C          1.04540        6.96540      -12.34400
C          1.36990        8.33830      -11.96630
C          1.67880        9.35170      -12.83250
C          1.65980        9.22320      -14.23770
N          1.65570        9.18060      -15.38450
C          2.09820       10.64390      -12.44760
N          2.46930       11.70560      -12.21720
C          1.40000        9.71310       -8.37010
C          2.17590        8.86630       -7.57350
C          2.11250        9.01700       -6.20350
N          2.73380        8.28310       -5.22350
C          3.54200        7.11460       -5.45650
C          2.68170        5.87690       -5.70420
C          2.27770        8.71850       -4.00660
C          1.40000        9.81880       -4.19320
C          1.29340       10.01130       -5.60230
C          0.58150       10.89780       -6.40960
C          0.65190       10.75360       -7.77290
C          0.79840       10.41230       -3.08520
C          1.04110        9.89990       -1.83340
C          1.89860        8.79730       -1.64630
C          2.53100        8.21600       -2.74340
C          2.03630        8.16670       -0.35030
C          1.82880        8.64870        0.92630
C          1.66070       10.05800        1.28620
C          0.71510       10.43540        2.23500
C          0.57880       11.76700        2.58030
C          1.38020       12.72770        1.99010
C          2.33420       12.36820        1.04510
C          3.23700       13.40120        0.43400
C          4.50680       13.56370        1.27130
C          2.47060       11.03160        0.70710
C          1.85760        7.60600        1.88350
S          1.57760        7.55410        3.61140
C          1.76680        5.83040        3.57780
C          1.56100        4.71350        4.41010
C          0.99150        4.57770        5.69740
C          0.55750        3.27620        6.14090
N         -0.05630        3.32380        7.31210
S         -0.07780        4.86020        7.82300
N          0.68730        5.53070        6.56300
C          0.83780        2.14450        5.34230
C          0.52100        0.77430        5.45080
S         -0.47390       -0.28660        6.39620
C         -0.09970       -1.59990        5.30100
C         -0.55430       -2.93240        5.17260
C         -1.49360       -3.60130        6.07160
C         -2.55310       -2.90240        6.64430
C         -3.43340       -3.55530        7.48480
C         -3.27400       -4.90210        7.76210
C         -2.22240       -5.61590        7.20300
C         -2.01250       -7.07140        7.51460
C         -0.80650       -7.27380        8.43280
C         -1.33800       -4.95230        6.36760
C          0.01860       -3.55200        4.07830
S          1.13570       -2.51430        3.20860
C          0.79930       -1.22690        4.30430
C          1.14280        0.12630        4.38250
N          1.82930        1.02710        3.60980
C          1.60110        2.27910        4.15380
C          1.82350        3.56690        3.61470
N          2.14600        3.97090        2.33500
C          2.08840        5.33780        2.31060
C          2.12260        6.34970        1.34390
S          2.33390        6.43350       -0.36400
C          2.15120        3.21670        1.10230
C          3.52940        3.20050        0.44280
C          2.99030        0.60810        2.85360
C          3.97800       -0.15990        3.73130
C         -0.42510       -4.78830        3.48970
C          0.26400       -5.93440        3.14740
N          1.61750       -6.15290        3.38540
C          2.54870       -5.27180        2.81360
C          3.67700       -4.87440        3.52410
C          4.57530       -3.99190        2.95650
C          4.37460       -3.48710        1.67790
C          5.35620       -2.54410        1.05020
C          3.24650       -3.89320        0.97440
C          2.34040       -4.77470        1.52850
C          2.00670       -7.36170        3.96800
C          3.23190       -7.95180        3.66560
C          3.59460       -9.14340        4.26020
C          2.75450       -9.78890        5.15970
C          3.14460      -11.09740        5.77620
C          1.53120       -9.19960        5.45070
C          1.16010       -8.00370        4.87070
C         -0.60250       -6.89320        2.56650
S         -0.39630       -8.47550        1.91650
C         -2.06060       -8.48490        1.33360
C         -2.75060       -7.33150        1.70520
N         -4.12070       -7.11760        1.59510
C         -4.69030       -6.78080        0.34670
C         -5.86710       -7.39040       -0.07000
C         -6.43900       -7.03160       -1.27640
C         -5.85800       -6.06200       -2.08590
C         -6.46070       -5.67270       -3.39910
C         -4.68520       -5.45240       -1.65280
C         -4.10210       -5.80400       -0.44980
C         -4.78370       -6.71760        2.76630
C         -5.81680       -5.78460        2.73840
C         -6.43930       -5.40410        3.91040
C         -6.05290       -5.92840        5.13750
C         -6.70570       -5.47370        6.40560
C         -5.03040       -6.86850        5.15540
C         -4.40680       -7.26650        3.99120
C         -1.90740       -6.45620        2.42480
S         -2.13130       -4.86800        3.06030
C         -2.52990       -9.67570        0.72980
C         -3.33770       -9.85910       -0.35400
C         -4.03850      -11.16050       -0.51730
O         -3.90970      -12.14380        0.17660
C         -4.93930      -10.97840       -1.67370
C         -5.89160      -11.84340       -2.17930
C         -6.63440      -11.44140       -3.27820
C         -6.39420      -10.19350       -3.83330
F         -7.13380       -9.80990       -4.88870
C         -5.43550       -9.31360       -3.35190
C         -4.70320       -9.71830       -2.24980
C         -3.63820       -9.04350       -1.50430
C         -2.90320       -7.98980       -1.98250
C         -3.13190       -7.38140       -3.23390
N         -3.25210       -6.86410       -4.25210
C         -1.77940       -7.42990       -1.34430
N         -0.84370       -6.92950       -0.90450
H          1.13850       10.47730      -10.34100
H          0.62140        4.26490      -10.30540
H          0.22570        3.19540      -12.54370
H          0.86230        6.93060      -14.50770
H          2.81570        8.13010       -8.02810
H          4.18450        6.96420       -4.58520
H          4.18310        7.30480       -6.32170
H          2.03510        5.69280       -4.84910
H          3.31550        5.00760       -5.85750
H          2.06210        6.02020       -6.58610
H         -0.02000       11.67640       -5.96580
H          0.09040       11.41670       -8.41420
H          0.12430       11.24550       -3.21250
H          0.54030       10.32230       -0.97730
H          3.18330        7.36740       -2.59890
H          0.07790        9.69000        2.68590
H         -0.15990       12.05630        3.31310
H          1.26530       13.76710        2.26250
H          2.71720       14.35980        0.37860
H          3.50850       13.10000       -0.58000
H          5.16140       14.31150        0.82960
H          4.25550       13.87510        2.28270
H          5.04500       12.62020        1.32850
H          3.21450       10.73660       -0.01950
H         -2.69140       -1.85610        6.42040
H         -4.25070       -3.00670        7.93030
H         -3.96830       -5.40140        8.42260
H         -1.85330       -7.62440        6.58500
H         -2.90310       -7.47620        7.99960
H         -0.67920       -8.32890        8.66450
H         -0.94660       -6.72900        9.36380
H          0.10320       -6.91300        7.95850
H         -0.49760       -5.48750        5.95020
H          1.78780        2.20890        1.29960
H          1.44580        3.69810        0.41480
H          3.81430        4.20740        0.15060
H          3.50100        2.57830       -0.44710
H          4.29330        2.81610        1.11470
H          2.66770       -0.02900        2.02290
H          3.48670        1.49500        2.46880
H          3.55980       -1.11040        4.05040
H          4.88470       -0.35820        3.16730
H          4.23340        0.42670        4.61140
H          3.83980       -5.25780        4.52070
H          5.44520       -3.68720        3.52100
H          5.85110       -3.02520        0.20660
H          4.85000       -1.65640        0.67370
H          6.11800       -2.24100        1.76430
H          3.07910       -3.51890       -0.02510
H          1.47310       -5.09010        0.96740
H          3.89370       -7.47730        2.95680
H          4.54830       -9.58640        4.01190
H          2.69240      -11.21380        6.75870
H          2.80330      -11.92180        5.14880
H          4.22500      -11.17440        5.87320
H          0.85950       -9.67930        6.14820
H          0.20720       -7.56050        5.12020
H         -6.32680       -8.13870        0.55860
H         -7.35130       -7.51550       -1.59450
H         -6.82770       -4.64760       -3.35670
H         -7.28980       -6.32530       -3.66070
H         -5.70700       -5.72060       -4.18450
H         -4.22410       -4.69260       -2.26660
H         -3.19910       -5.31470       -0.11500
H         -6.12260       -5.34800        1.79960
H         -7.23450       -4.67380        3.87010
H         -6.63860       -6.24020        7.17380
H         -7.75270       -5.23100        6.23840
H         -6.20530       -4.57810        6.77470
H         -4.72010       -7.30140        6.09440
H         -3.62380       -8.01020        4.02530
H         -2.23800      -10.59490        1.23330
H         -6.04610      -12.80740       -1.72060
H         -7.39270      -12.07540       -3.70950
H         -5.30040       -8.35810       -3.82900
