160

C         -2.26380        0.60450       11.57140
C         -3.49010        0.90400       11.08260
C         -4.28660        0.05540       10.13540
O         -3.91020       -0.89040        9.48450
C         -5.64690        0.59930       10.21190
C         -5.67600        1.74430       11.07150
C         -6.91170        2.30490       11.17640
S         -8.06890        1.44410       10.22990
C         -6.86550        0.30440        9.67580
Cl        -7.26430       -0.95610        8.61710
C         -4.34350        1.98070       11.58360
C         -3.97470        3.05750       12.34010
C         -4.91840        4.02880       12.73940
N         -5.67720        4.82220       13.07120
C         -2.66280        3.34650       12.77000
N         -1.61540        3.64320       13.13310
C         -1.37010       -0.44300       11.12690
C         -0.62870       -1.13680       12.10740
C          0.21290       -2.16630       11.75820
C          0.95140       -2.90010       12.80330
O          0.86900       -2.66880       13.98810
N          1.77300       -3.90760       12.33760
C          1.99070       -4.32070       11.03650
O          2.75080       -5.23160       10.79930
C          1.23570       -3.57490       10.01330
C          1.37670       -3.90750        8.68650
C          0.66000       -3.21640        7.68670
C         -0.15390       -2.16120        8.05450
C         -0.32240       -1.79890        9.40360
C         -1.18760       -0.76010        9.79290
C          0.37630       -2.52510       10.40270
C          0.79400       -3.60420        6.29840
C          1.00160       -4.86170        5.77460
C          1.02430       -6.11410        6.53390
C          0.06780       -6.37590        7.51250
C          0.10000       -7.57330        8.19980
C          1.07200       -8.51750        7.91590
C          2.02540       -8.27740        6.93550
C          3.04790       -9.31540        6.57550
C          2.57970      -10.11970        5.36080
C          1.98960       -7.07260        6.24910
C          1.11480       -4.81690        4.36730
S          1.31420       -6.06130        3.15850
C          1.22200       -4.84820        1.92820
C          1.26000       -4.75090        0.52510
C          1.48480       -5.71110       -0.48440
C          1.51060       -5.28220       -1.85520
N          1.77690       -6.27520       -2.68950
S          1.97390       -7.63120       -1.82840
N          1.72640       -7.00650       -0.35560
C          1.19250       -3.94070       -2.16070
C          0.96160       -3.29740       -3.38850
S          0.99640       -3.65870       -5.08010
C          0.38920       -2.05570       -5.40840
C          0.08070       -1.37800       -6.60850
C          0.25570       -1.95190       -7.94420
C          0.86340       -1.21570       -8.95910
C          1.00880       -1.76950      -10.21590
C          0.55140       -3.05050      -10.47170
C         -0.04410       -3.80300       -9.46750
C         -0.59070       -5.17150       -9.75150
C         -2.06460       -5.07460      -10.15160
C         -0.18200       -3.24510       -8.20540
C         -0.35310       -0.09530       -6.36000
S         -0.36140        0.29900       -4.65070
C          0.19110       -1.29230       -4.25790
C          0.51240       -2.00860       -3.09580
N          0.47670       -1.81430       -1.73790
C          0.90700       -2.99210       -1.14230
C          1.07620       -3.37860        0.21080
N          0.99250       -2.65550        1.39030
C          1.05950       -3.55440        2.42670
C          0.99010       -3.53770        3.82630
S          0.71980       -2.36010        5.06080
C          1.39890       -1.28270        1.59640
C          2.80190       -1.19710        2.19670
C         -0.36670       -0.76630       -1.19680
C         -1.55440       -1.32630       -0.42160
C         -0.83490        0.87660       -7.32060
C         -1.62260        0.44030       -8.40710
C         -2.08830        1.33160       -9.34290
C         -2.91350        0.84610      -10.46440
O         -3.22400       -0.31090      -10.63480
N         -3.33590        1.82480      -11.34280
C         -3.08700        3.18260      -11.31360
O         -3.55530        3.91390      -12.15550
C         -2.23600        3.63640      -10.19630
C         -1.89060        4.96350      -10.09700
C         -1.03950        5.40610       -9.06610
C         -0.63140        4.51350       -8.09200
C         -0.99200        3.15560       -8.14910
C         -0.55260        2.22170       -7.19150
C         -1.77770        2.70500       -9.24160
C         -0.62930        6.79500       -9.05150
C          0.57700        7.30700       -8.73370
C          0.70850        8.77870       -8.49560
O         -0.11220        9.62300       -8.76330
C          2.00790        8.94890       -7.82430
C          2.56060       10.08550       -7.30630
C          3.82520       10.01510       -6.68260
C          4.44520       11.16020       -6.14060
C          5.66770       11.07840       -5.53490
C          6.30500        9.83180       -5.45720
F          7.50550        9.77130       -4.85600
C          5.74940        8.69130       -5.96650
C          4.49110        8.75700       -6.59650
C          3.89710        7.59730       -7.14460
C          2.67720        7.69200       -7.76100
C          1.86780        6.69330       -8.45360
C          2.33420        5.50190       -8.93450
C          3.62700        5.00140       -8.66480
N          4.65510        4.53640       -8.45720
C          1.63770        4.64770       -9.81690
N          1.17360        3.92370      -10.57650
H         -1.91210        1.15890       12.43410
H         -7.22640        3.15690       11.74570
H         -0.73370       -0.88420       13.15230
H          2.28700       -4.41770       13.05050
H          2.05730       -4.70230        8.42310
H         -0.69960       -1.61440        7.29890
H         -1.69270       -0.19650        9.02520
H         -0.70180       -5.64690        7.72050
H         -0.64070       -7.77420        8.95970
H          1.08960       -9.45040        8.46020
H          3.99850       -8.83200        6.34120
H          3.20570       -9.98980        7.41890
H          3.31980      -10.87030        5.09400
H          1.63950      -10.62110        5.57940
H          2.42600       -9.46300        4.50750
H          2.73440       -6.86870        5.49330
H          1.23100       -0.22030       -8.75680
H          1.48100       -1.19710      -11.00040
H          0.66160       -3.47330      -11.45960
H         -0.49670       -5.80010       -8.86380
H         -0.02610       -5.63580      -10.56220
H         -2.17680       -4.44800      -11.03340
H         -2.64730       -4.63240       -9.34680
H         -2.46580       -6.06140      -10.37040
H         -0.65340       -3.81620       -7.41840
H          1.41130       -0.77950        0.63440
H          0.67810       -0.79380        2.26000
H          2.83230       -1.63700        3.18910
H          3.10090       -0.15520        2.27340
H          3.51380       -1.71960        1.56120
H         -0.73190       -0.19560       -2.05430
H          0.20400       -0.07180       -0.57460
H         -1.22800       -1.88190        0.45280
H         -2.13390       -1.99230       -1.05680
H         -2.19430       -0.51040       -0.09720
H         -1.88460       -0.60150       -8.50830
H         -3.90870        1.50140      -12.11750
H         -2.24390        5.65390      -10.84800
H         -0.02590        4.85660       -7.26400
H          0.04170        2.56700       -6.35680
H         -1.39220        7.52430       -9.30680
H          2.03820       11.02790       -7.37480
H          3.93540       12.10900       -6.21320
H          6.15590       11.94390       -5.11590
H          6.27100        7.74980       -5.89340
H          4.42150        6.65910       -7.05770
