223

C          7.50110       10.04720        2.92030
C          7.00680       11.29710        2.60040
C          5.77710       11.57380        1.84800
O          5.04050       10.77770        1.29350
C          5.59910       13.03140        1.92500
C          6.67830       13.60190        2.67380
C          6.59300       14.95190        2.79490
S          5.18690       15.56420        1.99590
C          4.70730       13.95930        1.48760
Cl         3.30270       13.71530        0.56980
C          7.57520       12.53370        3.08000
C          8.74590       12.73350        3.77440
C          9.69780       11.75090        4.09330
N         10.53550       11.01010        4.36310
C          9.12390       14.01650        4.21360
N          9.44230       15.05380        4.59050
C          7.08060        8.78090        2.53460
C          7.67140        7.58350        3.02300
N          8.58780        7.49210        4.03470
C          8.55030        8.30560        5.18140
C          7.33600        8.73080        5.71480
C          7.31900        9.53610        6.83570
C          8.49890        9.92000        7.46270
C          8.48520       10.81550        8.66270
C          9.70320        9.46240        6.94100
C          9.73740        8.66940        5.81170
C          9.51500        6.43080        3.98390
C         10.19670        6.16720        2.79890
C         11.07610        5.10600        2.72730
C         11.30380        4.29020        3.82910
C         12.22790        3.11620        3.73460
C         10.63570        4.57670        5.01440
C          9.74990        5.63240        5.09830
C          7.18610        6.46990        2.32260
S          7.48530        4.76690        2.42680
C          6.29940        4.45900        1.16280
C          5.74470        5.63490        0.66580
N          4.85470        5.72810       -0.39060
C          3.92940        6.79200       -0.34470
C          3.77650        7.65780       -1.42180
C          2.92320        8.73800       -1.32060
C          2.21010        8.98420       -0.15370
C          1.35150       10.20220       -0.02160
C          2.34730        8.09640        0.90560
C          3.19290        7.00920        0.81560
C          4.99110        4.96200       -1.54960
C          6.22520        4.44470       -1.94170
C          6.32170        3.64530       -3.06130
C          5.20540        3.35270       -3.83730
C          5.32870        2.46950       -5.04150
C          3.98560        3.89940       -3.46110
C          3.87080        4.68470       -2.33130
C          6.23850        6.77050        1.35220
S          5.87150        8.45720        1.28570
C          5.95930        3.11730        0.82410
C          6.73400        1.97500        0.89780
C          8.18840        1.90070        1.24630
C          9.06820        2.56270        0.18700
C          5.99170        0.83650        0.54490
S          6.41190       -0.86000        0.46050
C          4.77870       -1.21970        0.01790
C          3.97440       -2.33500       -0.27970
C          4.29600       -3.70510       -0.42150
C          3.24340       -4.62230       -0.78220
N          3.62790       -5.87310       -0.94690
Se         5.36320       -5.97510       -0.64440
N          5.49050       -4.25020       -0.29830
C          1.91650       -4.13540       -0.84950
C          0.69620       -4.82330       -0.96090
S          0.11510       -6.43830       -1.18140
C         -1.52100       -5.84460       -1.03460
C         -2.77200       -6.47770       -1.16260
C         -2.92730       -7.94520       -1.39250
C         -2.87040       -8.70550       -0.06660
C         -3.79760       -5.56890       -1.07270
S         -3.23000       -3.93480       -0.74110
C         -1.59160       -4.46840       -0.82820
C         -0.31980       -3.88200       -0.78600
N          0.21790       -2.63560       -0.60590
C          1.59650       -2.76450       -0.65030
C          2.66200       -1.83970       -0.50300
N          2.68370       -0.45700       -0.40590
C          3.96440       -0.08970       -0.07500
C          4.65800        1.08890        0.22130
S          4.29700        2.76960        0.34090
C          1.85260        0.49670       -1.10650
C          2.44730        0.84370       -2.47070
C         -0.61130       -1.57900       -0.06590
C         -0.14390       -1.11870        1.31040
C         -5.19790       -5.77160       -1.30240
C         -5.99950       -5.05430       -2.18070
N         -5.57130       -4.06600       -3.04580
C         -6.43650       -2.99090       -3.32030
C         -7.20020       -2.42100       -2.30570
C         -8.04790       -1.36780       -2.58680
C         -8.16110       -0.86140       -3.87600
C         -9.06950        0.29260       -4.16590
C         -7.39120       -1.43650       -4.88090
C         -6.53730       -2.48770       -4.61360
C         -4.27940       -4.08390       -3.58880
C         -3.55740       -2.90040       -3.72860
C         -2.24320       -2.93400       -4.15020
C         -1.61200       -4.13590       -4.44570
C         -0.16180       -4.18300       -4.81670
C         -2.35760       -5.30590       -4.36270
C         -3.67390       -5.28630       -3.94820
C         -7.33820       -5.50890       -2.11710
S         -8.78600       -5.07950       -2.95140
C         -9.68970       -6.33210       -2.08760
C         -8.85760       -7.07800       -1.23220
N         -9.24410       -8.10230       -0.41630
C        -10.20800       -9.04300       -0.80860
C        -11.14780       -9.51110        0.10490
C        -12.09680      -10.43210       -0.29270
C        -12.13630      -10.90690       -1.59860
C        -13.19590      -11.86610       -2.03990
C        -11.18190      -10.44620       -2.49940
C        -10.22460       -9.52980       -2.11480
C         -8.64820       -8.21420        0.85700
C         -8.25390       -9.45590        1.34170
C         -7.66690       -9.55240        2.58870
C         -7.45870       -8.42400        3.37190
C         -6.79740       -8.52350        4.71170
C         -7.86680       -7.18880        2.87850
C         -8.46010       -7.07620        1.63800
C         -7.54290       -6.55860       -1.23760
S         -6.07590       -7.03000       -0.45330
C        -11.06610       -6.47930       -2.29630
C        -11.95890       -5.53150       -2.73250
C        -13.22930       -5.96990       -3.36120
O        -13.66860       -7.09800       -3.40500
C        -13.79140       -4.74000       -3.94560
C        -12.96690       -3.62250       -3.58740
C        -13.40820       -2.44320       -4.09310
S        -14.84510       -2.66440       -5.03010
C        -14.85220       -4.38720       -4.71960
Cl       -16.07180       -5.38450       -5.34700
C        -11.89390       -4.09340       -2.72850
C        -11.17080       -3.28410       -1.88190
C        -10.35770       -3.76180       -0.84010
N         -9.74110       -4.11890        0.06220
C        -11.30760       -1.88680       -1.92150
N        -11.41310       -0.74270       -1.94510
H          8.35470       10.04520        3.58680
H          7.24950       15.63570        3.29470
H          6.41000        8.43370        5.24440
H          6.37000        9.86480        7.23460
H          7.47610       10.93920        9.04770
H          9.11630       10.41030        9.45150
H          8.87600       11.79810        8.39780
H         10.63060        9.74810        7.41350
H         10.68070        8.34080        5.40510
H         10.03250        6.80080        1.93940
H         11.59670        4.91050        1.80130
H         13.00120        3.28900        2.98990
H         11.66810        2.22760        3.44020
H         12.69870        2.91330        4.69350
H         10.80380        3.95690        5.88290
H          9.22800        5.83820        6.02100
H          4.34360        7.48980       -2.32580
H          2.82690        9.41590       -2.15630
H          0.98470       10.53300       -0.99050
H          0.50520       10.01740        0.63650
H          1.94580       11.00740        0.41060
H          1.79240        8.26430        1.81720
H          3.30070        6.32690        1.64700
H          7.11040        4.67430       -1.36820
H          7.28500        3.24580       -3.34480
H          4.37320        2.36970       -5.55020
H          5.67230        1.47680       -4.75100
H          6.05520        2.87900       -5.74230
H          3.10580        3.69930       -4.05570
H          2.91030        5.08230       -2.03980
H          8.45540        0.84510        1.32940
H          8.36750        2.37250        2.21490
H          8.86770        3.62950        0.13260
H          8.87970        2.12180       -0.78910
H         10.11690        2.42440        0.43650
H         -2.11380       -8.28300       -2.03800
H         -3.87770       -8.14840       -1.88840
H         -2.96050       -9.77400       -0.24320
H         -3.68370       -8.39080        0.58400
H         -1.92530       -8.51420        0.43600
H          0.86240        0.07800       -1.25050
H          1.77980        1.39990       -0.49300
H          2.57330       -0.05830       -3.06630
H          1.78120        1.52170       -2.99670
H          3.41350        1.32910       -2.36040
H         -0.67890       -0.73580       -0.75980
H         -1.61840       -1.99560        0.01670
H         -0.12200       -1.96290        1.99560
H         -0.83410       -0.37440        1.69760
H          0.85010       -0.68330        1.26860
H         -7.12160       -2.79990       -1.29660
H         -8.62770       -0.92690       -1.78980
H         -9.91970        0.28930       -3.48760
H         -8.53290        1.23230       -4.03010
H         -9.42870        0.25530       -5.19200
H         -7.46540       -1.05880       -5.89070
H         -5.94500       -2.92840       -5.40230
H         -4.02420       -1.96150       -3.47050
H         -1.69080       -2.00830       -4.22850
H          0.00800       -4.88980       -5.62620
H          0.43110       -4.50980       -3.96100
H          0.19540       -3.20280       -5.12300
H         -1.89610       -6.24940       -4.61530
H         -4.23650       -6.20620       -3.88740
H        -11.13530       -9.13890        1.11850
H        -12.82830      -10.77900        0.42230
H        -13.61300      -12.40560       -1.19320
H        -14.00330      -11.31730       -2.52560
H        -12.79900      -12.58090       -2.75740
H        -11.19040      -10.80950       -3.51630
H         -9.48590       -9.18060       -2.82180
H         -8.40540      -10.33820        0.73730
H         -7.35990      -10.52130        2.95490
H         -6.80380       -9.54770        5.07580
H         -5.76080       -8.19300        4.64010
H         -7.29970       -7.88710        5.43730
H         -7.72500       -6.30260        3.47940
H         -8.78930       -6.11460        1.27230
H        -11.48950       -7.46960       -2.16610
H        -12.99200       -1.46060       -3.99450
