252

C          6.69500        2.11170       10.71530
C          7.27460        3.29270       11.13480
C          6.83900        4.64650       10.76930
O          5.85520        4.96860       10.12810
C          7.86010        5.54370       11.32750
C          8.85430        4.76720       12.00510
C          9.84470        5.52100       12.54840
S          9.58700        7.20430       12.24570
C          8.10810        6.88000       11.36740
Cl         7.18480        8.13680       10.70190
C          8.48380        3.36500       11.92010
C          9.18660        2.34620       12.52050
C          8.80500        0.99560       12.57100
N          8.53710       -0.11750       12.68330
C         10.39140        2.59440       13.20540
N         11.38370        2.76990       13.75640
C          5.55070        1.87890        9.96160
C          5.12500        0.57410        9.58860
N          5.85460       -0.57420        9.73150
C          7.24590       -0.61890        9.52310
C          8.03110       -1.50370       10.25770
C          9.39380       -1.55740       10.04300
C         10.00850       -0.73200        9.10900
C         11.49290       -0.77760        8.91800
C          9.21310        0.13780        8.37160
C          7.84740        0.19210        8.56370
C          5.16340       -1.78340        9.94590
C          5.49790       -2.93160        9.23630
C          4.80780       -4.10670        9.46050
C          3.77380       -4.16730       10.38640
C          3.00870       -5.43410       10.61310
C          3.45100       -3.01450       11.09440
C          4.13540       -1.83550       10.88420
C          3.83880        0.61100        9.02790
S          2.79050       -0.59290        8.34420
C          1.63250        0.65240        7.91680
C          2.07210        1.93240        8.22550
N          1.42180        3.10220        7.86990
C          0.77720        3.19820        6.62890
C         -0.41270        3.91210        6.49570
C         -1.09090        3.92210        5.29500
C         -0.60400        3.23760        4.18600
C         -1.37710        3.21830        2.90240
C          0.61430        2.58510        4.30560
C          1.30170        2.56590        5.50440
C          1.45810        4.19570        8.74800
C          1.53270        5.49730        8.25880
C          1.56870        6.56460        9.13210
C          1.54390        6.37090       10.50840
C          1.61380        7.53790       11.44470
C          1.47830        5.06960       10.98700
C          1.43250        3.99300       10.12430
C          3.31830        1.89270        8.89450
S          4.38350        3.11750        9.47960
C          0.39640        0.35340        7.25550
C         -0.84060        0.86790        7.58930
C         -1.12360        1.48590        8.88290
C         -0.53420        0.98470       10.04220
C         -0.79420        1.57740       11.26280
C         -1.62370        2.68220       11.34000
C         -2.23260        3.18590       10.19760
C         -3.09080        4.41540       10.27120
C         -2.21800        5.67200       10.23300
C         -1.99220        2.56790        8.98060
C         -1.76660        0.67820        6.54070
S         -3.41820        1.18700        6.29420
C         -3.37120        0.52500        4.69420
C         -4.18200        0.43640        3.54410
C         -5.53880        0.72780        3.27390
C         -6.09220        0.39110        1.98360
N         -7.38620        0.65750        1.90820
S         -7.87070        1.28070        3.32180
N         -6.44650        1.23750        4.09080
C         -5.23280       -0.07450        0.96200
C         -5.39710       -0.30880       -0.41840
S         -6.65220       -0.35120       -1.61130
C         -5.45700       -0.65470       -2.84950
C         -5.53350       -0.84000       -4.24940
C         -6.77670       -0.98830       -5.00130
C         -6.84230       -1.83180       -6.10920
C         -8.02900       -1.97960       -6.79980
C         -9.16380       -1.29660       -6.39850
C         -9.12610       -0.47120       -5.28290
C        -10.36120        0.22470       -4.78850
C        -11.00470       -0.57980       -3.65750
C         -7.93320       -0.33280       -4.59050
C         -4.26950       -0.96600       -4.79580
S         -2.99590       -0.97030       -3.58570
C         -4.16050       -0.71350       -2.34060
C         -4.12660       -0.53840       -0.95220
N         -3.18040       -0.50640        0.04230
C         -3.85120       -0.24790        1.22310
C         -3.37540       -0.16660        2.54730
N         -2.14940       -0.51210        3.08350
C         -2.14870       -0.07710        4.38490
C         -1.23810       -0.00100        5.44410
S          0.40340       -0.46500        5.70190
C         -1.31970       -1.62570        2.67140
C         -1.54190       -2.84330        3.56790
C         -1.81380       -0.13150       -0.25770
C         -1.75380        1.26630       -0.87120
C         -3.87290       -0.93870       -6.16990
C         -4.29430       -0.05570       -7.15520
N         -5.18760        0.98360       -6.95950
C         -6.07420        1.33520       -7.98380
C         -6.60200        0.35850       -8.82470
C         -7.47180        0.70800       -9.83800
C         -7.84510        2.03020      -10.04060
C         -8.77350        2.40610      -11.15460
C         -7.31310        2.99910       -9.19780
C         -6.43620        2.66480       -8.18620
C         -5.13680        1.70730       -5.75820
C         -3.91490        1.95060       -5.13560
C         -3.87270        2.56830       -3.90190
C         -5.03700        2.95990       -3.25380
C         -4.99820        3.54060       -1.87360
C         -6.24610        2.77810       -3.91480
C         -6.30200        2.16970       -5.15270
C         -3.60020       -0.29190       -8.36470
S         -3.67920        0.40990       -9.93170
C         -2.30310       -0.56550      -10.47020
C         -1.88020       -1.47140       -9.47330
N         -0.93740       -2.46070       -9.60030
C         -0.35630       -2.99480       -8.41920
C         -0.40560       -4.36350       -8.17930
C          0.17450       -4.88800       -7.04090
C          0.81300       -4.06760       -6.11960
C          1.42880       -4.62890       -4.87610
C          0.85500       -2.70070       -6.36860
C          0.27870       -2.16320       -7.50200
C         -0.68840       -3.15560      -10.79350
C         -1.66160       -3.31220      -11.77760
C         -1.36500       -3.97860      -12.95000
C         -0.10660       -4.52600      -13.17070
C          0.20990       -5.23360      -14.45060
C          0.84280       -4.41450      -12.16170
C          0.56570       -3.73440      -10.99410
C         -2.62330       -1.27650       -8.28740
S         -2.57530       -1.98880       -6.70960
C         -1.86320       -0.30860      -11.77260
C         -0.67230       -0.61200      -12.39150
C         -0.63080       -0.76740      -13.86120
O         -1.51210       -0.51080      -14.65360
C          0.68790       -1.37250      -14.14880
C          1.18720       -1.82260      -15.33460
C          2.48100       -2.39200      -15.36640
C          3.03710       -2.89250      -16.56070
C          4.28820       -3.44480      -16.58020
C          5.01870       -3.50610      -15.38670
F          6.24890       -4.05530      -15.42290
C          4.52740       -3.03450      -14.20140
C          3.24080       -2.46310      -14.16350
C          2.70120       -1.97460      -12.95060
C          1.43790       -1.45260      -12.94240
C          0.62520       -0.90430      -11.86010
C          1.08650       -0.53000      -10.61550
C          0.36080        0.31140       -9.75860
N         -0.18230        1.03020       -9.04390
C          2.34270       -0.88770      -10.09900
N          3.33230       -1.20120       -9.60510
H          7.21490        1.21060       11.01660
H         10.70940        5.21620       13.10330
H          7.57210       -2.13610       11.00090
H          9.99290       -2.24010       10.62610
H         11.83540       -1.80580        8.81680
H         11.99330       -0.34570        9.78470
H         11.79140       -0.21840        8.03490
H          9.66680        0.77700        7.62780
H          7.24230        0.86560        7.97450
H          6.29420       -2.89570        8.50790
H          5.07470       -4.99070        8.90000
H          2.86120       -5.60950       11.67690
H          2.02530       -5.36330       10.14780
H          3.52900       -6.28650       10.18420
H          2.65660       -3.04490       11.82580
H          3.88600       -0.94930       11.44940
H         -0.80580        4.44200        7.34920
H         -2.02730        4.45590        5.21820
H         -1.44790        4.22250        2.48480
H         -0.89590        2.57290        2.17110
H         -2.39100        2.85770        3.07420
H          1.03420        2.07260        3.45130
H          2.24750        2.04820        5.57460
H          1.56950        5.66580        7.19260
H          1.62900        7.56880        8.73780
H          2.65190        7.84570       11.57390
H          1.05920        8.38640       11.04950
H          1.21440        7.27840       12.42230
H          1.45770        4.89200       12.05270
H          1.36480        2.98910       10.51460
H          0.11070        0.11990        9.98580
H         -0.34270        1.17810       12.15970
H         -1.80910        3.15190       12.29510
H         -3.78860        4.43150        9.43200
H         -3.66920        4.40940       11.19740
H         -2.83480        6.56570       10.29190
H         -1.63970        5.71000        9.31230
H         -1.51700        5.67500       11.06430
H         -2.47670        2.93930        8.09050
H         -5.96690       -2.38640       -6.41340
H         -8.07300       -2.63740       -7.65580
H        -10.08600       -1.41240       -6.94920
H        -11.07570        0.33990       -5.60580
H        -10.10170        1.21840       -4.41730
H        -11.27490       -1.57360       -4.00780
H        -10.30990       -0.68610       -2.82760
H        -11.90240       -0.08190       -3.29870
H         -7.89970        0.31340       -3.72700
H         -0.26870       -1.32100        2.71910
H         -1.57850       -1.89920        1.64910
H         -0.95510       -3.67930        3.19750
H         -1.23780       -2.63490        4.58970
H         -2.59300       -3.12410        3.56520
H         -1.22960       -0.13420        0.65990
H         -1.40010       -0.86370       -0.95810
H         -0.71950        1.53950       -1.06160
H         -2.19130        1.99330       -0.18960
H         -2.29990        1.29310       -1.80940
H         -6.33830       -0.67660       -8.67100
H         -7.87320       -0.06330      -10.47930
H         -9.46240        1.59430      -11.37670
H         -8.20220        2.61950      -12.05880
H         -9.34500        3.29580      -10.90070
H         -7.58280        4.03550       -9.34150
H         -6.02130        3.43320       -7.55100
H         -2.99720        1.65040       -5.62010
H         -2.91390        2.75320       -3.43910
H         -5.25140        2.77210       -1.14100
H         -4.00730        3.92240       -1.63860
H         -5.72140        4.34660       -1.77090
H         -7.16170        3.10460       -3.44300
H         -7.24950        2.02550       -5.64930
H         -0.90130       -5.01150       -8.88740
H          0.12510       -5.95290       -6.86620
H          1.50790       -5.71140       -4.93320
H          2.42060       -4.21020       -4.71770
H          0.81670       -4.37370       -4.01100
H          1.34960       -2.04530       -5.66750
H          0.31870       -1.09940       -7.67520
H         -2.65330       -2.91500      -11.62470
H         -2.12770       -4.07100      -13.70880
H         -0.32840       -4.78280      -15.28090
H         -0.08810       -6.28060      -14.38420
H          1.27690       -5.19710      -14.65860
H          1.82230       -4.84760      -12.30090
H          1.32760       -3.63300      -10.23510
H         -2.59960        0.15820      -12.42100
H          0.60410       -1.74870      -16.24040
H          2.45500       -2.83340      -17.46820
H          4.72730       -3.83190      -17.48590
H          5.11920       -3.09620      -13.30140
H          3.29440       -2.04510      -12.05250
