
  xtb     02062223143D
 energy: -418.944339940973 gnorm: 0.000518494513 xtb: 6.4.1 (unknown)
252278  0     0  0            999 V2000
    6.6950    2.1117   10.7153 C   0  0  0  0  0  0  0  0  0  0  0  0
    7.2746    3.2927   11.1348 C   0  0  0  0  0  0  0  0  0  0  0  0
    6.8390    4.6465   10.7693 C   0  0  0  0  0  0  0  0  0  0  0  0
    5.8552    4.9686   10.1281 O   0  0  0  0  0  0  0  0  0  0  0  0
    7.8601    5.5437   11.3275 C   0  0  0  0  0  0  0  0  0  0  0  0
    8.8543    4.7672   12.0051 C   0  0  0  0  0  0  0  0  0  0  0  0
    9.8447    5.5210   12.5484 C   0  0  0  0  0  0  0  0  0  0  0  0
    9.5870    7.2043   12.2457 S   0  0  0  0  0  0  0  0  0  0  0  0
    8.1081    6.8800   11.3674 C   0  0  0  0  0  0  0  0  0  0  0  0
    7.1848    8.1368   10.7019 Cl  0  0  0  0  0  0  0  0  0  0  0  0
    8.4838    3.3650   11.9201 C   0  0  0  0  0  0  0  0  0  0  0  0
    9.1866    2.3462   12.5205 C   0  0  0  0  0  0  0  0  0  0  0  0
    8.8050    0.9956   12.5710 C   0  0  0  0  0  0  0  0  0  0  0  0
    8.5371   -0.1175   12.6833 N   0  0  0  0  0  0  0  0  0  0  0  0
   10.3914    2.5944   13.2054 C   0  0  0  0  0  0  0  0  0  0  0  0
   11.3837    2.7699   13.7564 N   0  0  0  0  0  0  0  0  0  0  0  0
    5.5507    1.8789    9.9616 C   0  0  0  0  0  0  0  0  0  0  0  0
    5.1250    0.5741    9.5886 C   0  0  0  0  0  0  0  0  0  0  0  0
    5.8546   -0.5742    9.7315 N   0  0  0  0  0  0  0  0  0  0  0  0
    7.2459   -0.6189    9.5231 C   0  0  0  0  0  0  0  0  0  0  0  0
    8.0311   -1.5037   10.2577 C   0  0  0  0  0  0  0  0  0  0  0  0
    9.3938   -1.5574   10.0430 C   0  0  0  0  0  0  0  0  0  0  0  0
   10.0085   -0.7320    9.1090 C   0  0  0  0  0  0  0  0  0  0  0  0
   11.4929   -0.7776    8.9180 C   0  0  0  0  0  0  0  0  0  0  0  0
    9.2131    0.1378    8.3716 C   0  0  0  0  0  0  0  0  0  0  0  0
    7.8474    0.1921    8.5637 C   0  0  0  0  0  0  0  0  0  0  0  0
    5.1634   -1.7834    9.9459 C   0  0  0  0  0  0  0  0  0  0  0  0
    5.4979   -2.9316    9.2363 C   0  0  0  0  0  0  0  0  0  0  0  0
    4.8078   -4.1067    9.4605 C   0  0  0  0  0  0  0  0  0  0  0  0
    3.7738   -4.1673   10.3864 C   0  0  0  0  0  0  0  0  0  0  0  0
    3.0087   -5.4341   10.6131 C   0  0  0  0  0  0  0  0  0  0  0  0
    3.4510   -3.0145   11.0944 C   0  0  0  0  0  0  0  0  0  0  0  0
    4.1354   -1.8355   10.8842 C   0  0  0  0  0  0  0  0  0  0  0  0
    3.8388    0.6110    9.0279 C   0  0  0  0  0  0  0  0  0  0  0  0
    2.7905   -0.5929    8.3442 S   0  0  0  0  0  0  0  0  0  0  0  0
    1.6325    0.6524    7.9168 C   0  0  0  0  0  0  0  0  0  0  0  0
    2.0721    1.9324    8.2255 C   0  0  0  0  0  0  0  0  0  0  0  0
    1.4218    3.1022    7.8699 N   0  0  0  0  0  0  0  0  0  0  0  0
    0.7772    3.1982    6.6289 C   0  0  0  0  0  0  0  0  0  0  0  0
   -0.4127    3.9121    6.4957 C   0  0  0  0  0  0  0  0  0  0  0  0
   -1.0909    3.9221    5.2950 C   0  0  0  0  0  0  0  0  0  0  0  0
   -0.6040    3.2376    4.1860 C   0  0  0  0  0  0  0  0  0  0  0  0
   -1.3771    3.2183    2.9024 C   0  0  0  0  0  0  0  0  0  0  0  0
    0.6143    2.5851    4.3056 C   0  0  0  0  0  0  0  0  0  0  0  0
    1.3017    2.5659    5.5044 C   0  0  0  0  0  0  0  0  0  0  0  0
    1.4581    4.1957    8.7480 C   0  0  0  0  0  0  0  0  0  0  0  0
    1.5327    5.4973    8.2588 C   0  0  0  0  0  0  0  0  0  0  0  0
    1.5687    6.5646    9.1321 C   0  0  0  0  0  0  0  0  0  0  0  0
    1.5439    6.3709   10.5084 C   0  0  0  0  0  0  0  0  0  0  0  0
    1.6138    7.5379   11.4447 C   0  0  0  0  0  0  0  0  0  0  0  0
    1.4783    5.0696   10.9870 C   0  0  0  0  0  0  0  0  0  0  0  0
    1.4325    3.9930   10.1243 C   0  0  0  0  0  0  0  0  0  0  0  0
    3.3183    1.8927    8.8945 C   0  0  0  0  0  0  0  0  0  0  0  0
    4.3835    3.1175    9.4796 S   0  0  0  0  0  0  0  0  0  0  0  0
    0.3964    0.3534    7.2555 C   0  0  0  0  0  0  0  0  0  0  0  0
   -0.8406    0.8679    7.5893 C   0  0  0  0  0  0  0  0  0  0  0  0
   -1.1236    1.4859    8.8829 C   0  0  0  0  0  0  0  0  0  0  0  0
   -0.5342    0.9847   10.0422 C   0  0  0  0  0  0  0  0  0  0  0  0
   -0.7942    1.5774   11.2628 C   0  0  0  0  0  0  0  0  0  0  0  0
   -1.6237    2.6822   11.3400 C   0  0  0  0  0  0  0  0  0  0  0  0
   -2.2326    3.1859   10.1976 C   0  0  0  0  0  0  0  0  0  0  0  0
   -3.0908    4.4154   10.2712 C   0  0  0  0  0  0  0  0  0  0  0  0
   -2.2180    5.6720   10.2330 C   0  0  0  0  0  0  0  0  0  0  0  0
   -1.9922    2.5679    8.9806 C   0  0  0  0  0  0  0  0  0  0  0  0
   -1.7666    0.6782    6.5407 C   0  0  0  0  0  0  0  0  0  0  0  0
   -3.4182    1.1870    6.2942 S   0  0  0  0  0  0  0  0  0  0  0  0
   -3.3712    0.5250    4.6942 C   0  0  0  0  0  0  0  0  0  0  0  0
   -4.1820    0.4364    3.5441 C   0  0  0  0  0  0  0  0  0  0  0  0
   -5.5388    0.7278    3.2739 C   0  0  0  0  0  0  0  0  0  0  0  0
   -6.0922    0.3911    1.9836 C   0  0  0  0  0  0  0  0  0  0  0  0
   -7.3862    0.6575    1.9082 N   0  0  0  0  0  0  0  0  0  0  0  0
   -7.8707    1.2807    3.3218 S   0  0  0  0  0  0  0  0  0  0  0  0
   -6.4465    1.2375    4.0908 N   0  0  0  0  0  0  0  0  0  0  0  0
   -5.2328   -0.0745    0.9620 C   0  0  0  0  0  0  0  0  0  0  0  0
   -5.3971   -0.3088   -0.4184 C   0  0  0  0  0  0  0  0  0  0  0  0
   -6.6522   -0.3512   -1.6113 S   0  0  0  0  0  0  0  0  0  0  0  0
   -5.4570   -0.6547   -2.8495 C   0  0  0  0  0  0  0  0  0  0  0  0
   -5.5335   -0.8400   -4.2494 C   0  0  0  0  0  0  0  0  0  0  0  0
   -6.7767   -0.9883   -5.0013 C   0  0  0  0  0  0  0  0  0  0  0  0
   -6.8423   -1.8318   -6.1092 C   0  0  0  0  0  0  0  0  0  0  0  0
   -8.0290   -1.9796   -6.7998 C   0  0  0  0  0  0  0  0  0  0  0  0
   -9.1638   -1.2966   -6.3985 C   0  0  0  0  0  0  0  0  0  0  0  0
   -9.1261   -0.4712   -5.2829 C   0  0  0  0  0  0  0  0  0  0  0  0
  -10.3612    0.2247   -4.7885 C   0  0  0  0  0  0  0  0  0  0  0  0
  -11.0047   -0.5798   -3.6575 C   0  0  0  0  0  0  0  0  0  0  0  0
   -7.9332   -0.3328   -4.5905 C   0  0  0  0  0  0  0  0  0  0  0  0
   -4.2695   -0.9660   -4.7958 C   0  0  0  0  0  0  0  0  0  0  0  0
   -2.9959   -0.9703   -3.5857 S   0  0  0  0  0  0  0  0  0  0  0  0
   -4.1605   -0.7135   -2.3406 C   0  0  0  0  0  0  0  0  0  0  0  0
   -4.1266   -0.5384   -0.9522 C   0  0  0  0  0  0  0  0  0  0  0  0
   -3.1804   -0.5064    0.0423 N   0  0  0  0  0  0  0  0  0  0  0  0
   -3.8512   -0.2479    1.2231 C   0  0  0  0  0  0  0  0  0  0  0  0
   -3.3754   -0.1666    2.5473 C   0  0  0  0  0  0  0  0  0  0  0  0
   -2.1494   -0.5121    3.0835 N   0  0  0  0  0  0  0  0  0  0  0  0
   -2.1487   -0.0771    4.3849 C   0  0  0  0  0  0  0  0  0  0  0  0
   -1.2381   -0.0010    5.4441 C   0  0  0  0  0  0  0  0  0  0  0  0
    0.4034   -0.4650    5.7019 S   0  0  0  0  0  0  0  0  0  0  0  0
   -1.3197   -1.6257    2.6714 C   0  0  0  0  0  0  0  0  0  0  0  0
   -1.5419   -2.8433    3.5679 C   0  0  0  0  0  0  0  0  0  0  0  0
   -1.8138   -0.1315   -0.2577 C   0  0  0  0  0  0  0  0  0  0  0  0
   -1.7538    1.2663   -0.8712 C   0  0  0  0  0  0  0  0  0  0  0  0
   -3.8729   -0.9387   -6.1699 C   0  0  0  0  0  0  0  0  0  0  0  0
   -4.2943   -0.0557   -7.1552 C   0  0  0  0  0  0  0  0  0  0  0  0
   -5.1876    0.9836   -6.9595 N   0  0  0  0  0  0  0  0  0  0  0  0
   -6.0742    1.3352   -7.9838 C   0  0  0  0  0  0  0  0  0  0  0  0
   -6.6020    0.3585   -8.8247 C   0  0  0  0  0  0  0  0  0  0  0  0
   -7.4718    0.7080   -9.8380 C   0  0  0  0  0  0  0  0  0  0  0  0
   -7.8451    2.0302  -10.0406 C   0  0  0  0  0  0  0  0  0  0  0  0
   -8.7735    2.4061  -11.1546 C   0  0  0  0  0  0  0  0  0  0  0  0
   -7.3131    2.9991   -9.1978 C   0  0  0  0  0  0  0  0  0  0  0  0
   -6.4362    2.6648   -8.1862 C   0  0  0  0  0  0  0  0  0  0  0  0
   -5.1368    1.7073   -5.7582 C   0  0  0  0  0  0  0  0  0  0  0  0
   -3.9149    1.9506   -5.1356 C   0  0  0  0  0  0  0  0  0  0  0  0
   -3.8727    2.5683   -3.9019 C   0  0  0  0  0  0  0  0  0  0  0  0
   -5.0370    2.9599   -3.2538 C   0  0  0  0  0  0  0  0  0  0  0  0
   -4.9982    3.5406   -1.8736 C   0  0  0  0  0  0  0  0  0  0  0  0
   -6.2461    2.7781   -3.9148 C   0  0  0  0  0  0  0  0  0  0  0  0
   -6.3020    2.1697   -5.1527 C   0  0  0  0  0  0  0  0  0  0  0  0
   -3.6002   -0.2919   -8.3647 C   0  0  0  0  0  0  0  0  0  0  0  0
   -3.6792    0.4099   -9.9317 S   0  0  0  0  0  0  0  0  0  0  0  0
   -2.3031   -0.5655  -10.4702 C   0  0  0  0  0  0  0  0  0  0  0  0
   -1.8802   -1.4714   -9.4733 C   0  0  0  0  0  0  0  0  0  0  0  0
   -0.9374   -2.4607   -9.6003 N   0  0  0  0  0  0  0  0  0  0  0  0
   -0.3563   -2.9948   -8.4192 C   0  0  0  0  0  0  0  0  0  0  0  0
   -0.4056   -4.3635   -8.1793 C   0  0  0  0  0  0  0  0  0  0  0  0
    0.1745   -4.8880   -7.0409 C   0  0  0  0  0  0  0  0  0  0  0  0
    0.8130   -4.0676   -6.1196 C   0  0  0  0  0  0  0  0  0  0  0  0
    1.4288   -4.6289   -4.8761 C   0  0  0  0  0  0  0  0  0  0  0  0
    0.8550   -2.7007   -6.3686 C   0  0  0  0  0  0  0  0  0  0  0  0
    0.2787   -2.1632   -7.5020 C   0  0  0  0  0  0  0  0  0  0  0  0
   -0.6884   -3.1556  -10.7935 C   0  0  0  0  0  0  0  0  0  0  0  0
   -1.6616   -3.3122  -11.7776 C   0  0  0  0  0  0  0  0  0  0  0  0
   -1.3650   -3.9786  -12.9500 C   0  0  0  0  0  0  0  0  0  0  0  0
   -0.1066   -4.5260  -13.1707 C   0  0  0  0  0  0  0  0  0  0  0  0
    0.2099   -5.2336  -14.4506 C   0  0  0  0  0  0  0  0  0  0  0  0
    0.8428   -4.4145  -12.1617 C   0  0  0  0  0  0  0  0  0  0  0  0
    0.5657   -3.7344  -10.9941 C   0  0  0  0  0  0  0  0  0  0  0  0
   -2.6233   -1.2765   -8.2874 C   0  0  0  0  0  0  0  0  0  0  0  0
   -2.5753   -1.9888   -6.7096 S   0  0  0  0  0  0  0  0  0  0  0  0
   -1.8632   -0.3086  -11.7726 C   0  0  0  0  0  0  0  0  0  0  0  0
   -0.6723   -0.6120  -12.3915 C   0  0  0  0  0  0  0  0  0  0  0  0
   -0.6308   -0.7674  -13.8612 C   0  0  0  0  0  0  0  0  0  0  0  0
   -1.5121   -0.5108  -14.6536 O   0  0  0  0  0  0  0  0  0  0  0  0
    0.6879   -1.3725  -14.1488 C   0  0  0  0  0  0  0  0  0  0  0  0
    1.1872   -1.8226  -15.3346 C   0  0  0  0  0  0  0  0  0  0  0  0
    2.4810   -2.3920  -15.3664 C   0  0  0  0  0  0  0  0  0  0  0  0
    3.0371   -2.8925  -16.5607 C   0  0  0  0  0  0  0  0  0  0  0  0
    4.2882   -3.4448  -16.5802 C   0  0  0  0  0  0  0  0  0  0  0  0
    5.0187   -3.5061  -15.3867 C   0  0  0  0  0  0  0  0  0  0  0  0
    6.2489   -4.0553  -15.4229 F   0  0  0  0  0  0  0  0  0  0  0  0
    4.5274   -3.0345  -14.2014 C   0  0  0  0  0  0  0  0  0  0  0  0
    3.2408   -2.4631  -14.1635 C   0  0  0  0  0  0  0  0  0  0  0  0
    2.7012   -1.9746  -12.9506 C   0  0  0  0  0  0  0  0  0  0  0  0
    1.4379   -1.4526  -12.9424 C   0  0  0  0  0  0  0  0  0  0  0  0
    0.6252   -0.9043  -11.8601 C   0  0  0  0  0  0  0  0  0  0  0  0
    1.0865   -0.5300  -10.6155 C   0  0  0  0  0  0  0  0  0  0  0  0
    0.3608    0.3114   -9.7586 C   0  0  0  0  0  0  0  0  0  0  0  0
   -0.1823    1.0302   -9.0439 N   0  0  0  0  0  0  0  0  0  0  0  0
    2.3427   -0.8877  -10.0990 C   0  0  0  0  0  0  0  0  0  0  0  0
    3.3323   -1.2012   -9.6051 N   0  0  0  0  0  0  0  0  0  0  0  0
    7.2149    1.2106   11.0166 H   0  0  0  0  0  0  0  0  0  0  0  0
   10.7094    5.2162   13.1033 H   0  0  0  0  0  0  0  0  0  0  0  0
    7.5721   -2.1361   11.0009 H   0  0  0  0  0  0  0  0  0  0  0  0
    9.9929   -2.2401   10.6261 H   0  0  0  0  0  0  0  0  0  0  0  0
   11.8354   -1.8058    8.8168 H   0  0  0  0  0  0  0  0  0  0  0  0
   11.9933   -0.3457    9.7847 H   0  0  0  0  0  0  0  0  0  0  0  0
   11.7914   -0.2184    8.0349 H   0  0  0  0  0  0  0  0  0  0  0  0
    9.6668    0.7770    7.6278 H   0  0  0  0  0  0  0  0  0  0  0  0
    7.2423    0.8656    7.9745 H   0  0  0  0  0  0  0  0  0  0  0  0
    6.2942   -2.8957    8.5079 H   0  0  0  0  0  0  0  0  0  0  0  0
    5.0747   -4.9907    8.9000 H   0  0  0  0  0  0  0  0  0  0  0  0
    2.8612   -5.6095   11.6769 H   0  0  0  0  0  0  0  0  0  0  0  0
    2.0253   -5.3633   10.1478 H   0  0  0  0  0  0  0  0  0  0  0  0
    3.5290   -6.2865   10.1842 H   0  0  0  0  0  0  0  0  0  0  0  0
    2.6566   -3.0449   11.8258 H   0  0  0  0  0  0  0  0  0  0  0  0
    3.8860   -0.9493   11.4494 H   0  0  0  0  0  0  0  0  0  0  0  0
   -0.8058    4.4420    7.3492 H   0  0  0  0  0  0  0  0  0  0  0  0
   -2.0273    4.4559    5.2182 H   0  0  0  0  0  0  0  0  0  0  0  0
   -1.4479    4.2225    2.4848 H   0  0  0  0  0  0  0  0  0  0  0  0
   -0.8959    2.5729    2.1711 H   0  0  0  0  0  0  0  0  0  0  0  0
   -2.3910    2.8577    3.0742 H   0  0  0  0  0  0  0  0  0  0  0  0
    1.0342    2.0726    3.4513 H   0  0  0  0  0  0  0  0  0  0  0  0
    2.2475    2.0482    5.5746 H   0  0  0  0  0  0  0  0  0  0  0  0
    1.5695    5.6658    7.1926 H   0  0  0  0  0  0  0  0  0  0  0  0
    1.6290    7.5688    8.7378 H   0  0  0  0  0  0  0  0  0  0  0  0
    2.6519    7.8457   11.5739 H   0  0  0  0  0  0  0  0  0  0  0  0
    1.0592    8.3864   11.0495 H   0  0  0  0  0  0  0  0  0  0  0  0
    1.2144    7.2784   12.4223 H   0  0  0  0  0  0  0  0  0  0  0  0
    1.4577    4.8920   12.0527 H   0  0  0  0  0  0  0  0  0  0  0  0
    1.3648    2.9891   10.5146 H   0  0  0  0  0  0  0  0  0  0  0  0
    0.1107    0.1199    9.9858 H   0  0  0  0  0  0  0  0  0  0  0  0
   -0.3427    1.1781   12.1597 H   0  0  0  0  0  0  0  0  0  0  0  0
   -1.8091    3.1519   12.2951 H   0  0  0  0  0  0  0  0  0  0  0  0
   -3.7886    4.4315    9.4320 H   0  0  0  0  0  0  0  0  0  0  0  0
   -3.6692    4.4094   11.1974 H   0  0  0  0  0  0  0  0  0  0  0  0
   -2.8348    6.5657   10.2919 H   0  0  0  0  0  0  0  0  0  0  0  0
   -1.6397    5.7100    9.3123 H   0  0  0  0  0  0  0  0  0  0  0  0
   -1.5170    5.6750   11.0643 H   0  0  0  0  0  0  0  0  0  0  0  0
   -2.4767    2.9393    8.0905 H   0  0  0  0  0  0  0  0  0  0  0  0
   -5.9669   -2.3864   -6.4134 H   0  0  0  0  0  0  0  0  0  0  0  0
   -8.0730   -2.6374   -7.6558 H   0  0  0  0  0  0  0  0  0  0  0  0
  -10.0860   -1.4124   -6.9492 H   0  0  0  0  0  0  0  0  0  0  0  0
  -11.0757    0.3399   -5.6058 H   0  0  0  0  0  0  0  0  0  0  0  0
  -10.1017    1.2184   -4.4173 H   0  0  0  0  0  0  0  0  0  0  0  0
  -11.2749   -1.5736   -4.0078 H   0  0  0  0  0  0  0  0  0  0  0  0
  -10.3099   -0.6861   -2.8276 H   0  0  0  0  0  0  0  0  0  0  0  0
  -11.9024   -0.0819   -3.2987 H   0  0  0  0  0  0  0  0  0  0  0  0
   -7.8997    0.3134   -3.7270 H   0  0  0  0  0  0  0  0  0  0  0  0
   -0.2687   -1.3210    2.7191 H   0  0  0  0  0  0  0  0  0  0  0  0
   -1.5785   -1.8992    1.6491 H   0  0  0  0  0  0  0  0  0  0  0  0
   -0.9551   -3.6793    3.1975 H   0  0  0  0  0  0  0  0  0  0  0  0
   -1.2378   -2.6349    4.5897 H   0  0  0  0  0  0  0  0  0  0  0  0
   -2.5930   -3.1241    3.5652 H   0  0  0  0  0  0  0  0  0  0  0  0
   -1.2296   -0.1342    0.6599 H   0  0  0  0  0  0  0  0  0  0  0  0
   -1.4001   -0.8637   -0.9581 H   0  0  0  0  0  0  0  0  0  0  0  0
   -0.7195    1.5395   -1.0616 H   0  0  0  0  0  0  0  0  0  0  0  0
   -2.1913    1.9933   -0.1896 H   0  0  0  0  0  0  0  0  0  0  0  0
   -2.2999    1.2931   -1.8094 H   0  0  0  0  0  0  0  0  0  0  0  0
   -6.3383   -0.6766   -8.6710 H   0  0  0  0  0  0  0  0  0  0  0  0
   -7.8732   -0.0633  -10.4793 H   0  0  0  0  0  0  0  0  0  0  0  0
   -9.4624    1.5943  -11.3767 H   0  0  0  0  0  0  0  0  0  0  0  0
   -8.2022    2.6195  -12.0588 H   0  0  0  0  0  0  0  0  0  0  0  0
   -9.3450    3.2958  -10.9007 H   0  0  0  0  0  0  0  0  0  0  0  0
   -7.5828    4.0355   -9.3415 H   0  0  0  0  0  0  0  0  0  0  0  0
   -6.0213    3.4332   -7.5510 H   0  0  0  0  0  0  0  0  0  0  0  0
   -2.9972    1.6504   -5.6201 H   0  0  0  0  0  0  0  0  0  0  0  0
   -2.9139    2.7532   -3.4391 H   0  0  0  0  0  0  0  0  0  0  0  0
   -5.2514    2.7721   -1.1410 H   0  0  0  0  0  0  0  0  0  0  0  0
   -4.0073    3.9224   -1.6386 H   0  0  0  0  0  0  0  0  0  0  0  0
   -5.7214    4.3466   -1.7709 H   0  0  0  0  0  0  0  0  0  0  0  0
   -7.1617    3.1046   -3.4430 H   0  0  0  0  0  0  0  0  0  0  0  0
   -7.2495    2.0255   -5.6493 H   0  0  0  0  0  0  0  0  0  0  0  0
   -0.9013   -5.0115   -8.8874 H   0  0  0  0  0  0  0  0  0  0  0  0
    0.1251   -5.9529   -6.8662 H   0  0  0  0  0  0  0  0  0  0  0  0
    1.5079   -5.7114   -4.9332 H   0  0  0  0  0  0  0  0  0  0  0  0
    2.4206   -4.2102   -4.7177 H   0  0  0  0  0  0  0  0  0  0  0  0
    0.8167   -4.3737   -4.0110 H   0  0  0  0  0  0  0  0  0  0  0  0
    1.3496   -2.0453   -5.6675 H   0  0  0  0  0  0  0  0  0  0  0  0
    0.3187   -1.0994   -7.6752 H   0  0  0  0  0  0  0  0  0  0  0  0
   -2.6533   -2.9150  -11.6247 H   0  0  0  0  0  0  0  0  0  0  0  0
   -2.1277   -4.0710  -13.7088 H   0  0  0  0  0  0  0  0  0  0  0  0
   -0.3284   -4.7828  -15.2809 H   0  0  0  0  0  0  0  0  0  0  0  0
   -0.0881   -6.2806  -14.3842 H   0  0  0  0  0  0  0  0  0  0  0  0
    1.2769   -5.1971  -14.6586 H   0  0  0  0  0  0  0  0  0  0  0  0
    1.8223   -4.8476  -12.3009 H   0  0  0  0  0  0  0  0  0  0  0  0
    1.3276   -3.6330  -10.2351 H   0  0  0  0  0  0  0  0  0  0  0  0
   -2.5996    0.1582  -12.4210 H   0  0  0  0  0  0  0  0  0  0  0  0
    0.6041   -1.7487  -16.2404 H   0  0  0  0  0  0  0  0  0  0  0  0
    2.4550   -2.8334  -17.4682 H   0  0  0  0  0  0  0  0  0  0  0  0
    4.7273   -3.8319  -17.4859 H   0  0  0  0  0  0  0  0  0  0  0  0
    5.1192   -3.0962  -13.3014 H   0  0  0  0  0  0  0  0  0  0  0  0
    3.2944   -2.0451  -12.0525 H   0  0  0  0  0  0  0  0  0  0  0  0
  1  2  2  0  0  0  0
  2  3  1  0  0  0  0
  3  4  2  0  0  0  0
  3  5  1  0  0  0  0
  5  6  1  0  0  0  0
  6  7  2  0  0  0  0
  7  8  1  0  0  0  0
  8  9  1  0  0  0  0
  9 10  1  0  0  0  0
  6 11  1  0  0  0  0
 11 12  2  0  0  0  0
 12 13  1  0  0  0  0
 13 14  3  0  0  0  0
 12 15  1  0  0  0  0
 15 16  3  0  0  0  0
  1 17  1  0  0  0  0
 17 18  2  0  0  0  0
 18 19  1  0  0  0  0
 19 20  1  0  0  0  0
 20 21  2  0  0  0  0
 21 22  1  0  0  0  0
 22 23  2  0  0  0  0
 23 24  1  0  0  0  0
 23 25  1  0  0  0  0
 25 26  2  0  0  0  0
 19 27  1  0  0  0  0
 27 28  2  0  0  0  0
 28 29  1  0  0  0  0
 29 30  2  0  0  0  0
 30 31  1  0  0  0  0
 30 32  1  0  0  0  0
 32 33  2  0  0  0  0
 18 34  1  0  0  0  0
 34 35  1  0  0  0  0
 35 36  1  0  0  0  0
 36 37  2  0  0  0  0
 37 38  1  0  0  0  0
 38 39  1  0  0  0  0
 39 40  2  0  0  0  0
 40 41  1  0  0  0  0
 41 42  2  0  0  0  0
 42 43  1  0  0  0  0
 42 44  1  0  0  0  0
 44 45  2  0  0  0  0
 38 46  1  0  0  0  0
 46 47  2  0  0  0  0
 47 48  1  0  0  0  0
 48 49  2  0  0  0  0
 49 50  1  0  0  0  0
 49 51  1  0  0  0  0
 51 52  2  0  0  0  0
 37 53  1  0  0  0  0
 53 54  1  0  0  0  0
 36 55  1  0  0  0  0
 55 56  2  0  0  0  0
 56 57  1  0  0  0  0
 57 58  2  0  0  0  0
 58 59  1  0  0  0  0
 59 60  2  0  0  0  0
 60 61  1  0  0  0  0
 61 62  1  0  0  0  0
 62 63  1  0  0  0  0
 61 64  2  0  0  0  0
 56 65  1  0  0  0  0
 65 66  1  0  0  0  0
 66 67  1  0  0  0  0
 67 68  1  0  0  0  0
 68 69  1  0  0  0  0
 69 70  1  0  0  0  0
 70 71  2  0  0  0  0
 71 72  1  0  0  0  0
 72 73  1  0  0  0  0
 70 74  1  0  0  0  0
 74 75  1  0  0  0  0
 75 76  1  0  0  0  0
 76 77  1  0  0  0  0
 77 78  1  0  0  0  0
 78 79  1  0  0  0  0
 79 80  2  0  0  0  0
 80 81  1  0  0  0  0
 81 82  2  0  0  0  0
 82 83  1  0  0  0  0
 83 84  1  0  0  0  0
 84 85  1  0  0  0  0
 83 86  2  0  0  0  0
 78 87  2  0  0  0  0
 87 88  1  0  0  0  0
 88 89  1  0  0  0  0
 89 90  1  0  0  0  0
 90 91  1  0  0  0  0
 91 92  1  0  0  0  0
 92 93  1  0  0  0  0
 93 94  1  0  0  0  0
 94 95  1  0  0  0  0
 95 96  1  0  0  0  0
 96 97  1  0  0  0  0
 94 98  1  0  0  0  0
 98 99  1  0  0  0  0
 91100  1  0  0  0  0
100101  1  0  0  0  0
 87102  1  0  0  0  0
102103  2  0  0  0  0
103104  1  0  0  0  0
104105  1  0  0  0  0
105106  2  0  0  0  0
106107  1  0  0  0  0
107108  2  0  0  0  0
108109  1  0  0  0  0
108110  1  0  0  0  0
110111  2  0  0  0  0
104112  1  0  0  0  0
112113  2  0  0  0  0
113114  1  0  0  0  0
114115  2  0  0  0  0
115116  1  0  0  0  0
115117  1  0  0  0  0
117118  2  0  0  0  0
103119  1  0  0  0  0
119120  1  0  0  0  0
120121  1  0  0  0  0
121122  2  0  0  0  0
122123  1  0  0  0  0
123124  1  0  0  0  0
124125  2  0  0  0  0
125126  1  0  0  0  0
126127  2  0  0  0  0
127128  1  0  0  0  0
127129  1  0  0  0  0
129130  2  0  0  0  0
123131  1  0  0  0  0
131132  2  0  0  0  0
132133  1  0  0  0  0
133134  2  0  0  0  0
134135  1  0  0  0  0
134136  1  0  0  0  0
136137  2  0  0  0  0
122138  1  0  0  0  0
138139  1  0  0  0  0
121140  1  0  0  0  0
140141  2  0  0  0  0
141142  1  0  0  0  0
142143  2  0  0  0  0
142144  1  0  0  0  0
144145  2  0  0  0  0
145146  1  0  0  0  0
146147  2  0  0  0  0
147148  1  0  0  0  0
148149  2  0  0  0  0
149150  1  0  0  0  0
149151  1  0  0  0  0
151152  2  0  0  0  0
152153  1  0  0  0  0
153154  2  0  0  0  0
154155  1  0  0  0  0
155156  2  0  0  0  0
156157  1  0  0  0  0
157158  3  0  0  0  0
156159  1  0  0  0  0
159160  3  0  0  0  0
 11  2  1  0  0  0  0
 54 17  1  0  0  0  0
 97 55  1  0  0  0  0
139102  1  0  0  0  0
155141  1  0  0  0  0
  9  5  2  0  0  0  0
 26 20  1  0  0  0  0
 33 27  1  0  0  0  0
 53 34  2  0  0  0  0
 64 57  1  0  0  0  0
 96 65  2  0  0  0  0
111105  1  0  0  0  0
118112  1  0  0  0  0
138119  2  0  0  0  0
154144  1  0  0  0  0
 45 39  1  0  0  0  0
 52 46  1  0  0  0  0
 95 67  2  0  0  0  0
130124  1  0  0  0  0
137131  1  0  0  0  0
152146  1  0  0  0  0
 93 68  2  0  0  0  0
 73 69  2  0  0  0  0
 92 74  2  0  0  0  0
 90 75  2  0  0  0  0
 89 77  2  0  0  0  0
 86 79  1  0  0  0  0
  1161  1  0  0  0  0
  7162  1  0  0  0  0
 21163  1  0  0  0  0
 22164  1  0  0  0  0
 24165  1  0  0  0  0
 24166  1  0  0  0  0
 24167  1  0  0  0  0
 25168  1  0  0  0  0
 26169  1  0  0  0  0
 28170  1  0  0  0  0
 29171  1  0  0  0  0
 31172  1  0  0  0  0
 31173  1  0  0  0  0
 31174  1  0  0  0  0
 32175  1  0  0  0  0
 33176  1  0  0  0  0
 40177  1  0  0  0  0
 41178  1  0  0  0  0
 43179  1  0  0  0  0
 43180  1  0  0  0  0
 43181  1  0  0  0  0
 44182  1  0  0  0  0
 45183  1  0  0  0  0
 47184  1  0  0  0  0
 48185  1  0  0  0  0
 50186  1  0  0  0  0
 50187  1  0  0  0  0
 50188  1  0  0  0  0
 51189  1  0  0  0  0
 52190  1  0  0  0  0
 58191  1  0  0  0  0
 59192  1  0  0  0  0
 60193  1  0  0  0  0
 62194  1  0  0  0  0
 62195  1  0  0  0  0
 63196  1  0  0  0  0
 63197  1  0  0  0  0
 63198  1  0  0  0  0
 64199  1  0  0  0  0
 80200  1  0  0  0  0
 81201  1  0  0  0  0
 82202  1  0  0  0  0
 84203  1  0  0  0  0
 84204  1  0  0  0  0
 85205  1  0  0  0  0
 85206  1  0  0  0  0
 85207  1  0  0  0  0
 86208  1  0  0  0  0
 98209  1  0  0  0  0
 98210  1  0  0  0  0
 99211  1  0  0  0  0
 99212  1  0  0  0  0
 99213  1  0  0  0  0
100214  1  0  0  0  0
100215  1  0  0  0  0
101216  1  0  0  0  0
101217  1  0  0  0  0
101218  1  0  0  0  0
106219  1  0  0  0  0
107220  1  0  0  0  0
109221  1  0  0  0  0
109222  1  0  0  0  0
109223  1  0  0  0  0
110224  1  0  0  0  0
111225  1  0  0  0  0
113226  1  0  0  0  0
114227  1  0  0  0  0
116228  1  0  0  0  0
116229  1  0  0  0  0
116230  1  0  0  0  0
117231  1  0  0  0  0
118232  1  0  0  0  0
125233  1  0  0  0  0
126234  1  0  0  0  0
128235  1  0  0  0  0
128236  1  0  0  0  0
128237  1  0  0  0  0
129238  1  0  0  0  0
130239  1  0  0  0  0
132240  1  0  0  0  0
133241  1  0  0  0  0
135242  1  0  0  0  0
135243  1  0  0  0  0
135244  1  0  0  0  0
136245  1  0  0  0  0
137246  1  0  0  0  0
140247  1  0  0  0  0
145248  1  0  0  0  0
147249  1  0  0  0  0
148250  1  0  0  0  0
151251  1  0  0  0  0
153252  1  0  0  0  0
M  END
