
  xtb     02032222213D
 energy: -275.576037466221 gnorm: 0.000517340307 xtb: 6.4.1 (unknown)
149162  0     0  0            999 V2000
   -8.3019    0.2216   -6.8548 C   0  0  0  0  0  0  0  0  0  0  0  0
   -9.4981    0.8175   -6.6065 C   0  0  0  0  0  0  0  0  0  0  0  0
   -9.9786    1.2766   -5.2761 C   0  0  0  0  0  0  0  0  0  0  0  0
   -9.5064    1.0307   -4.1918 O   0  0  0  0  0  0  0  0  0  0  0  0
  -11.2491    1.9895   -5.5482 C   0  0  0  0  0  0  0  0  0  0  0  0
  -12.0409    2.6944   -4.6646 C   0  0  0  0  0  0  0  0  0  0  0  0
  -13.1856    3.2992   -5.1703 C   0  0  0  0  0  0  0  0  0  0  0  0
  -14.0996    4.0858   -4.2709 C   0  0  0  0  0  0  0  0  0  0  0  0
  -14.3939    5.2944   -4.7807 F   0  0  0  0  0  0  0  0  0  0  0  0
  -13.5899    4.2980   -3.0528 F   0  0  0  0  0  0  0  0  0  0  0  0
  -15.2795    3.4628   -4.0884 F   0  0  0  0  0  0  0  0  0  0  0  0
  -13.5272    3.1845   -6.5151 C   0  0  0  0  0  0  0  0  0  0  0  0
  -12.7333    2.4635   -7.3937 C   0  0  0  0  0  0  0  0  0  0  0  0
  -11.5824    1.8599   -6.9066 C   0  0  0  0  0  0  0  0  0  0  0  0
  -10.5576    1.0527   -7.5714 C   0  0  0  0  0  0  0  0  0  0  0  0
  -10.6231    0.5930   -8.8593 C   0  0  0  0  0  0  0  0  0  0  0  0
   -9.6806   -0.2572   -9.4771 C   0  0  0  0  0  0  0  0  0  0  0  0
   -8.9816   -0.9639  -10.0523 N   0  0  0  0  0  0  0  0  0  0  0  0
  -11.6892    0.8656   -9.7441 C   0  0  0  0  0  0  0  0  0  0  0  0
  -12.5225    1.0483  -10.5116 N   0  0  0  0  0  0  0  0  0  0  0  0
   -7.1845    0.1306   -5.9675 C   0  0  0  0  0  0  0  0  0  0  0  0
   -6.7901    1.1052   -5.0547 C   0  0  0  0  0  0  0  0  0  0  0  0
   -7.4160    2.2919   -5.0382 F   0  0  0  0  0  0  0  0  0  0  0  0
   -5.6945    0.9609   -4.2253 C   0  0  0  0  0  0  0  0  0  0  0  0
   -4.8928   -0.1777   -4.2537 C   0  0  0  0  0  0  0  0  0  0  0  0
   -5.2155   -1.1828   -5.2186 C   0  0  0  0  0  0  0  0  0  0  0  0
   -4.4723   -2.3068   -5.3225 N   0  0  0  0  0  0  0  0  0  0  0  0
   -4.7753   -3.1846   -6.2286 C   0  0  0  0  0  0  0  0  0  0  0  0
   -5.8695   -2.9863   -7.1195 C   0  0  0  0  0  0  0  0  0  0  0  0
   -6.1004   -3.8914   -8.0547 O   0  0  0  0  0  0  0  0  0  0  0  0
   -7.2022   -3.6402   -8.9329 C   0  0  0  0  0  0  0  0  0  0  0  0
   -7.2391   -4.7402   -9.9759 C   0  0  0  0  0  0  0  0  0  0  0  0
   -6.6352   -1.9257   -7.0123 N   0  0  0  0  0  0  0  0  0  0  0  0
   -6.3327   -1.0081   -6.0739 C   0  0  0  0  0  0  0  0  0  0  0  0
   -3.7761   -0.2886   -3.3684 C   0  0  0  0  0  0  0  0  0  0  0  0
   -2.7503   -1.2200   -3.3635 C   0  0  0  0  0  0  0  0  0  0  0  0
   -1.8241   -0.9847   -2.3561 C   0  0  0  0  0  0  0  0  0  0  0  0
   -0.5174   -1.5883   -1.9106 C   0  0  0  0  0  0  0  0  0  0  0  0
    0.4848   -1.4003   -3.0744 C   0  0  0  0  0  0  0  0  0  0  0  0
    1.9261   -1.7995   -2.7877 C   0  0  0  0  0  0  0  0  0  0  0  0
   -0.6631   -3.0660   -1.5184 C   0  0  0  0  0  0  0  0  0  0  0  0
   -1.7598   -3.2878   -0.4830 C   0  0  0  0  0  0  0  0  0  0  0  0
   -0.1855   -0.7096   -0.7182 C   0  0  0  0  0  0  0  0  0  0  0  0
   -1.1528    0.3124   -0.5572 C   0  0  0  0  0  0  0  0  0  0  0  0
   -2.1311    0.1233   -1.5799 C   0  0  0  0  0  0  0  0  0  0  0  0
   -3.5697    0.8985   -2.0841 S   0  0  0  0  0  0  0  0  0  0  0  0
   -1.0799    1.2589    0.4627 C   0  0  0  0  0  0  0  0  0  0  0  0
   -0.0219    1.1709    1.3372 C   0  0  0  0  0  0  0  0  0  0  0  0
    0.3164    2.0534    2.5253 C   0  0  0  0  0  0  0  0  0  0  0  0
    0.3956    3.5388    2.1449 C   0  0  0  0  0  0  0  0  0  0  0  0
    1.4435    3.8105    1.0716 C   0  0  0  0  0  0  0  0  0  0  0  0
   -0.6448    1.8151    3.7141 C   0  0  0  0  0  0  0  0  0  0  0  0
   -2.1052    2.1676    3.4672 C   0  0  0  0  0  0  0  0  0  0  0  0
    1.6583    1.4958    2.9235 C   0  0  0  0  0  0  0  0  0  0  0  0
    1.9664    0.3902    2.1450 C   0  0  0  0  0  0  0  0  0  0  0  0
    0.9558    0.1610    1.1638 C   0  0  0  0  0  0  0  0  0  0  0  0
    0.8725   -0.7974    0.1562 C   0  0  0  0  0  0  0  0  0  0  0  0
    3.4845   -0.2887    2.5477 S   0  0  0  0  0  0  0  0  0  0  0  0
    3.7206    0.9229    3.7978 C   0  0  0  0  0  0  0  0  0  0  0  0
    2.6327    1.7844    3.8674 C   0  0  0  0  0  0  0  0  0  0  0  0
    4.8745    0.9854    4.6346 C   0  0  0  0  0  0  0  0  0  0  0  0
    6.1275    0.3925    4.3701 C   0  0  0  0  0  0  0  0  0  0  0  0
    6.4925   -0.3905    3.2421 C   0  0  0  0  0  0  0  0  0  0  0  0
    7.7744   -0.8367    3.2762 C   0  0  0  0  0  0  0  0  0  0  0  0
    8.4963   -1.6493    2.2945 C   0  0  0  0  0  0  0  0  0  0  0  0
    9.6481   -1.9890    2.4162 O   0  0  0  0  0  0  0  0  0  0  0  0
    7.7218   -1.9650    1.2519 O   0  0  0  0  0  0  0  0  0  0  0  0
    8.3385   -2.7492    0.2279 C   0  0  0  0  0  0  0  0  0  0  0  0
    7.3113   -3.0002   -0.8591 C   0  0  0  0  0  0  0  0  0  0  0  0
    8.6379   -0.3045    4.6854 S   0  0  0  0  0  0  0  0  0  0  0  0
    7.2406    0.5578    5.2505 C   0  0  0  0  0  0  0  0  0  0  0  0
    7.1950    1.2741    6.4509 C   0  0  0  0  0  0  0  0  0  0  0  0
    5.9146    1.7959    6.7493 C   0  0  0  0  0  0  0  0  0  0  0  0
    4.8063    1.6958    5.8574 C   0  0  0  0  0  0  0  0  0  0  0  0
    3.7816    2.3430    6.4399 N   0  0  0  0  0  0  0  0  0  0  0  0
    4.2663    2.7785    7.5654 N   0  0  0  0  0  0  0  0  0  0  0  0
    3.4571    3.4938    8.5099 C   0  0  0  0  0  0  0  0  0  0  0  0
    2.9607    2.5515    9.6022 C   0  0  0  0  0  0  0  0  0  0  0  0
    5.5140    2.4983    7.8153 N   0  0  0  0  0  0  0  0  0  0  0  0
    8.2417    1.4795    7.3890 C   0  0  0  0  0  0  0  0  0  0  0  0
    9.5959    1.5393    7.2353 C   0  0  0  0  0  0  0  0  0  0  0  0
   10.4606    1.3777    8.4366 C   0  0  0  0  0  0  0  0  0  0  0  0
   10.1080    1.3622    9.5918 O   0  0  0  0  0  0  0  0  0  0  0  0
   11.8322    1.1965    7.9045 C   0  0  0  0  0  0  0  0  0  0  0  0
   12.9932    0.8961    8.5859 C   0  0  0  0  0  0  0  0  0  0  0  0
   14.1578    0.7444    7.8387 C   0  0  0  0  0  0  0  0  0  0  0  0
   15.4580    0.4531    8.5362 C   0  0  0  0  0  0  0  0  0  0  0  0
   15.2925   -0.1621    9.7145 F   0  0  0  0  0  0  0  0  0  0  0  0
   16.2737   -0.3250    7.8083 F   0  0  0  0  0  0  0  0  0  0  0  0
   16.1500    1.5811    8.7936 F   0  0  0  0  0  0  0  0  0  0  0  0
   14.1512    0.8900    6.4552 C   0  0  0  0  0  0  0  0  0  0  0  0
   12.9812    1.2005    5.7772 C   0  0  0  0  0  0  0  0  0  0  0  0
   11.8155    1.3617    6.5086 C   0  0  0  0  0  0  0  0  0  0  0  0
   10.4564    1.7098    6.0923 C   0  0  0  0  0  0  0  0  0  0  0  0
   10.1239    2.2909    4.8947 C   0  0  0  0  0  0  0  0  0  0  0  0
   11.0298    2.4948    3.8333 C   0  0  0  0  0  0  0  0  0  0  0  0
   11.7149    2.6823    2.9319 N   0  0  0  0  0  0  0  0  0  0  0  0
    8.8632    2.8560    4.6180 C   0  0  0  0  0  0  0  0  0  0  0  0
    7.8669    3.3632    4.3566 N   0  0  0  0  0  0  0  0  0  0  0  0
   -8.1451   -0.2779   -7.8017 H   0  0  0  0  0  0  0  0  0  0  0  0
  -11.7654    2.7764   -3.6246 H   0  0  0  0  0  0  0  0  0  0  0  0
  -14.4224    3.6682   -6.8756 H   0  0  0  0  0  0  0  0  0  0  0  0
  -13.0177    2.3902   -8.4302 H   0  0  0  0  0  0  0  0  0  0  0  0
   -5.4607    1.7729   -3.5537 H   0  0  0  0  0  0  0  0  0  0  0  0
   -4.1702   -4.0775   -6.2903 H   0  0  0  0  0  0  0  0  0  0  0  0
   -8.1252   -3.6175   -8.3433 H   0  0  0  0  0  0  0  0  0  0  0  0
   -7.0763   -2.6570   -9.3970 H   0  0  0  0  0  0  0  0  0  0  0  0
   -8.0617   -4.5562  -10.6600 H   0  0  0  0  0  0  0  0  0  0  0  0
   -6.3083   -4.7565  -10.5363 H   0  0  0  0  0  0  0  0  0  0  0  0
   -7.3770   -5.7083   -9.5018 H   0  0  0  0  0  0  0  0  0  0  0  0
   -2.7150   -2.0210   -4.0770 H   0  0  0  0  0  0  0  0  0  0  0  0
    0.4655   -0.3471   -3.3668 H   0  0  0  0  0  0  0  0  0  0  0  0
    0.1130   -1.9838   -3.9195 H   0  0  0  0  0  0  0  0  0  0  0  0
    1.9962   -2.8358   -2.4686 H   0  0  0  0  0  0  0  0  0  0  0  0
    2.5144   -1.6872   -3.6958 H   0  0  0  0  0  0  0  0  0  0  0  0
    2.3630   -1.1618   -2.0246 H   0  0  0  0  0  0  0  0  0  0  0  0
    0.2849   -3.4220   -1.1139 H   0  0  0  0  0  0  0  0  0  0  0  0
   -0.8892   -3.6438   -2.4167 H   0  0  0  0  0  0  0  0  0  0  0  0
   -1.5585   -2.7128    0.4185 H   0  0  0  0  0  0  0  0  0  0  0  0
   -2.7279   -2.9851   -0.8750 H   0  0  0  0  0  0  0  0  0  0  0  0
   -1.8131   -4.3402   -0.2149 H   0  0  0  0  0  0  0  0  0  0  0  0
   -1.8300    2.0308    0.5353 H   0  0  0  0  0  0  0  0  0  0  0  0
   -0.5789    3.8650    1.7804 H   0  0  0  0  0  0  0  0  0  0  0  0
    0.6342    4.1156    3.0408 H   0  0  0  0  0  0  0  0  0  0  0  0
    1.2290    3.2369    0.1722 H   0  0  0  0  0  0  0  0  0  0  0  0
    1.4479    4.8665    0.8130 H   0  0  0  0  0  0  0  0  0  0  0  0
    2.4368    3.5407    1.4227 H   0  0  0  0  0  0  0  0  0  0  0  0
   -0.2707    2.3994    4.5577 H   0  0  0  0  0  0  0  0  0  0  0  0
   -0.5809    0.7591    3.9900 H   0  0  0  0  0  0  0  0  0  0  0  0
   -2.5305    1.5412    2.6881 H   0  0  0  0  0  0  0  0  0  0  0  0
   -2.2207    3.2108    3.1863 H   0  0  0  0  0  0  0  0  0  0  0  0
   -2.6727    2.0007    4.3801 H   0  0  0  0  0  0  0  0  0  0  0  0
    1.6213   -1.5707    0.0858 H   0  0  0  0  0  0  0  0  0  0  0  0
    2.5971    2.5918    4.5735 H   0  0  0  0  0  0  0  0  0  0  0  0
    5.8493   -0.6218    2.4156 H   0  0  0  0  0  0  0  0  0  0  0  0
    9.2071   -2.2044   -0.1584 H   0  0  0  0  0  0  0  0  0  0  0  0
    8.6952   -3.6871    0.6685 H   0  0  0  0  0  0  0  0  0  0  0  0
    6.4573   -3.5341   -0.4510 H   0  0  0  0  0  0  0  0  0  0  0  0
    6.9664   -2.0564   -1.2726 H   0  0  0  0  0  0  0  0  0  0  0  0
    7.7575   -3.5941   -1.6512 H   0  0  0  0  0  0  0  0  0  0  0  0
    2.6198    3.9259    7.9596 H   0  0  0  0  0  0  0  0  0  0  0  0
    4.0720    4.2847    8.9440 H   0  0  0  0  0  0  0  0  0  0  0  0
    2.3599    3.1031   10.3193 H   0  0  0  0  0  0  0  0  0  0  0  0
    2.3531    1.7590    9.1715 H   0  0  0  0  0  0  0  0  0  0  0  0
    3.8056    2.1060   10.1211 H   0  0  0  0  0  0  0  0  0  0  0  0
    7.8999    1.5884    8.4147 H   0  0  0  0  0  0  0  0  0  0  0  0
   12.9897    0.7782    9.6585 H   0  0  0  0  0  0  0  0  0  0  0  0
   15.0690    0.7543    5.9037 H   0  0  0  0  0  0  0  0  0  0  0  0
   12.9932    1.2982    4.7042 H   0  0  0  0  0  0  0  0  0  0  0  0
  1  2  2  0  0  0  0
  2  3  1  0  0  0  0
  3  4  2  0  0  0  0
  3  5  1  0  0  0  0
  5  6  2  0  0  0  0
  6  7  1  0  0  0  0
  7  8  1  0  0  0  0
  8  9  1  0  0  0  0
  8 10  1  0  0  0  0
  8 11  1  0  0  0  0
  7 12  2  0  0  0  0
 12 13  1  0  0  0  0
 13 14  2  0  0  0  0
 14 15  1  0  0  0  0
 15 16  2  0  0  0  0
 16 17  1  0  0  0  0
 17 18  3  0  0  0  0
 16 19  1  0  0  0  0
 19 20  3  0  0  0  0
  1 21  1  0  0  0  0
 21 22  2  0  0  0  0
 22 23  1  0  0  0  0
 22 24  1  0  0  0  0
 24 25  2  0  0  0  0
 25 26  1  0  0  0  0
 26 27  2  0  0  0  0
 27 28  1  0  0  0  0
 28 29  2  0  0  0  0
 29 30  1  0  0  0  0
 30 31  1  0  0  0  0
 31 32  1  0  0  0  0
 29 33  1  0  0  0  0
 33 34  2  0  0  0  0
 25 35  1  0  0  0  0
 35 36  2  0  0  0  0
 36 37  1  0  0  0  0
 37 38  1  0  0  0  0
 38 39  1  0  0  0  0
 39 40  1  0  0  0  0
 38 41  1  0  0  0  0
 41 42  1  0  0  0  0
 38 43  1  0  0  0  0
 43 44  2  0  0  0  0
 44 45  1  0  0  0  0
 45 46  1  0  0  0  0
 44 47  1  0  0  0  0
 47 48  2  0  0  0  0
 48 49  1  0  0  0  0
 49 50  1  0  0  0  0
 50 51  1  0  0  0  0
 49 52  1  0  0  0  0
 52 53  1  0  0  0  0
 49 54  1  0  0  0  0
 54 55  2  0  0  0  0
 55 56  1  0  0  0  0
 56 57  2  0  0  0  0
 55 58  1  0  0  0  0
 58 59  1  0  0  0  0
 59 60  2  0  0  0  0
 59 61  1  0  0  0  0
 61 62  2  0  0  0  0
 62 63  1  0  0  0  0
 63 64  2  0  0  0  0
 64 65  1  0  0  0  0
 65 66  2  0  0  0  0
 65 67  1  0  0  0  0
 67 68  1  0  0  0  0
 68 69  1  0  0  0  0
 64 70  1  0  0  0  0
 70 71  1  0  0  0  0
 71 72  2  0  0  0  0
 72 73  1  0  0  0  0
 73 74  1  0  0  0  0
 74 75  2  0  0  0  0
 75 76  1  0  0  0  0
 76 77  1  0  0  0  0
 77 78  1  0  0  0  0
 76 79  1  0  0  0  0
 72 80  1  0  0  0  0
 80 81  2  0  0  0  0
 81 82  1  0  0  0  0
 82 83  2  0  0  0  0
 82 84  1  0  0  0  0
 84 85  2  0  0  0  0
 85 86  1  0  0  0  0
 86 87  1  0  0  0  0
 87 88  1  0  0  0  0
 87 89  1  0  0  0  0
 87 90  1  0  0  0  0
 86 91  2  0  0  0  0
 91 92  1  0  0  0  0
 92 93  2  0  0  0  0
 93 94  1  0  0  0  0
 94 95  2  0  0  0  0
 95 96  1  0  0  0  0
 96 97  3  0  0  0  0
 95 98  1  0  0  0  0
 98 99  3  0  0  0  0
 15  2  1  0  0  0  0
 34 21  1  0  0  0  0
 46 35  1  0  0  0  0
 56 48  1  0  0  0  0
 74 61  1  0  0  0  0
 94 81  1  0  0  0  0
 14  5  1  0  0  0  0
 34 26  1  0  0  0  0
 45 37  2  0  0  0  0
 60 54  1  0  0  0  0
 71 62  1  0  0  0  0
 79 73  2  0  0  0  0
 93 84  1  0  0  0  0
 57 43  1  0  0  0  0
  1100  1  0  0  0  0
  6101  1  0  0  0  0
 12102  1  0  0  0  0
 13103  1  0  0  0  0
 24104  1  0  0  0  0
 28105  1  0  0  0  0
 31106  1  0  0  0  0
 31107  1  0  0  0  0
 32108  1  0  0  0  0
 32109  1  0  0  0  0
 32110  1  0  0  0  0
 36111  1  0  0  0  0
 39112  1  0  0  0  0
 39113  1  0  0  0  0
 40114  1  0  0  0  0
 40115  1  0  0  0  0
 40116  1  0  0  0  0
 41117  1  0  0  0  0
 41118  1  0  0  0  0
 42119  1  0  0  0  0
 42120  1  0  0  0  0
 42121  1  0  0  0  0
 47122  1  0  0  0  0
 50123  1  0  0  0  0
 50124  1  0  0  0  0
 51125  1  0  0  0  0
 51126  1  0  0  0  0
 51127  1  0  0  0  0
 52128  1  0  0  0  0
 52129  1  0  0  0  0
 53130  1  0  0  0  0
 53131  1  0  0  0  0
 53132  1  0  0  0  0
 57133  1  0  0  0  0
 60134  1  0  0  0  0
 63135  1  0  0  0  0
 68136  1  0  0  0  0
 68137  1  0  0  0  0
 69138  1  0  0  0  0
 69139  1  0  0  0  0
 69140  1  0  0  0  0
 77141  1  0  0  0  0
 77142  1  0  0  0  0
 78143  1  0  0  0  0
 78144  1  0  0  0  0
 78145  1  0  0  0  0
 80146  1  0  0  0  0
 85147  1  0  0  0  0
 91148  1  0  0  0  0
 92149  1  0  0  0  0
M  END
