149

C         -8.30190        0.22160       -6.85480
C         -9.49810        0.81750       -6.60650
C         -9.97860        1.27660       -5.27610
O         -9.50640        1.03070       -4.19180
C        -11.24910        1.98950       -5.54820
C        -12.04090        2.69440       -4.66460
C        -13.18560        3.29920       -5.17030
C        -14.09960        4.08580       -4.27090
F        -14.39390        5.29440       -4.78070
F        -13.58990        4.29800       -3.05280
F        -15.27950        3.46280       -4.08840
C        -13.52720        3.18450       -6.51510
C        -12.73330        2.46350       -7.39370
C        -11.58240        1.85990       -6.90660
C        -10.55760        1.05270       -7.57140
C        -10.62310        0.59300       -8.85930
C         -9.68060       -0.25720       -9.47710
N         -8.98160       -0.96390      -10.05230
C        -11.68920        0.86560       -9.74410
N        -12.52250        1.04830      -10.51160
C         -7.18450        0.13060       -5.96750
C         -6.79010        1.10520       -5.05470
F         -7.41600        2.29190       -5.03820
C         -5.69450        0.96090       -4.22530
C         -4.89280       -0.17770       -4.25370
C         -5.21550       -1.18280       -5.21860
N         -4.47230       -2.30680       -5.32250
C         -4.77530       -3.18460       -6.22860
C         -5.86950       -2.98630       -7.11950
O         -6.10040       -3.89140       -8.05470
C         -7.20220       -3.64020       -8.93290
C         -7.23910       -4.74020       -9.97590
N         -6.63520       -1.92570       -7.01230
C         -6.33270       -1.00810       -6.07390
C         -3.77610       -0.28860       -3.36840
C         -2.75030       -1.22000       -3.36350
C         -1.82410       -0.98470       -2.35610
C         -0.51740       -1.58830       -1.91060
C          0.48480       -1.40030       -3.07440
C          1.92610       -1.79950       -2.78770
C         -0.66310       -3.06600       -1.51840
C         -1.75980       -3.28780       -0.48300
C         -0.18550       -0.70960       -0.71820
C         -1.15280        0.31240       -0.55720
C         -2.13110        0.12330       -1.57990
S         -3.56970        0.89850       -2.08410
C         -1.07990        1.25890        0.46270
C         -0.02190        1.17090        1.33720
C          0.31640        2.05340        2.52530
C          0.39560        3.53880        2.14490
C          1.44350        3.81050        1.07160
C         -0.64480        1.81510        3.71410
C         -2.10520        2.16760        3.46720
C          1.65830        1.49580        2.92350
C          1.96640        0.39020        2.14500
C          0.95580        0.16100        1.16380
C          0.87250       -0.79740        0.15620
S          3.48450       -0.28870        2.54770
C          3.72060        0.92290        3.79780
C          2.63270        1.78440        3.86740
C          4.87450        0.98540        4.63460
C          6.12750        0.39250        4.37010
C          6.49250       -0.39050        3.24210
C          7.77440       -0.83670        3.27620
C          8.49630       -1.64930        2.29450
O          9.64810       -1.98900        2.41620
O          7.72180       -1.96500        1.25190
C          8.33850       -2.74920        0.22790
C          7.31130       -3.00020       -0.85910
S          8.63790       -0.30450        4.68540
C          7.24060        0.55780        5.25050
C          7.19500        1.27410        6.45090
C          5.91460        1.79590        6.74930
C          4.80630        1.69580        5.85740
N          3.78160        2.34300        6.43990
N          4.26630        2.77850        7.56540
C          3.45710        3.49380        8.50990
C          2.96070        2.55150        9.60220
N          5.51400        2.49830        7.81530
C          8.24170        1.47950        7.38900
C          9.59590        1.53930        7.23530
C         10.46060        1.37770        8.43660
O         10.10800        1.36220        9.59180
C         11.83220        1.19650        7.90450
C         12.99320        0.89610        8.58590
C         14.15780        0.74440        7.83870
C         15.45800        0.45310        8.53620
F         15.29250       -0.16210        9.71450
F         16.27370       -0.32500        7.80830
F         16.15000        1.58110        8.79360
C         14.15120        0.89000        6.45520
C         12.98120        1.20050        5.77720
C         11.81550        1.36170        6.50860
C         10.45640        1.70980        6.09230
C         10.12390        2.29090        4.89470
C         11.02980        2.49480        3.83330
N         11.71490        2.68230        2.93190
C          8.86320        2.85600        4.61800
N          7.86690        3.36320        4.35660
H         -8.14510       -0.27790       -7.80170
H        -11.76540        2.77640       -3.62460
H        -14.42240        3.66820       -6.87560
H        -13.01770        2.39020       -8.43020
H         -5.46070        1.77290       -3.55370
H         -4.17020       -4.07750       -6.29030
H         -8.12520       -3.61750       -8.34330
H         -7.07630       -2.65700       -9.39700
H         -8.06170       -4.55620      -10.66000
H         -6.30830       -4.75650      -10.53630
H         -7.37700       -5.70830       -9.50180
H         -2.71500       -2.02100       -4.07700
H          0.46550       -0.34710       -3.36680
H          0.11300       -1.98380       -3.91950
H          1.99620       -2.83580       -2.46860
H          2.51440       -1.68720       -3.69580
H          2.36300       -1.16180       -2.02460
H          0.28490       -3.42200       -1.11390
H         -0.88920       -3.64380       -2.41670
H         -1.55850       -2.71280        0.41850
H         -2.72790       -2.98510       -0.87500
H         -1.81310       -4.34020       -0.21490
H         -1.83000        2.03080        0.53530
H         -0.57890        3.86500        1.78040
H          0.63420        4.11560        3.04080
H          1.22900        3.23690        0.17220
H          1.44790        4.86650        0.81300
H          2.43680        3.54070        1.42270
H         -0.27070        2.39940        4.55770
H         -0.58090        0.75910        3.99000
H         -2.53050        1.54120        2.68810
H         -2.22070        3.21080        3.18630
H         -2.67270        2.00070        4.38010
H          1.62130       -1.57070        0.08580
H          2.59710        2.59180        4.57350
H          5.84930       -0.62180        2.41560
H          9.20710       -2.20440       -0.15840
H          8.69520       -3.68710        0.66850
H          6.45730       -3.53410       -0.45100
H          6.96640       -2.05640       -1.27260
H          7.75750       -3.59410       -1.65120
H          2.61980        3.92590        7.95960
H          4.07200        4.28470        8.94400
H          2.35990        3.10310       10.31930
H          2.35310        1.75900        9.17150
H          3.80560        2.10600       10.12110
H          7.89990        1.58840        8.41470
H         12.98970        0.77820        9.65850
H         15.06900        0.75430        5.90370
H         12.99320        1.29820        4.70420
