233

C         14.11020        2.26000       -4.69120
C         15.02900        3.25300       -4.92870
C         15.03830        4.62630       -4.38660
O         14.37180        5.10710       -3.49320
C         16.03170        5.36550       -5.20080
C         16.36720        6.70140       -5.12910
C         17.33250        7.17170       -6.01380
C         17.70700        8.62780       -5.99500
F         18.97930        8.84300       -6.35960
F         16.94670        9.35090       -6.84100
F         17.55520        9.18660       -4.78550
C         17.92740        6.32590       -6.94380
C         17.58540        4.98260       -7.00730
C         16.63100        4.49700       -6.12640
C         16.06670        3.16020       -5.93790
C         16.51730        2.02300       -6.55630
C         16.06710        0.71100       -6.29220
N         15.78210       -0.38900       -6.12750
C         17.54550        2.00440       -7.52220
N         18.37210        1.92100       -8.31430
C         13.08570        2.17930       -3.73250
C         12.85200        2.89170       -2.57580
C         11.69110        2.50570       -1.89020
C         11.17050        3.04690       -0.68490
C         11.77940        4.16540       -0.00970
C         12.42110        5.24360       -0.56240
C         12.93860        6.19050        0.34020
C         12.74130        5.89210        1.65890
S         13.19070        6.78620        3.09000
C         14.45480        7.95090        2.46630
C         15.73630        7.24720        2.06640
Se        11.79150        4.29330        1.88360
C         10.02340        2.43200       -0.19640
C          9.37920        1.33320       -0.81460
C          9.90780        0.78240       -2.00440
C          9.31130       -0.37940       -2.62930
C          8.81600       -1.48590       -1.99640
C          8.24960       -2.47750       -2.82330
C          8.27130       -2.18460       -4.15590
S          7.66280       -3.11940       -5.50000
C          7.47680       -4.78350       -4.74830
C          7.23950       -5.80130       -5.84650
Se         9.08950       -0.53170       -4.50410
C         11.03500        1.41020       -2.51960
S         11.86730        0.92370       -3.96370
C          8.20300        0.96320       -0.12580
C          7.95120        1.71680        0.99000
S          9.16540        2.95420        1.22580
C          6.82400        1.61730        1.85100
C          6.53440        2.32010        3.00770
C          7.43580        3.28030        3.65680
C          7.02900        4.59900        3.82510
C          7.89640        5.51850        4.38510
C          9.16520        5.13240        4.77810
C          9.57690        3.81180        4.64400
C         10.93850        3.38560        5.11160
C         10.91210        3.01170        6.59370
C          8.69700        2.89000        4.09640
C          5.24190        2.02310        3.47720
S          4.31550        2.60260        4.84110
C          2.99230        1.60410        4.33740
C          1.67120        1.30610        4.71860
C          0.89690        1.67400        5.84140
C         -0.43800        1.15490        5.97000
N         -1.02240        1.54000        7.09320
S          0.00990        2.47660        7.91620
N          1.24490        2.42950        6.87090
C         -0.98870        0.40610        4.90550
C         -2.30420       -0.00630        4.63430
S         -3.86800        0.03670        5.37690
C         -4.55410       -0.60870        3.90660
C         -5.88530       -0.86700        3.52110
C         -7.01870       -0.51970        4.38230
C         -7.07980       -0.99730        5.68640
C         -8.09370       -0.57280        6.52330
C         -9.02450        0.34920        6.08000
C         -8.97040        0.84380        4.78360
C         -9.93130        1.90460        4.33200
C         -9.40350        3.29170        4.70430
C         -7.96960        0.39130        3.93790
C         -5.94520       -1.34200        2.22590
S         -4.35800       -1.43540        1.46810
C         -3.60570       -0.85290        2.91070
C         -2.31310       -0.51570        3.33170
N         -1.05040       -0.46900        2.80220
C         -0.21720        0.08510        3.75570
C          1.15970        0.41520        3.73690
N          2.16250        0.12180        2.82750
C          3.26320        0.85830        3.18660
C          4.55300        1.08950        2.69940
S          5.50590        0.55550        1.36230
C          2.34400       -1.10170        2.07650
C          3.26600       -2.07300        2.81390
C         -0.85020       -0.61730        1.37770
C         -0.92720       -2.07760        0.93270
C         -7.05470       -1.81050        1.46190
C         -8.22220       -2.42620        1.87530
N         -8.54990       -2.75140        3.20570
C         -8.09680       -4.04480        3.59030
C         -8.99400       -5.10240        3.71730
C         -8.54300       -6.35780        4.06890
C         -7.19030       -6.59960        4.28720
C         -6.72080       -7.96780        4.67670
C         -6.30180       -5.54460        4.13830
C         -6.74420       -4.27970        3.79330
C         -9.73730       -2.25370        3.74700
C        -10.52210       -1.32370        3.07040
C        -11.67160       -0.82040        3.64880
C        -12.06510       -1.20230        4.92150
C        -13.31490       -0.66330        5.54950
C        -11.25950       -2.10410        5.60770
C        -10.11620       -2.62170        5.03840
C         -9.01910       -2.79190        0.76800
S        -10.50680       -3.64700        0.62310
C        -10.45580       -3.48220       -1.14190
C         -9.24820       -2.88210       -1.58050
N         -8.79200       -2.80500       -2.86020
C         -7.82140       -1.82940       -3.18750
C         -6.67790       -2.19900       -3.88520
C         -5.72910       -1.24600       -4.20360
C         -5.89970        0.08340       -3.83880
C         -4.87730        1.12110       -4.18470
C         -7.05720        0.44200       -3.15490
C         -8.01310       -0.49840       -2.82980
C         -9.21140       -3.66710       -3.88350
C         -9.41480       -3.16460       -5.16700
C         -9.87290       -3.99290       -6.17490
C        -10.13240       -5.33560       -5.93670
C        -10.67350       -6.22770       -7.00850
C         -9.87450       -5.84100       -4.66350
C         -9.42120       -5.02560       -3.64860
C         -8.48210       -2.46410       -0.47080
S         -6.93950       -1.69830       -0.28620
C        -11.55810       -3.95180       -1.84530
C        -11.93390       -3.56190       -3.12130
C        -11.62360       -2.24770       -3.69030
O        -10.99140       -1.34210       -3.17870
C        -12.35470       -2.19560       -4.98120
C        -12.39520       -1.17970       -5.90970
C        -13.14930       -1.38870       -7.06270
C        -13.16630       -0.32650       -8.12510
F        -14.26550       -0.36400       -8.89130
F        -13.09180        0.91430       -7.62180
F        -12.11870       -0.44980       -8.96800
C        -13.84270       -2.57520       -7.26370
C        -13.80370       -3.59060       -6.31660
C        -13.04950       -3.40120       -5.17200
C        -12.77980       -4.27550       -4.02800
C        -13.13120       -5.60120       -3.93200
C        -12.71180       -6.44660       -2.88620
N        -12.37480       -7.19830       -2.08540
C        -13.87040       -6.29520       -4.90610
N        -14.45840       -6.91550       -5.67440
H         14.13120        1.41570       -5.37070
H         15.89590        7.35060       -4.40730
H         18.66860        6.72070       -7.62190
H         18.05860        4.34820       -7.73810
H         13.52830        3.64490       -2.22370
H         12.48530        5.40250       -1.62500
H         13.43650        7.07990       -0.00460
H         14.62260        8.62700        3.30420
H         14.01510        8.51210        1.64310
H         16.15070        6.70660        2.91420
H         15.55580        6.53910        1.26050
H         16.46690        7.97930        1.72840
H          8.89270       -1.61920       -0.93010
H          7.83560       -3.38520       -2.42020
H          6.63400       -4.74610       -4.05770
H          8.39720       -4.99440       -4.20450
H          7.12790       -6.79290       -5.41300
H          6.33680       -5.55880       -6.40230
H          8.07750       -5.81440       -6.53910
H          7.54010        0.18370       -0.45620
H          6.04610        4.90200        3.49620
H          7.58360        6.54530        4.50390
H          9.84760        5.86090        5.19160
H         11.64870        4.20360        4.95590
H         11.27650        2.52700        4.52510
H         11.89880        2.69600        6.92410
H         10.21040        2.19840        6.76590
H         10.60070        3.86400        7.19320
H          8.99770        1.85640        3.99470
H         -6.34290       -1.70590        6.03380
H         -8.14950       -0.95270        7.53250
H         -9.80310        0.69100        6.74600
H        -10.90080        1.74680        4.80720
H        -10.06630        1.84720        3.25080
H         -9.27910        3.37250        5.78170
H        -10.09550        4.06350        4.37530
H         -8.43760        3.46770        4.23590
H         -7.90700        0.77010        2.92700
H          1.38150       -1.58100        1.93740
H          2.77440       -0.85000        1.10170
H          3.34790       -2.99710        2.24820
H          4.26060       -1.65290        2.93290
H          2.86290       -2.29890        3.79900
H          0.10090       -0.16010        1.10390
H         -1.64540       -0.05970        0.86920
H         -0.25220       -2.71030        1.50500
H         -1.93590       -2.45720        1.06840
H         -0.67090       -2.15330       -0.12020
H        -10.04530       -4.93150        3.53680
H         -9.25030       -7.16890        4.16500
H         -7.11820       -8.71670        3.99360
H         -5.63540       -8.02560        4.66810
H         -7.07120       -8.21430        5.67880
H         -5.24540       -5.70870        4.29740
H         -6.03820       -3.47240        3.68600
H        -10.23690       -0.97900        2.08820
H        -12.27050       -0.11330        3.09260
H        -13.11290       -0.29830        6.55550
H        -13.72790        0.15010        4.95770
H        -14.06870       -1.44700        5.62680
H        -11.53230       -2.40440        6.60930
H         -9.50160       -3.31070        5.59730
H         -6.53590       -3.23120       -4.17040
H         -4.84080       -1.54350       -4.74140
H         -3.98550        0.66590       -4.60740
H         -4.59660        1.68880       -3.29920
H         -5.28480        1.82220       -4.91240
H         -7.21300        1.47510       -2.88080
H         -8.92540       -0.21620       -2.32820
H         -9.22630       -2.11990       -5.36400
H        -10.04540       -3.58040       -7.15820
H        -11.62880       -6.65410       -6.70300
H        -10.82000       -5.67850       -7.93470
H         -9.99020       -7.05490       -7.19590
H        -10.04100       -6.88960       -4.46430
H         -9.23300       -5.43920       -2.66920
H        -12.19640       -4.64670       -1.31270
H        -11.85820       -0.25800       -5.74680
H        -14.42230       -2.70650       -8.16460
H        -14.35690       -4.49950       -6.48680
