201

C         -5.23090        2.34230        3.14460
C         -4.39310        1.47820        3.79880
C         -2.95830        1.29060        3.56340
O         -2.20310        2.02930        2.95710
C         -2.59360        0.03400        4.24770
C         -1.38510       -0.63070        4.24860
C         -1.30880       -1.82780        4.95500
C          0.01470       -2.53470        5.02270
F          0.65470       -2.57060        3.84690
F          0.85980       -1.92000        5.87850
F         -0.07380       -3.80430        5.45300
C         -2.41220       -2.33320        5.63300
C         -3.62330       -1.65500        5.63460
C         -3.71230       -0.45670        4.94400
C         -4.81600        0.49130        4.77820
C         -5.97450        0.49800        5.50290
C         -6.95520        1.51680        5.46710
N         -7.77060        2.31960        5.55150
C         -6.30150       -0.47350        6.47500
N         -6.62310       -1.22220        7.28250
C         -4.95830        3.24730        2.10410
S         -3.37480        3.57850        1.44720
C         -4.03280        4.65860        0.25840
C         -5.40940        4.82400        0.41620
C         -6.19160        5.85930       -0.27420
O         -5.67520        6.74600       -0.93420
C         -7.62710        5.76550       -0.02350
C         -8.57520        6.53440       -0.64770
C         -8.38320        7.57490       -1.68820
C         -8.07420        8.93460       -1.05570
S        -10.15870        6.16580       -0.05290
C         -9.55340        4.96270        1.03300
C        -10.49010        4.20030        1.89660
C        -10.92750        2.90240        1.21040
C         -8.18840        4.84610        0.92080
C         -7.38760        3.88230        1.67020
O         -7.88290        3.02380        2.38250
C         -5.93530        3.99600        1.42790
C         -3.14350        5.13910       -0.73880
C         -3.31240        5.33310       -2.10270
C         -4.56130        5.20990       -2.85140
C         -5.45410        4.16490       -2.62730
C         -6.63150        4.10170       -3.34600
C         -6.91600        5.05340       -4.31180
C         -6.01450        6.07420       -4.58260
C         -6.29280        7.10090       -5.64350
C         -6.93970        8.35300       -5.04880
C         -4.84570        6.14640       -3.83910
C         -2.07740        5.57150       -2.73560
S         -1.62420        5.59750       -4.42560
C          0.04110        5.50250       -3.96160
C          1.28310        5.18130       -4.55180
C          1.69360        4.92090       -5.87910
C          2.97480        4.29910       -6.11180
N          3.21010        4.10480       -7.39860
S          1.94680        4.65500       -8.24700
N          1.03750        5.15240       -7.00400
C          3.73980        3.86580       -5.00310
C          4.71130        2.85290       -4.86700
S          5.45240        1.59910       -5.82050
C          5.81780        0.69810       -4.35520
C          6.06170       -0.68580       -4.10830
C          6.36930       -1.65760       -5.15350
C          6.06080       -3.00980       -5.01500
C          6.37370       -3.89930       -6.02400
C          6.99310       -3.45800       -7.18020
C          7.30670       -2.11420       -7.34040
C          8.01770       -1.63100       -8.57130
C          9.53300       -1.68500       -8.36750
C          6.99520       -1.22800       -6.32160
C          5.90090       -0.97730       -2.77320
S          5.59030        0.45110       -1.79250
C          5.49670        1.42080       -3.21290
C          4.87490        2.64330       -3.49650
N          4.11630        3.52300       -2.77840
C          3.36150        4.24240       -3.68410
C          2.18690        4.99800       -3.47790
N          1.56840        5.32770       -2.27260
C          0.23740        5.55090       -2.57660
C         -0.97260        5.56760       -1.87680
S         -1.46230        5.29880       -0.24430
C          2.23430        6.12840       -1.25390
C          1.86260        5.74240        0.17290
C          3.87820        3.27630       -1.37520
C          2.65410        2.38860       -1.16240
C          5.52410       -2.17860       -2.04760
C          4.21360       -2.37020       -1.73660
C          3.98750       -3.38760       -0.78170
C          2.76090       -3.73240       -0.20670
C          1.50660       -3.12060       -0.67620
C          1.12550       -3.25370       -2.00890
C         -0.05350       -2.68920       -2.45970
C         -0.85310       -1.96300       -1.59400
C         -0.45940       -1.80490       -0.27490
S         -1.44570       -0.79930        0.82950
C         -0.65120        0.82120        0.49330
C         -1.07290        1.41940       -0.83340
C          0.70190       -2.39330        0.19480
C          2.79800       -4.64690        0.83170
C          4.00660       -5.25940        1.26800
C          5.24110       -4.94140        0.64950
C          6.49430       -5.59120        1.05130
C          7.63680       -4.83950        1.31870
C          8.82400       -5.47000        1.64300
C          8.88550       -6.84890        1.72240
C          7.74490       -7.60380        1.47820
S          7.85940       -9.37260        1.58840
C          6.39700       -9.75070        2.62430
C          6.49300       -9.09610        3.98680
C          6.55840       -6.97900        1.13010
C          5.20090       -3.98030       -0.34560
S          6.57370       -3.29670       -1.20390
C          3.76520       -6.09890        2.36690
C          2.43590       -6.14970        2.76190
S          1.41440       -5.15200        1.74630
C          2.01260       -6.90270        3.87470
C          0.77710       -7.00510        4.45760
C         -0.44830       -6.29590        4.04770
O         -0.63940       -5.63090        3.05240
C         -1.44290       -6.56730        5.10790
C         -2.72670       -6.07840        5.22060
C         -3.46850       -6.46680        6.33320
C         -4.86750       -5.92960        6.47030
F         -5.49160       -6.34180        7.57710
F         -5.64520       -6.28150        5.43260
F         -4.87520       -4.58270        6.50080
C         -2.93250       -7.31690        7.29300
C         -1.64010       -7.80810        7.16760
C         -0.88810       -7.43170        6.06490
C          0.47450       -7.77310        5.65130
C          1.26950       -8.70140        6.26990
C          2.54500       -9.11310        5.83380
N          3.57690       -9.52540        5.54270
C          0.89720       -9.42230        7.42560
N          0.66130      -10.04150        8.36240
H         -6.28480        2.29140        3.39650
H         -0.53630       -0.23580        3.71330
H         -2.32810       -3.26570        6.17000
H         -4.46370       -2.07400        6.16230
H         -9.28550        7.65030       -2.29870
H         -7.53990        7.28140       -2.31650
H         -7.97160        9.68720       -1.83270
H         -7.14100        8.87640       -0.50250
H         -8.87190        9.23440       -0.37940
H         -9.98540        3.94640        2.83070
H        -11.36740        4.81310        2.11270
H        -10.06440        2.26330        1.04620
H        -11.63370        2.37330        1.84360
H        -11.40180        3.11440        0.25420
H         -5.22020        3.40030       -1.90100
H         -7.32960        3.29820       -3.16020
H         -7.83900        4.99200       -4.87050
H         -5.35440        7.37950       -6.12710
H         -6.95480        6.67800       -6.40170
H         -6.32430        8.75060       -4.24500
H         -7.05300        9.11870       -5.81280
H         -7.92260        8.11870       -4.64730
H         -4.15110        6.95380       -4.01740
H          5.56120       -3.36060       -4.12560
H          6.12940       -4.94520       -5.90890
H          7.23170       -4.16030       -7.96580
H          7.71940       -0.60400       -8.78990
H          7.74650       -2.25600       -9.42430
H          9.85130       -2.70420       -8.15930
H         10.04920       -1.33480       -9.25810
H          9.82420       -1.05810       -7.52770
H          7.25470       -0.18580       -6.43530
H          3.30980        6.04400       -1.42120
H          1.96970        7.18200       -1.41480
H          1.91760        4.66900        0.32530
H          2.54160        6.23250        0.86600
H          0.85220        6.06320        0.40540
H          3.77150        4.21300       -0.83580
H          4.76750        2.77160       -0.98900
H          1.75760        2.87370       -1.53930
H          2.78030        1.44260       -1.68370
H          2.52810        2.18320       -0.10300
H          3.42360       -1.76700       -2.14880
H          1.74860       -3.82110       -2.68490
H         -0.35110       -2.81340       -3.49050
H         -1.77820       -1.52330       -1.93400
H         -0.97040        1.45560        1.31850
H          0.42670        0.66620        0.54180
H         -0.66420        2.42370       -0.92840
H         -2.15740        1.48420       -0.88780
H         -0.71520        0.81730       -1.66690
H          0.98420       -2.27580        1.22980
H          7.58760       -3.76180        1.29130
H          9.70600       -4.88130        1.84550
H          9.80590       -7.35030        1.97770
H          5.49950       -9.44660        2.08660
H          6.40470      -10.83640        2.70810
H          5.62250       -9.35720        4.58340
H          6.54350       -8.01170        3.89170
H          7.38740       -9.43390        4.50490
H          5.68470       -7.56420        0.88450
H          4.53630       -6.63750        2.88970
H          2.82050       -7.44950        4.34800
H         -3.13450       -5.41880        4.46960
H         -3.52890       -7.59840        8.14720
H         -1.24720       -8.46320        7.92710
