199

C          8.64380        6.82830        8.29620
C          8.00280        7.67610        9.14970
C          6.58280        7.57720        9.57590
O          5.80500        6.66320        9.42690
C          6.26240        8.89880       10.16700
C          5.04910        9.33720       10.65830
C          4.98770       10.63460       11.15310
C          3.70520       11.17550       11.72390
F          3.76150       11.28490       13.06490
F          2.64200       10.41120       11.44990
F          3.42400       12.40580       11.26240
C          6.10910       11.45970       11.15220
C          7.32420       11.01170       10.65690
C          7.40240        9.71800       10.16120
C          8.51380        8.96610        9.58110
C          9.81700        9.38240        9.53400
C         10.89770        8.60580        9.06130
N         11.82990        8.03330        8.71350
C         10.26290       10.64230        9.98730
N         10.68410       11.65290       10.33130
C          8.23070        5.52500        7.86740
C          7.53310        4.62710        8.68860
C          7.13940        3.39970        8.21460
C          7.40800        3.02000        6.89240
C          8.13230        3.90350        6.07990
C          8.56170        5.11270        6.56580
C          6.89830        1.78520        6.35360
C          6.58010        0.60470        6.99800
C          6.93780        0.25610        8.37430
C          8.21570        0.51810        8.86460
C          8.54930        0.13680       10.14920
C          7.62280       -0.50890       10.95110
C          6.34590       -0.77970       10.47730
C          5.34810       -1.52710       11.31320
C          5.35430       -3.01130       10.94140
C          6.01590       -0.39440        9.18620
C          5.92410       -0.29390        6.13080
S          5.24540       -1.88770        6.36820
C          4.70490       -1.87570        4.72460
C          3.95630       -2.67300        3.84490
C          3.39570       -3.95640        4.01670
C          2.65130       -4.53620        2.93780
N          2.20060       -5.74710        3.22670
S          2.67300       -6.12430        4.72860
N          3.46780       -4.75530        5.07010
C          2.43350       -3.76900        1.77330
C          1.59550       -4.00300        0.67230
S          0.46550       -5.19010        0.11050
C          0.00940       -4.10840       -1.18540
C         -0.96720       -4.18450       -2.19630
C         -1.86340       -5.31890       -2.41570
C         -2.51910       -5.92190       -1.34690
C         -3.39290       -6.96660       -1.57930
C         -3.62540       -7.41210       -2.86850
C         -2.96080       -6.83780       -3.94450
C         -3.23130       -7.28000       -5.35370
C         -4.24960       -6.34460       -6.00800
C         -2.07590       -5.79940       -3.70420
C         -0.98430       -3.03640       -2.97060
S          0.24030       -1.87390       -2.47140
C          0.73840       -2.91790       -1.18980
C          1.64360       -2.85690       -0.12290
N          2.50610       -1.94390        0.41870
C          2.99430       -2.46940        1.60490
C          3.83850       -1.94990        2.62340
N          4.54680       -0.76290        2.75460
C          5.05460       -0.71930        4.02640
C          5.75890        0.18590        4.83020
S          6.43890        1.76260        4.65540
C          5.11420        0.10420        1.74520
C          5.97890       -0.67790        0.75950
C          2.50710       -0.59220       -0.08950
C          1.71870        0.34870        0.81880
C         -1.98300       -2.61270       -3.89040
C         -1.87150       -1.61450       -4.85410
N         -0.67130       -1.07240       -5.28050
C         -0.62250        0.29130       -5.60830
C         -1.30180        1.21870       -4.82310
C         -1.27330        2.55960       -5.15140
C         -0.56370        3.01220       -6.25630
C         -0.55090        4.46420       -6.62340
C          0.11760        2.07920       -7.03010
C          0.08900        0.73510       -6.71950
C          0.42900       -1.90980       -5.51060
C          1.72410       -1.45010       -5.28560
C          2.80400       -2.28850       -5.48370
C          2.62880       -3.60180       -5.89900
C          3.79380       -4.52220       -6.09730
C          1.33260       -4.05150       -6.12790
C          0.24680       -3.22130       -5.94430
C         -3.13900       -1.25980       -5.36370
S         -3.67160       -0.10790       -6.53000
C         -5.36250       -0.55080       -6.22280
C         -5.46470       -1.66710       -5.35230
N         -6.57870       -2.40560       -5.11020
C         -6.62400       -3.25460       -3.97830
C         -6.97500       -4.58960       -4.13770
C         -6.99670       -5.43030       -3.04150
C         -6.68340       -4.95940       -1.77270
C         -6.71900       -5.86460       -0.58160
C         -6.36750       -3.61330       -1.62300
C         -6.33660       -2.76230       -2.70970
C         -7.70260       -2.40920       -5.95160
C         -7.57390       -2.42860       -7.33920
C         -8.69700       -2.39090       -8.13810
C         -9.97510       -2.33320       -7.58570
C        -11.17820       -2.22810       -8.46830
C        -10.09540       -2.36410       -6.20280
C         -8.97760       -2.40720       -5.39020
C         -4.19280       -1.99880       -4.83750
S         -3.63130       -3.18760       -3.70610
C         -6.33620        0.23600       -6.82230
C         -7.64220        0.38330       -6.37770
C         -8.04000        0.21950       -4.97760
O         -7.34250       -0.09850       -4.03160
C         -9.45840        0.65220       -4.91830
C        -10.30060        0.69880       -3.83020
C        -11.60380        1.14480       -4.04120
C        -12.56660        1.15700       -2.88810
F        -11.97160        1.42250       -1.71590
F        -13.54940        2.05750       -3.03110
F        -13.17490       -0.03870       -2.73430
C        -12.03460        1.53490       -5.30250
C        -11.17500        1.49110       -6.39300
C         -9.88080        1.04080       -6.20000
C         -8.76360        0.85430       -7.12950
C         -8.83490        0.95750       -8.49930
C         -9.99620        1.32160       -9.20250
N        -10.92200        1.59840       -9.82480
C         -7.77330        0.62720       -9.36360
N         -6.96010        0.34410      -10.12410
H          9.54890        7.19290        7.82280
H          4.18620        8.68930       10.65030
H          6.02600       12.46410       11.53890
H          8.17640       11.67080       10.65910
H          7.31990        4.89150        9.71060
H          6.58880        2.73160        8.85740
H          8.36050        3.61760        5.06280
H          9.12510        5.77890        5.92850
H          8.94140        1.00970        8.23350
H          9.54080        0.33880       10.52690
H          7.89450       -0.80630       11.95360
H          4.34840       -1.12020       11.14700
H          5.59140       -1.41660       12.37150
H          5.10340       -3.14010        9.89100
H          4.62990       -3.55620       11.54220
H          6.33960       -3.43910       11.11230
H          5.02130       -0.58880        8.81230
H         -2.35260       -5.56120       -0.34330
H         -3.89850       -7.43570       -0.74860
H         -4.32010       -8.22130       -3.04190
H         -2.30450       -7.26620       -5.93140
H         -3.62150       -8.29930       -5.35790
H         -3.87330       -5.32380       -6.02200
H         -4.45450       -6.65510       -7.03000
H         -5.17900       -6.35230       -5.44400
H         -1.53340       -5.35580       -4.52720
H          4.33540        0.67180        1.23580
H          5.73880        0.82730        2.27570
H          6.38370       -0.00680        0.00660
H          5.40480       -1.45840        0.26510
H          6.80650       -1.14920        1.28470
H          3.52740       -0.24460       -0.24680
H          2.02660       -0.62940       -1.07060
H          1.75680        1.36220        0.42870
H          0.67870        0.03370        0.86070
H          2.11570        0.34280        1.83130
H         -1.84640        0.88270       -3.95260
H         -1.80780        3.26690       -4.53380
H          0.40590        4.74650       -7.05700
H         -1.32650        4.66690       -7.36270
H         -0.74330        5.08770       -5.75350
H          0.67100        2.41000       -7.89700
H          0.61160        0.02120       -7.33870
H          1.87500       -0.43550       -4.94830
H          3.80150       -1.91480       -5.30190
H          3.76470       -4.96590       -7.09140
H          4.73480       -3.99100       -5.98000
H          3.76180       -5.33410       -5.37090
H          1.17490       -5.06640       -6.46400
H         -0.75150       -3.58150       -6.14720
H         -7.22530       -4.95940       -5.12170
H         -7.25930       -6.46960       -3.17530
H         -7.62420       -5.68290       -0.00150
H         -6.71250       -6.90790       -0.88540
H         -5.86490       -5.67720        0.06530
H         -6.14570       -3.22660       -0.63930
H         -6.11750       -1.71250       -2.59230
H         -6.59350       -2.46890       -7.78960
H         -8.58170       -2.39830       -9.21200
H        -11.10460       -2.92100       -9.30390
H        -11.25410       -1.22150       -8.88170
H        -12.08870       -2.43680       -7.91280
H        -11.07600       -2.34130       -5.75000
H         -9.08400       -2.42580       -4.31600
H         -6.01250        0.82710       -7.67060
H         -9.95850        0.39950       -2.85140
H        -13.04790        1.88230       -5.43450
H        -11.52620        1.80960       -7.36070
