
  xtb     02222213533D
 energy: -434.819725372116 gnorm: 0.000970459194 xtb: 6.4.1 (unknown)
255280  0     0  0            999 V2000
   -1.4179   10.4257    8.0667 C   0  0  0  0  0  0  0  0  0  0  0  0
   -0.8021   11.6122    7.7275 C   0  0  0  0  0  0  0  0  0  0  0  0
   -1.4801   12.8954    7.9904 C   0  0  0  0  0  0  0  0  0  0  0  0
   -2.5005   13.0811    8.6152 O   0  0  0  0  0  0  0  0  0  0  0  0
   -0.6767   13.9097    7.2607 C   0  0  0  0  0  0  0  0  0  0  0  0
   -0.9352   15.2514    7.0816 C   0  0  0  0  0  0  0  0  0  0  0  0
   -0.0230   15.9883    6.3322 C   0  0  0  0  0  0  0  0  0  0  0  0
   -0.2863   17.4362    6.0312 C   0  0  0  0  0  0  0  0  0  0  0  0
    0.8202   18.1926    6.1023 F   0  0  0  0  0  0  0  0  0  0  0  0
   -0.7634   17.5969    4.7766 F   0  0  0  0  0  0  0  0  0  0  0  0
   -1.1879   17.9942    6.8466 F   0  0  0  0  0  0  0  0  0  0  0  0
    1.1196   15.3976    5.8034 C   0  0  0  0  0  0  0  0  0  0  0  0
    1.3771   14.0485    5.9962 C   0  0  0  0  0  0  0  0  0  0  0  0
    0.4600   13.2957    6.7101 C   0  0  0  0  0  0  0  0  0  0  0  0
    0.4310   11.8718    7.0515 C   0  0  0  0  0  0  0  0  0  0  0  0
    1.4927   10.9982    6.9373 C   0  0  0  0  0  0  0  0  0  0  0  0
    2.6585   11.2661    6.2000 C   0  0  0  0  0  0  0  0  0  0  0  0
    3.6064   11.4069    5.5655 N   0  0  0  0  0  0  0  0  0  0  0  0
    1.5449    9.7640    7.6035 C   0  0  0  0  0  0  0  0  0  0  0  0
    1.6558    8.7603    8.1543 N   0  0  0  0  0  0  0  0  0  0  0  0
   -1.2679    9.1505    7.5205 C   0  0  0  0  0  0  0  0  0  0  0  0
   -0.7505    8.6942    6.2854 C   0  0  0  0  0  0  0  0  0  0  0  0
   -0.3855    9.4699    5.2162 N   0  0  0  0  0  0  0  0  0  0  0  0
   -0.9942   10.6989    4.9122 C   0  0  0  0  0  0  0  0  0  0  0  0
   -0.2653   11.6709    4.2265 C   0  0  0  0  0  0  0  0  0  0  0  0
   -0.8406   12.8878    3.9182 C   0  0  0  0  0  0  0  0  0  0  0  0
   -2.1435   13.1832    4.2991 C   0  0  0  0  0  0  0  0  0  0  0  0
   -2.7591   14.5119    3.9959 C   0  0  0  0  0  0  0  0  0  0  0  0
   -2.8742   12.1972    4.9554 C   0  0  0  0  0  0  0  0  0  0  0  0
   -2.3187   10.9689    5.2491 C   0  0  0  0  0  0  0  0  0  0  0  0
    0.4653    8.9159    4.2239 C   0  0  0  0  0  0  0  0  0  0  0  0
    1.6879    8.3489    4.5718 C   0  0  0  0  0  0  0  0  0  0  0  0
    2.5150    7.8387    3.5922 C   0  0  0  0  0  0  0  0  0  0  0  0
    2.1502    7.8771    2.2508 C   0  0  0  0  0  0  0  0  0  0  0  0
    3.0642    7.3184    1.2057 C   0  0  0  0  0  0  0  0  0  0  0  0
    0.9267    8.4420    1.9153 C   0  0  0  0  0  0  0  0  0  0  0  0
    0.0892    8.9565    2.8860 C   0  0  0  0  0  0  0  0  0  0  0  0
   -0.7159    7.2841    6.2603 C   0  0  0  0  0  0  0  0  0  0  0  0
   -0.2245    6.1181    5.0776 S   0  0  0  0  0  0  0  0  0  0  0  0
   -0.6050    4.8113    6.1830 C   0  0  0  0  0  0  0  0  0  0  0  0
   -1.1709    5.2537    7.3725 C   0  0  0  0  0  0  0  0  0  0  0  0
   -1.6583    4.4394    8.3736 N   0  0  0  0  0  0  0  0  0  0  0  0
   -1.5825    4.8540    9.7138 C   0  0  0  0  0  0  0  0  0  0  0  0
   -2.6077    4.5359   10.6004 C   0  0  0  0  0  0  0  0  0  0  0  0
   -2.5366    4.9432   11.9174 C   0  0  0  0  0  0  0  0  0  0  0  0
   -1.4556    5.6814   12.3847 C   0  0  0  0  0  0  0  0  0  0  0  0
   -1.3985    6.1480   13.8069 C   0  0  0  0  0  0  0  0  0  0  0  0
   -0.4390    5.9958   11.4918 C   0  0  0  0  0  0  0  0  0  0  0  0
   -0.4933    5.5881   10.1741 C   0  0  0  0  0  0  0  0  0  0  0  0
   -2.1916    3.1798    8.0579 C   0  0  0  0  0  0  0  0  0  0  0  0
   -1.9172    2.0747    8.8592 C   0  0  0  0  0  0  0  0  0  0  0  0
   -2.3628    0.8222    8.4898 C   0  0  0  0  0  0  0  0  0  0  0  0
   -3.1073    0.6346    7.3306 C   0  0  0  0  0  0  0  0  0  0  0  0
   -3.5164   -0.7416    6.9032 C   0  0  0  0  0  0  0  0  0  0  0  0
   -3.4385    1.7532    6.5772 C   0  0  0  0  0  0  0  0  0  0  0  0
   -2.9888    3.0106    6.9296 C   0  0  0  0  0  0  0  0  0  0  0  0
   -1.2162    6.6670    7.4012 C   0  0  0  0  0  0  0  0  0  0  0  0
   -1.8130    7.8103    8.5393 S   0  0  0  0  0  0  0  0  0  0  0  0
   -0.3165    3.4560    5.8211 C   0  0  0  0  0  0  0  0  0  0  0  0
    0.3341    2.5098    6.5890 C   0  0  0  0  0  0  0  0  0  0  0  0
    1.0938    2.8242    7.7976 C   0  0  0  0  0  0  0  0  0  0  0  0
    1.2039    1.9017    8.8351 C   0  0  0  0  0  0  0  0  0  0  0  0
    1.9310    2.2184    9.9666 C   0  0  0  0  0  0  0  0  0  0  0  0
    2.5668    3.4428   10.0733 C   0  0  0  0  0  0  0  0  0  0  0  0
    2.4992    4.3638    9.0353 C   0  0  0  0  0  0  0  0  0  0  0  0
    3.2397    5.6687    9.1036 C   0  0  0  0  0  0  0  0  0  0  0  0
    4.5765    5.5625    8.3674 C   0  0  0  0  0  0  0  0  0  0  0  0
    1.7659    4.0394    7.9046 C   0  0  0  0  0  0  0  0  0  0  0  0
    0.2672    1.2367    5.9801 C   0  0  0  0  0  0  0  0  0  0  0  0
    0.8366   -0.3447    6.4529 S   0  0  0  0  0  0  0  0  0  0  0  0
    0.2489   -0.9884    4.9566 C   0  0  0  0  0  0  0  0  0  0  0  0
    0.1867   -2.2139    4.2672 C   0  0  0  0  0  0  0  0  0  0  0  0
    0.5290   -3.5319    4.6414 C   0  0  0  0  0  0  0  0  0  0  0  0
    0.2913   -4.6048    3.7143 C   0  0  0  0  0  0  0  0  0  0  0  0
    0.6110   -5.7865    4.2177 N   0  0  0  0  0  0  0  0  0  0  0  0
    1.1652   -5.5715    5.7236 S   0  0  0  0  0  0  0  0  0  0  0  0
    1.0200   -3.9604    5.7936 N   0  0  0  0  0  0  0  0  0  0  0  0
   -0.1500   -4.2963    2.4083 C   0  0  0  0  0  0  0  0  0  0  0  0
   -0.2435   -5.0787    1.2448 C   0  0  0  0  0  0  0  0  0  0  0  0
   -0.0169   -6.7223    0.7493 S   0  0  0  0  0  0  0  0  0  0  0  0
   -0.2608   -6.2302   -0.9088 C   0  0  0  0  0  0  0  0  0  0  0  0
   -0.2434   -6.9441   -2.1245 C   0  0  0  0  0  0  0  0  0  0  0  0
   -0.1304   -8.4005   -2.1975 C   0  0  0  0  0  0  0  0  0  0  0  0
   -1.0706   -9.1351   -2.9128 C   0  0  0  0  0  0  0  0  0  0  0  0
   -1.0156  -10.5151   -2.9017 C   0  0  0  0  0  0  0  0  0  0  0  0
   -0.0219  -11.1681   -2.1953 C   0  0  0  0  0  0  0  0  0  0  0  0
    0.9331  -10.4481   -1.4899 C   0  0  0  0  0  0  0  0  0  0  0  0
    1.9909  -11.1494   -0.6894 C   0  0  0  0  0  0  0  0  0  0  0  0
    1.5330  -11.3204    0.7605 C   0  0  0  0  0  0  0  0  0  0  0  0
    0.8605   -9.0641   -1.4848 C   0  0  0  0  0  0  0  0  0  0  0  0
   -0.4450   -6.1005   -3.1993 C   0  0  0  0  0  0  0  0  0  0  0  0
   -0.7262   -4.4344   -2.7096 S   0  0  0  0  0  0  0  0  0  0  0  0
   -0.5184   -4.8648   -1.0488 C   0  0  0  0  0  0  0  0  0  0  0  0
   -0.5240   -4.2078    0.1880 C   0  0  0  0  0  0  0  0  0  0  0  0
   -0.6469   -2.9268    0.6575 N   0  0  0  0  0  0  0  0  0  0  0  0
   -0.4346   -2.9578    2.0226 C   0  0  0  0  0  0  0  0  0  0  0  0
   -0.4047   -1.9376    3.0053 C   0  0  0  0  0  0  0  0  0  0  0  0
   -0.7563   -0.5973    2.9584 N   0  0  0  0  0  0  0  0  0  0  0  0
   -0.3511   -0.0293    4.1401 C   0  0  0  0  0  0  0  0  0  0  0  0
   -0.3618    1.2383    4.7354 C   0  0  0  0  0  0  0  0  0  0  0  0
   -0.9245    2.8118    4.3056 S   0  0  0  0  0  0  0  0  0  0  0  0
   -1.8526    0.0115    2.2369 C   0  0  0  0  0  0  0  0  0  0  0  0
   -3.1383   -0.0335    3.0613 C   0  0  0  0  0  0  0  0  0  0  0  0
   -0.6157   -1.8111   -0.2607 C   0  0  0  0  0  0  0  0  0  0  0  0
   -1.9539   -1.6150   -0.9740 C   0  0  0  0  0  0  0  0  0  0  0  0
   -0.3258   -6.3696   -4.5952 C   0  0  0  0  0  0  0  0  0  0  0  0
    0.5533   -7.2238   -5.2361 C   0  0  0  0  0  0  0  0  0  0  0  0
    1.5262   -8.0055   -4.5840 N   0  0  0  0  0  0  0  0  0  0  0  0
    1.5598   -9.3814   -4.8161 C   0  0  0  0  0  0  0  0  0  0  0  0
    2.5887  -10.1450   -4.2665 C   0  0  0  0  0  0  0  0  0  0  0  0
    2.6070  -11.5148   -4.4243 C   0  0  0  0  0  0  0  0  0  0  0  0
    1.6049  -12.1738   -5.1242 C   0  0  0  0  0  0  0  0  0  0  0  0
    1.6392  -13.6606   -5.3125 C   0  0  0  0  0  0  0  0  0  0  0  0
    0.5742  -11.4115   -5.6549 C   0  0  0  0  0  0  0  0  0  0  0  0
    0.5414  -10.0400   -5.5008 C   0  0  0  0  0  0  0  0  0  0  0  0
    2.7666   -7.3164   -4.4218 C   0  0  0  0  0  0  0  0  0  0  0  0
    3.7983   -7.5059   -5.3373 C   0  0  0  0  0  0  0  0  0  0  0  0
    4.9887   -6.8237   -5.1901 C   0  0  0  0  0  0  0  0  0  0  0  0
    5.1791   -5.9319   -4.1393 C   0  0  0  0  0  0  0  0  0  0  0  0
    6.4839   -5.2123   -3.9837 C   0  0  0  0  0  0  0  0  0  0  0  0
    4.1403   -5.7425   -3.2390 C   0  0  0  0  0  0  0  0  0  0  0  0
    2.9442   -6.4255   -3.3739 C   0  0  0  0  0  0  0  0  0  0  0  0
    0.4368   -7.1220   -6.6397 C   0  0  0  0  0  0  0  0  0  0  0  0
    1.3334   -7.8079   -7.9436 S   0  0  0  0  0  0  0  0  0  0  0  0
    0.3623   -6.8921   -9.1029 C   0  0  0  0  0  0  0  0  0  0  0  0
   -0.5619   -6.0241   -8.4535 C   0  0  0  0  0  0  0  0  0  0  0  0
   -1.3782   -5.1205   -9.0741 N   0  0  0  0  0  0  0  0  0  0  0  0
   -2.6059   -4.7917   -8.4646 C   0  0  0  0  0  0  0  0  0  0  0  0
   -3.0143   -3.4666   -8.3621 C   0  0  0  0  0  0  0  0  0  0  0  0
   -4.2213   -3.1609   -7.7640 C   0  0  0  0  0  0  0  0  0  0  0  0
   -5.0433   -4.1579   -7.2548 C   0  0  0  0  0  0  0  0  0  0  0  0
   -6.3534   -3.8327   -6.6072 C   0  0  0  0  0  0  0  0  0  0  0  0
   -4.6278   -5.4807   -7.3682 C   0  0  0  0  0  0  0  0  0  0  0  0
   -3.4273   -5.8005   -7.9672 C   0  0  0  0  0  0  0  0  0  0  0  0
   -0.9915   -4.4101  -10.2271 C   0  0  0  0  0  0  0  0  0  0  0  0
    0.3256   -3.9893  -10.3948 C   0  0  0  0  0  0  0  0  0  0  0  0
    0.6923   -3.3112  -11.5399 C   0  0  0  0  0  0  0  0  0  0  0  0
   -0.2383   -3.0176  -12.5304 C   0  0  0  0  0  0  0  0  0  0  0  0
    0.1623   -2.3102  -13.7875 C   0  0  0  0  0  0  0  0  0  0  0  0
   -1.5578   -3.4083  -12.3340 C   0  0  0  0  0  0  0  0  0  0  0  0
   -1.9370   -4.1009  -11.2014 C   0  0  0  0  0  0  0  0  0  0  0  0
   -0.5150   -6.2001   -7.0637 C   0  0  0  0  0  0  0  0  0  0  0  0
   -1.2961   -5.4320   -5.7175 S   0  0  0  0  0  0  0  0  0  0  0  0
    0.4068   -7.0584  -10.4797 C   0  0  0  0  0  0  0  0  0  0  0  0
    1.2845   -7.7756  -11.2718 C   0  0  0  0  0  0  0  0  0  0  0  0
    2.4939   -8.4569  -10.8186 C   0  0  0  0  0  0  0  0  0  0  0  0
    2.8824   -8.6300   -9.6772 O   0  0  0  0  0  0  0  0  0  0  0  0
    3.1984   -8.8899  -12.0480 C   0  0  0  0  0  0  0  0  0  0  0  0
    4.3998   -9.5567  -12.1619 C   0  0  0  0  0  0  0  0  0  0  0  0
    4.8567   -9.8403  -13.4450 C   0  0  0  0  0  0  0  0  0  0  0  0
    6.1522  -10.5730  -13.6535 C   0  0  0  0  0  0  0  0  0  0  0  0
    5.9575  -11.8094  -14.1515 F   0  0  0  0  0  0  0  0  0  0  0  0
    6.9554   -9.9446  -14.5313 F   0  0  0  0  0  0  0  0  0  0  0  0
    6.8631  -10.7255  -12.5300 F   0  0  0  0  0  0  0  0  0  0  0  0
    4.1238   -9.4697  -14.5677 C   0  0  0  0  0  0  0  0  0  0  0  0
    2.9135   -8.8023  -14.4425 C   0  0  0  0  0  0  0  0  0  0  0  0
    2.4469   -8.5075  -13.1712 C   0  0  0  0  0  0  0  0  0  0  0  0
    1.2278   -7.8368  -12.7090 C   0  0  0  0  0  0  0  0  0  0  0  0
    0.2218   -7.3810  -13.5288 C   0  0  0  0  0  0  0  0  0  0  0  0
    0.2771   -7.4001  -14.9362 C   0  0  0  0  0  0  0  0  0  0  0  0
    0.2666   -7.3596  -16.0841 N   0  0  0  0  0  0  0  0  0  0  0  0
   -1.0115   -6.8584  -13.0961 C   0  0  0  0  0  0  0  0  0  0  0  0
   -2.0557   -6.4571  -12.8294 N   0  0  0  0  0  0  0  0  0  0  0  0
   -2.1697   10.5117    8.8457 H   0  0  0  0  0  0  0  0  0  0  0  0
   -1.8147   15.7067    7.5097 H   0  0  0  0  0  0  0  0  0  0  0  0
    1.8118   16.0004    5.2350 H   0  0  0  0  0  0  0  0  0  0  0  0
    2.2654   13.6067    5.5750 H   0  0  0  0  0  0  0  0  0  0  0  0
    0.7575   11.4698    3.9424 H   0  0  0  0  0  0  0  0  0  0  0  0
   -0.2583   13.6278    3.3895 H   0  0  0  0  0  0  0  0  0  0  0  0
   -1.9975   15.2601    3.7917 H   0  0  0  0  0  0  0  0  0  0  0  0
   -3.4029   14.4348    3.1193 H   0  0  0  0  0  0  0  0  0  0  0  0
   -3.3723   14.8479    4.8292 H   0  0  0  0  0  0  0  0  0  0  0  0
   -3.8968   12.3942    5.2405 H   0  0  0  0  0  0  0  0  0  0  0  0
   -2.9153   10.2147    5.7393 H   0  0  0  0  0  0  0  0  0  0  0  0
    1.9897    8.3082    5.6066 H   0  0  0  0  0  0  0  0  0  0  0  0
    3.4644    7.4089    3.8744 H   0  0  0  0  0  0  0  0  0  0  0  0
    4.0264    7.8275    1.2350 H   0  0  0  0  0  0  0  0  0  0  0  0
    2.6390    7.4329    0.2121 H   0  0  0  0  0  0  0  0  0  0  0  0
    3.2437    6.2599    1.3891 H   0  0  0  0  0  0  0  0  0  0  0  0
    0.6192    8.4789    0.8805 H   0  0  0  0  0  0  0  0  0  0  0  0
   -0.8611    9.3906    2.6116 H   0  0  0  0  0  0  0  0  0  0  0  0
   -3.4586    3.9700   10.2505 H   0  0  0  0  0  0  0  0  0  0  0  0
   -3.3408    4.6893   12.5929 H   0  0  0  0  0  0  0  0  0  0  0  0
   -1.8113    7.1545   13.8845 H   0  0  0  0  0  0  0  0  0  0  0  0
   -0.3713    6.1796   14.1630 H   0  0  0  0  0  0  0  0  0  0  0  0
   -1.9783    5.4950   14.4548 H   0  0  0  0  0  0  0  0  0  0  0  0
    0.4137    6.5655   11.8307 H   0  0  0  0  0  0  0  0  0  0  0  0
    0.3152    5.8295    9.5030 H   0  0  0  0  0  0  0  0  0  0  0  0
   -1.3336    2.2059    9.7575 H   0  0  0  0  0  0  0  0  0  0  0  0
   -2.1155   -0.0311    9.1043 H   0  0  0  0  0  0  0  0  0  0  0  0
   -2.6738   -1.2486    6.4301 H   0  0  0  0  0  0  0  0  0  0  0  0
   -3.8212   -1.3379    7.7603 H   0  0  0  0  0  0  0  0  0  0  0  0
   -4.3367   -0.7032    6.1904 H   0  0  0  0  0  0  0  0  0  0  0  0
   -4.0607    1.6455    5.6998 H   0  0  0  0  0  0  0  0  0  0  0  0
   -3.2492    3.8670    6.3242 H   0  0  0  0  0  0  0  0  0  0  0  0
    0.7087    0.9464    8.7587 H   0  0  0  0  0  0  0  0  0  0  0  0
    2.0026    1.5027   10.7724 H   0  0  0  0  0  0  0  0  0  0  0  0
    3.1284    3.6826   10.9645 H   0  0  0  0  0  0  0  0  0  0  0  0
    3.4229    5.9345   10.1463 H   0  0  0  0  0  0  0  0  0  0  0  0
    2.6471    6.4654    8.6493 H   0  0  0  0  0  0  0  0  0  0  0  0
    5.1997    4.7932    8.8191 H   0  0  0  0  0  0  0  0  0  0  0  0
    5.1071    6.5106    8.4090 H   0  0  0  0  0  0  0  0  0  0  0  0
    4.4148    5.3011    7.3237 H   0  0  0  0  0  0  0  0  0  0  0  0
    1.7327    4.7419    7.0842 H   0  0  0  0  0  0  0  0  0  0  0  0
   -1.8501   -8.6204   -3.4559 H   0  0  0  0  0  0  0  0  0  0  0  0
   -1.7532  -11.0860   -3.4460 H   0  0  0  0  0  0  0  0  0  0  0  0
    0.0178  -12.2474   -2.1972 H   0  0  0  0  0  0  0  0  0  0  0  0
    2.1937  -12.1290   -1.1257 H   0  0  0  0  0  0  0  0  0  0  0  0
    2.9144  -10.5676   -0.7095 H   0  0  0  0  0  0  0  0  0  0  0  0
    0.6211  -11.9120    0.8007 H   0  0  0  0  0  0  0  0  0  0  0  0
    2.2993  -11.8229    1.3460 H   0  0  0  0  0  0  0  0  0  0  0  0
    1.3306  -10.3508    1.2098 H   0  0  0  0  0  0  0  0  0  0  0  0
    1.5953   -8.4927   -0.9363 H   0  0  0  0  0  0  0  0  0  0  0  0
   -1.5822    1.0512    2.0277 H   0  0  0  0  0  0  0  0  0  0  0  0
   -2.0172   -0.5126    1.3033 H   0  0  0  0  0  0  0  0  0  0  0  0
   -3.4078   -1.0647    3.2816 H   0  0  0  0  0  0  0  0  0  0  0  0
   -3.0061    0.4999    3.9982 H   0  0  0  0  0  0  0  0  0  0  0  0
   -3.9483    0.4304    2.5048 H   0  0  0  0  0  0  0  0  0  0  0  0
   -0.3057   -0.9157    0.2793 H   0  0  0  0  0  0  0  0  0  0  0  0
    0.1495   -2.0232   -1.0165 H   0  0  0  0  0  0  0  0  0  0  0  0
   -2.1463   -2.4496   -1.6423 H   0  0  0  0  0  0  0  0  0  0  0  0
   -1.9257   -0.7032   -1.5638 H   0  0  0  0  0  0  0  0  0  0  0  0
   -2.7810   -1.5546   -0.2699 H   0  0  0  0  0  0  0  0  0  0  0  0
    3.3729   -9.6571   -3.7076 H   0  0  0  0  0  0  0  0  0  0  0  0
    3.4167  -12.0834   -3.9892 H   0  0  0  0  0  0  0  0  0  0  0  0
    2.2268  -14.1372   -4.5312 H   0  0  0  0  0  0  0  0  0  0  0  0
    2.0923  -13.9075   -6.2735 H   0  0  0  0  0  0  0  0  0  0  0  0
    0.6335  -14.0761   -5.3011 H   0  0  0  0  0  0  0  0  0  0  0  0
   -0.2237  -11.8989   -6.1975 H   0  0  0  0  0  0  0  0  0  0  0  0
   -0.2893   -9.4832   -5.9072 H   0  0  0  0  0  0  0  0  0  0  0  0
    3.6589   -8.1908   -6.1612 H   0  0  0  0  0  0  0  0  0  0  0  0
    5.7821   -6.9792   -5.9067 H   0  0  0  0  0  0  0  0  0  0  0  0
    6.8232   -4.8205   -4.9407 H   0  0  0  0  0  0  0  0  0  0  0  0
    6.3954   -4.3907   -3.2773 H   0  0  0  0  0  0  0  0  0  0  0  0
    7.2472   -5.8986   -3.6164 H   0  0  0  0  0  0  0  0  0  0  0  0
    4.2663   -5.0551   -2.4144 H   0  0  0  0  0  0  0  0  0  0  0  0
    2.1521   -6.2730   -2.6594 H   0  0  0  0  0  0  0  0  0  0  0  0
   -2.3805   -2.6818   -8.7472 H   0  0  0  0  0  0  0  0  0  0  0  0
   -4.5250   -2.1271   -7.6871 H   0  0  0  0  0  0  0  0  0  0  0  0
   -6.4066   -4.2751   -5.6137 H   0  0  0  0  0  0  0  0  0  0  0  0
   -7.1755   -4.2392   -7.1955 H   0  0  0  0  0  0  0  0  0  0  0  0
   -6.4898   -2.7581   -6.5197 H   0  0  0  0  0  0  0  0  0  0  0  0
   -5.2589   -6.2703   -6.9875 H   0  0  0  0  0  0  0  0  0  0  0  0
   -3.1216   -6.8321   -8.0631 H   0  0  0  0  0  0  0  0  0  0  0  0
    1.0586   -4.2032   -9.6306 H   0  0  0  0  0  0  0  0  0  0  0  0
    1.7193   -2.9983  -11.6613 H   0  0  0  0  0  0  0  0  0  0  0  0
   -0.5138   -1.4827  -13.9945 H   0  0  0  0  0  0  0  0  0  0  0  0
    1.1768   -1.9265  -13.7149 H   0  0  0  0  0  0  0  0  0  0  0  0
    0.1131   -2.9968  -14.6328 H   0  0  0  0  0  0  0  0  0  0  0  0
   -2.2966   -3.1866  -13.0889 H   0  0  0  0  0  0  0  0  0  0  0  0
   -2.9599   -4.4182  -11.0738 H   0  0  0  0  0  0  0  0  0  0  0  0
   -0.3654   -6.5204  -11.0140 H   0  0  0  0  0  0  0  0  0  0  0  0
    4.9579   -9.8414  -11.2835 H   0  0  0  0  0  0  0  0  0  0  0  0
    4.5066   -9.7044  -15.5494 H   0  0  0  0  0  0  0  0  0  0  0  0
    2.3649   -8.5256  -15.3273 H   0  0  0  0  0  0  0  0  0  0  0  0
  1  2  2  0  0  0  0
  2  3  1  0  0  0  0
  3  4  2  0  0  0  0
  3  5  1  0  0  0  0
  5  6  2  0  0  0  0
  6  7  1  0  0  0  0
  7  8  1  0  0  0  0
  8  9  1  0  0  0  0
  8 10  1  0  0  0  0
  8 11  1  0  0  0  0
  7 12  2  0  0  0  0
 12 13  1  0  0  0  0
 13 14  2  0  0  0  0
 14 15  1  0  0  0  0
 15 16  2  0  0  0  0
 16 17  1  0  0  0  0
 17 18  3  0  0  0  0
 16 19  1  0  0  0  0
 19 20  3  0  0  0  0
  1 21  1  0  0  0  0
 21 22  2  0  0  0  0
 22 23  1  0  0  0  0
 23 24  1  0  0  0  0
 24 25  2  0  0  0  0
 25 26  1  0  0  0  0
 26 27  2  0  0  0  0
 27 28  1  0  0  0  0
 27 29  1  0  0  0  0
 29 30  2  0  0  0  0
 23 31  1  0  0  0  0
 31 32  2  0  0  0  0
 32 33  1  0  0  0  0
 33 34  2  0  0  0  0
 34 35  1  0  0  0  0
 34 36  1  0  0  0  0
 36 37  2  0  0  0  0
 22 38  1  0  0  0  0
 38 39  1  0  0  0  0
 39 40  1  0  0  0  0
 40 41  2  0  0  0  0
 41 42  1  0  0  0  0
 42 43  1  0  0  0  0
 43 44  2  0  0  0  0
 44 45  1  0  0  0  0
 45 46  2  0  0  0  0
 46 47  1  0  0  0  0
 46 48  1  0  0  0  0
 48 49  2  0  0  0  0
 42 50  1  0  0  0  0
 50 51  2  0  0  0  0
 51 52  1  0  0  0  0
 52 53  2  0  0  0  0
 53 54  1  0  0  0  0
 53 55  1  0  0  0  0
 55 56  2  0  0  0  0
 41 57  1  0  0  0  0
 57 58  1  0  0  0  0
 40 59  1  0  0  0  0
 59 60  2  0  0  0  0
 60 61  1  0  0  0  0
 61 62  2  0  0  0  0
 62 63  1  0  0  0  0
 63 64  2  0  0  0  0
 64 65  1  0  0  0  0
 65 66  1  0  0  0  0
 66 67  1  0  0  0  0
 65 68  2  0  0  0  0
 60 69  1  0  0  0  0
 69 70  1  0  0  0  0
 70 71  1  0  0  0  0
 71 72  1  0  0  0  0
 72 73  1  0  0  0  0
 73 74  1  0  0  0  0
 74 75  2  0  0  0  0
 75 76  1  0  0  0  0
 76 77  1  0  0  0  0
 74 78  1  0  0  0  0
 78 79  1  0  0  0  0
 79 80  1  0  0  0  0
 80 81  1  0  0  0  0
 81 82  1  0  0  0  0
 82 83  1  0  0  0  0
 83 84  2  0  0  0  0
 84 85  1  0  0  0  0
 85 86  2  0  0  0  0
 86 87  1  0  0  0  0
 87 88  1  0  0  0  0
 88 89  1  0  0  0  0
 87 90  2  0  0  0  0
 82 91  2  0  0  0  0
 91 92  1  0  0  0  0
 92 93  1  0  0  0  0
 93 94  1  0  0  0  0
 94 95  1  0  0  0  0
 95 96  1  0  0  0  0
 96 97  1  0  0  0  0
 97 98  1  0  0  0  0
 98 99  1  0  0  0  0
 99100  1  0  0  0  0
100101  1  0  0  0  0
 98102  1  0  0  0  0
102103  1  0  0  0  0
 95104  1  0  0  0  0
104105  1  0  0  0  0
 91106  1  0  0  0  0
106107  2  0  0  0  0
107108  1  0  0  0  0
108109  1  0  0  0  0
109110  2  0  0  0  0
110111  1  0  0  0  0
111112  2  0  0  0  0
112113  1  0  0  0  0
112114  1  0  0  0  0
114115  2  0  0  0  0
108116  1  0  0  0  0
116117  2  0  0  0  0
117118  1  0  0  0  0
118119  2  0  0  0  0
119120  1  0  0  0  0
119121  1  0  0  0  0
121122  2  0  0  0  0
107123  1  0  0  0  0
123124  1  0  0  0  0
124125  1  0  0  0  0
125126  2  0  0  0  0
126127  1  0  0  0  0
127128  1  0  0  0  0
128129  2  0  0  0  0
129130  1  0  0  0  0
130131  2  0  0  0  0
131132  1  0  0  0  0
131133  1  0  0  0  0
133134  2  0  0  0  0
127135  1  0  0  0  0
135136  2  0  0  0  0
136137  1  0  0  0  0
137138  2  0  0  0  0
138139  1  0  0  0  0
138140  1  0  0  0  0
140141  2  0  0  0  0
126142  1  0  0  0  0
142143  1  0  0  0  0
125144  1  0  0  0  0
144145  2  0  0  0  0
145146  1  0  0  0  0
146147  2  0  0  0  0
146148  1  0  0  0  0
148149  2  0  0  0  0
149150  1  0  0  0  0
150151  1  0  0  0  0
151152  1  0  0  0  0
151153  1  0  0  0  0
151154  1  0  0  0  0
150155  2  0  0  0  0
155156  1  0  0  0  0
156157  2  0  0  0  0
157158  1  0  0  0  0
158159  2  0  0  0  0
159160  1  0  0  0  0
160161  3  0  0  0  0
159162  1  0  0  0  0
162163  3  0  0  0  0
 15  2  1  0  0  0  0
 58 21  1  0  0  0  0
101 59  1  0  0  0  0
143106  1  0  0  0  0
158145  1  0  0  0  0
 14  5  1  0  0  0  0
 30 24  1  0  0  0  0
 37 31  1  0  0  0  0
 57 38  2  0  0  0  0
 68 61  1  0  0  0  0
100 69  2  0  0  0  0
115109  1  0  0  0  0
122116  1  0  0  0  0
142123  2  0  0  0  0
157148  1  0  0  0  0
 49 43  1  0  0  0  0
 56 50  1  0  0  0  0
 99 71  2  0  0  0  0
134128  1  0  0  0  0
141135  1  0  0  0  0
 97 72  2  0  0  0  0
 77 73  2  0  0  0  0
 96 78  2  0  0  0  0
 94 79  2  0  0  0  0
 93 81  2  0  0  0  0
 90 83  1  0  0  0  0
  1164  1  0  0  0  0
  6165  1  0  0  0  0
 12166  1  0  0  0  0
 13167  1  0  0  0  0
 25168  1  0  0  0  0
 26169  1  0  0  0  0
 28170  1  0  0  0  0
 28171  1  0  0  0  0
 28172  1  0  0  0  0
 29173  1  0  0  0  0
 30174  1  0  0  0  0
 32175  1  0  0  0  0
 33176  1  0  0  0  0
 35177  1  0  0  0  0
 35178  1  0  0  0  0
 35179  1  0  0  0  0
 36180  1  0  0  0  0
 37181  1  0  0  0  0
 44182  1  0  0  0  0
 45183  1  0  0  0  0
 47184  1  0  0  0  0
 47185  1  0  0  0  0
 47186  1  0  0  0  0
 48187  1  0  0  0  0
 49188  1  0  0  0  0
 51189  1  0  0  0  0
 52190  1  0  0  0  0
 54191  1  0  0  0  0
 54192  1  0  0  0  0
 54193  1  0  0  0  0
 55194  1  0  0  0  0
 56195  1  0  0  0  0
 62196  1  0  0  0  0
 63197  1  0  0  0  0
 64198  1  0  0  0  0
 66199  1  0  0  0  0
 66200  1  0  0  0  0
 67201  1  0  0  0  0
 67202  1  0  0  0  0
 67203  1  0  0  0  0
 68204  1  0  0  0  0
 84205  1  0  0  0  0
 85206  1  0  0  0  0
 86207  1  0  0  0  0
 88208  1  0  0  0  0
 88209  1  0  0  0  0
 89210  1  0  0  0  0
 89211  1  0  0  0  0
 89212  1  0  0  0  0
 90213  1  0  0  0  0
102214  1  0  0  0  0
102215  1  0  0  0  0
103216  1  0  0  0  0
103217  1  0  0  0  0
103218  1  0  0  0  0
104219  1  0  0  0  0
104220  1  0  0  0  0
105221  1  0  0  0  0
105222  1  0  0  0  0
105223  1  0  0  0  0
110224  1  0  0  0  0
111225  1  0  0  0  0
113226  1  0  0  0  0
113227  1  0  0  0  0
113228  1  0  0  0  0
114229  1  0  0  0  0
115230  1  0  0  0  0
117231  1  0  0  0  0
118232  1  0  0  0  0
120233  1  0  0  0  0
120234  1  0  0  0  0
120235  1  0  0  0  0
121236  1  0  0  0  0
122237  1  0  0  0  0
129238  1  0  0  0  0
130239  1  0  0  0  0
132240  1  0  0  0  0
132241  1  0  0  0  0
132242  1  0  0  0  0
133243  1  0  0  0  0
134244  1  0  0  0  0
136245  1  0  0  0  0
137246  1  0  0  0  0
139247  1  0  0  0  0
139248  1  0  0  0  0
139249  1  0  0  0  0
140250  1  0  0  0  0
141251  1  0  0  0  0
144252  1  0  0  0  0
149253  1  0  0  0  0
155254  1  0  0  0  0
156255  1  0  0  0  0
M  END
