
  xtb     02252201573D
 energy: -350.192042778351 gnorm: 0.000329189080 xtb: 6.4.1 (unknown)
199219  0     0  0            999 V2000
    8.6438    6.8283    8.2962 C   0  0  0  0  0  0  0  0  0  0  0  0
    8.0028    7.6761    9.1497 C   0  0  0  0  0  0  0  0  0  0  0  0
    6.5828    7.5772    9.5759 C   0  0  0  0  0  0  0  0  0  0  0  0
    5.8050    6.6632    9.4269 O   0  0  0  0  0  0  0  0  0  0  0  0
    6.2624    8.8988   10.1670 C   0  0  0  0  0  0  0  0  0  0  0  0
    5.0491    9.3372   10.6583 C   0  0  0  0  0  0  0  0  0  0  0  0
    4.9877   10.6346   11.1531 C   0  0  0  0  0  0  0  0  0  0  0  0
    3.7052   11.1755   11.7239 C   0  0  0  0  0  0  0  0  0  0  0  0
    3.7615   11.2849   13.0649 F   0  0  0  0  0  0  0  0  0  0  0  0
    2.6420   10.4112   11.4499 F   0  0  0  0  0  0  0  0  0  0  0  0
    3.4240   12.4058   11.2624 F   0  0  0  0  0  0  0  0  0  0  0  0
    6.1091   11.4597   11.1522 C   0  0  0  0  0  0  0  0  0  0  0  0
    7.3242   11.0117   10.6569 C   0  0  0  0  0  0  0  0  0  0  0  0
    7.4024    9.7180   10.1612 C   0  0  0  0  0  0  0  0  0  0  0  0
    8.5138    8.9661    9.5811 C   0  0  0  0  0  0  0  0  0  0  0  0
    9.8170    9.3824    9.5340 C   0  0  0  0  0  0  0  0  0  0  0  0
   10.8977    8.6058    9.0613 C   0  0  0  0  0  0  0  0  0  0  0  0
   11.8299    8.0333    8.7135 N   0  0  0  0  0  0  0  0  0  0  0  0
   10.2629   10.6423    9.9873 C   0  0  0  0  0  0  0  0  0  0  0  0
   10.6841   11.6529   10.3313 N   0  0  0  0  0  0  0  0  0  0  0  0
    8.2307    5.5250    7.8674 C   0  0  0  0  0  0  0  0  0  0  0  0
    7.5331    4.6271    8.6886 C   0  0  0  0  0  0  0  0  0  0  0  0
    7.1394    3.3997    8.2146 C   0  0  0  0  0  0  0  0  0  0  0  0
    7.4080    3.0200    6.8924 C   0  0  0  0  0  0  0  0  0  0  0  0
    8.1323    3.9035    6.0799 C   0  0  0  0  0  0  0  0  0  0  0  0
    8.5617    5.1127    6.5658 C   0  0  0  0  0  0  0  0  0  0  0  0
    6.8983    1.7852    6.3536 C   0  0  0  0  0  0  0  0  0  0  0  0
    6.5801    0.6047    6.9980 C   0  0  0  0  0  0  0  0  0  0  0  0
    6.9378    0.2561    8.3743 C   0  0  0  0  0  0  0  0  0  0  0  0
    8.2157    0.5181    8.8646 C   0  0  0  0  0  0  0  0  0  0  0  0
    8.5493    0.1368   10.1492 C   0  0  0  0  0  0  0  0  0  0  0  0
    7.6228   -0.5089   10.9511 C   0  0  0  0  0  0  0  0  0  0  0  0
    6.3459   -0.7797   10.4773 C   0  0  0  0  0  0  0  0  0  0  0  0
    5.3481   -1.5271   11.3132 C   0  0  0  0  0  0  0  0  0  0  0  0
    5.3543   -3.0113   10.9414 C   0  0  0  0  0  0  0  0  0  0  0  0
    6.0159   -0.3944    9.1862 C   0  0  0  0  0  0  0  0  0  0  0  0
    5.9241   -0.2939    6.1308 C   0  0  0  0  0  0  0  0  0  0  0  0
    5.2454   -1.8877    6.3682 S   0  0  0  0  0  0  0  0  0  0  0  0
    4.7049   -1.8757    4.7246 C   0  0  0  0  0  0  0  0  0  0  0  0
    3.9563   -2.6730    3.8449 C   0  0  0  0  0  0  0  0  0  0  0  0
    3.3957   -3.9564    4.0167 C   0  0  0  0  0  0  0  0  0  0  0  0
    2.6513   -4.5362    2.9378 C   0  0  0  0  0  0  0  0  0  0  0  0
    2.2006   -5.7471    3.2267 N   0  0  0  0  0  0  0  0  0  0  0  0
    2.6730   -6.1243    4.7286 S   0  0  0  0  0  0  0  0  0  0  0  0
    3.4678   -4.7553    5.0701 N   0  0  0  0  0  0  0  0  0  0  0  0
    2.4335   -3.7690    1.7733 C   0  0  0  0  0  0  0  0  0  0  0  0
    1.5955   -4.0030    0.6723 C   0  0  0  0  0  0  0  0  0  0  0  0
    0.4655   -5.1901    0.1105 S   0  0  0  0  0  0  0  0  0  0  0  0
    0.0094   -4.1084   -1.1854 C   0  0  0  0  0  0  0  0  0  0  0  0
   -0.9672   -4.1845   -2.1963 C   0  0  0  0  0  0  0  0  0  0  0  0
   -1.8634   -5.3189   -2.4157 C   0  0  0  0  0  0  0  0  0  0  0  0
   -2.5191   -5.9219   -1.3469 C   0  0  0  0  0  0  0  0  0  0  0  0
   -3.3929   -6.9666   -1.5793 C   0  0  0  0  0  0  0  0  0  0  0  0
   -3.6254   -7.4121   -2.8685 C   0  0  0  0  0  0  0  0  0  0  0  0
   -2.9608   -6.8378   -3.9445 C   0  0  0  0  0  0  0  0  0  0  0  0
   -3.2313   -7.2800   -5.3537 C   0  0  0  0  0  0  0  0  0  0  0  0
   -4.2496   -6.3446   -6.0080 C   0  0  0  0  0  0  0  0  0  0  0  0
   -2.0759   -5.7994   -3.7042 C   0  0  0  0  0  0  0  0  0  0  0  0
   -0.9843   -3.0364   -2.9706 C   0  0  0  0  0  0  0  0  0  0  0  0
    0.2403   -1.8739   -2.4714 S   0  0  0  0  0  0  0  0  0  0  0  0
    0.7384   -2.9179   -1.1898 C   0  0  0  0  0  0  0  0  0  0  0  0
    1.6436   -2.8569   -0.1229 C   0  0  0  0  0  0  0  0  0  0  0  0
    2.5061   -1.9439    0.4187 N   0  0  0  0  0  0  0  0  0  0  0  0
    2.9943   -2.4694    1.6049 C   0  0  0  0  0  0  0  0  0  0  0  0
    3.8385   -1.9499    2.6234 C   0  0  0  0  0  0  0  0  0  0  0  0
    4.5468   -0.7629    2.7546 N   0  0  0  0  0  0  0  0  0  0  0  0
    5.0546   -0.7193    4.0264 C   0  0  0  0  0  0  0  0  0  0  0  0
    5.7589    0.1859    4.8302 C   0  0  0  0  0  0  0  0  0  0  0  0
    6.4389    1.7626    4.6554 S   0  0  0  0  0  0  0  0  0  0  0  0
    5.1142    0.1042    1.7452 C   0  0  0  0  0  0  0  0  0  0  0  0
    5.9789   -0.6779    0.7595 C   0  0  0  0  0  0  0  0  0  0  0  0
    2.5071   -0.5922   -0.0895 C   0  0  0  0  0  0  0  0  0  0  0  0
    1.7187    0.3487    0.8188 C   0  0  0  0  0  0  0  0  0  0  0  0
   -1.9830   -2.6127   -3.8904 C   0  0  0  0  0  0  0  0  0  0  0  0
   -1.8715   -1.6145   -4.8541 C   0  0  0  0  0  0  0  0  0  0  0  0
   -0.6713   -1.0724   -5.2805 N   0  0  0  0  0  0  0  0  0  0  0  0
   -0.6225    0.2913   -5.6083 C   0  0  0  0  0  0  0  0  0  0  0  0
   -1.3018    1.2187   -4.8231 C   0  0  0  0  0  0  0  0  0  0  0  0
   -1.2733    2.5596   -5.1514 C   0  0  0  0  0  0  0  0  0  0  0  0
   -0.5637    3.0122   -6.2563 C   0  0  0  0  0  0  0  0  0  0  0  0
   -0.5509    4.4642   -6.6234 C   0  0  0  0  0  0  0  0  0  0  0  0
    0.1176    2.0792   -7.0301 C   0  0  0  0  0  0  0  0  0  0  0  0
    0.0890    0.7351   -6.7195 C   0  0  0  0  0  0  0  0  0  0  0  0
    0.4290   -1.9098   -5.5106 C   0  0  0  0  0  0  0  0  0  0  0  0
    1.7241   -1.4501   -5.2856 C   0  0  0  0  0  0  0  0  0  0  0  0
    2.8040   -2.2885   -5.4837 C   0  0  0  0  0  0  0  0  0  0  0  0
    2.6288   -3.6018   -5.8990 C   0  0  0  0  0  0  0  0  0  0  0  0
    3.7938   -4.5222   -6.0973 C   0  0  0  0  0  0  0  0  0  0  0  0
    1.3326   -4.0515   -6.1279 C   0  0  0  0  0  0  0  0  0  0  0  0
    0.2468   -3.2213   -5.9443 C   0  0  0  0  0  0  0  0  0  0  0  0
   -3.1390   -1.2598   -5.3637 C   0  0  0  0  0  0  0  0  0  0  0  0
   -3.6716   -0.1079   -6.5300 S   0  0  0  0  0  0  0  0  0  0  0  0
   -5.3625   -0.5508   -6.2228 C   0  0  0  0  0  0  0  0  0  0  0  0
   -5.4647   -1.6671   -5.3523 C   0  0  0  0  0  0  0  0  0  0  0  0
   -6.5787   -2.4056   -5.1102 N   0  0  0  0  0  0  0  0  0  0  0  0
   -6.6240   -3.2546   -3.9783 C   0  0  0  0  0  0  0  0  0  0  0  0
   -6.9750   -4.5896   -4.1377 C   0  0  0  0  0  0  0  0  0  0  0  0
   -6.9967   -5.4303   -3.0415 C   0  0  0  0  0  0  0  0  0  0  0  0
   -6.6834   -4.9594   -1.7727 C   0  0  0  0  0  0  0  0  0  0  0  0
   -6.7190   -5.8646   -0.5816 C   0  0  0  0  0  0  0  0  0  0  0  0
   -6.3675   -3.6133   -1.6230 C   0  0  0  0  0  0  0  0  0  0  0  0
   -6.3366   -2.7623   -2.7097 C   0  0  0  0  0  0  0  0  0  0  0  0
   -7.7026   -2.4092   -5.9516 C   0  0  0  0  0  0  0  0  0  0  0  0
   -7.5739   -2.4286   -7.3392 C   0  0  0  0  0  0  0  0  0  0  0  0
   -8.6970   -2.3909   -8.1381 C   0  0  0  0  0  0  0  0  0  0  0  0
   -9.9751   -2.3332   -7.5857 C   0  0  0  0  0  0  0  0  0  0  0  0
  -11.1782   -2.2281   -8.4683 C   0  0  0  0  0  0  0  0  0  0  0  0
  -10.0954   -2.3641   -6.2028 C   0  0  0  0  0  0  0  0  0  0  0  0
   -8.9776   -2.4072   -5.3902 C   0  0  0  0  0  0  0  0  0  0  0  0
   -4.1928   -1.9988   -4.8375 C   0  0  0  0  0  0  0  0  0  0  0  0
   -3.6313   -3.1876   -3.7061 S   0  0  0  0  0  0  0  0  0  0  0  0
   -6.3362    0.2360   -6.8223 C   0  0  0  0  0  0  0  0  0  0  0  0
   -7.6422    0.3833   -6.3777 C   0  0  0  0  0  0  0  0  0  0  0  0
   -8.0400    0.2195   -4.9776 C   0  0  0  0  0  0  0  0  0  0  0  0
   -7.3425   -0.0985   -4.0316 O   0  0  0  0  0  0  0  0  0  0  0  0
   -9.4584    0.6522   -4.9183 C   0  0  0  0  0  0  0  0  0  0  0  0
  -10.3006    0.6988   -3.8302 C   0  0  0  0  0  0  0  0  0  0  0  0
  -11.6038    1.1448   -4.0412 C   0  0  0  0  0  0  0  0  0  0  0  0
  -12.5666    1.1570   -2.8881 C   0  0  0  0  0  0  0  0  0  0  0  0
  -11.9716    1.4225   -1.7159 F   0  0  0  0  0  0  0  0  0  0  0  0
  -13.5494    2.0575   -3.0311 F   0  0  0  0  0  0  0  0  0  0  0  0
  -13.1749   -0.0387   -2.7343 F   0  0  0  0  0  0  0  0  0  0  0  0
  -12.0346    1.5349   -5.3025 C   0  0  0  0  0  0  0  0  0  0  0  0
  -11.1750    1.4911   -6.3930 C   0  0  0  0  0  0  0  0  0  0  0  0
   -9.8808    1.0408   -6.2000 C   0  0  0  0  0  0  0  0  0  0  0  0
   -8.7636    0.8543   -7.1295 C   0  0  0  0  0  0  0  0  0  0  0  0
   -8.8349    0.9575   -8.4993 C   0  0  0  0  0  0  0  0  0  0  0  0
   -9.9962    1.3216   -9.2025 C   0  0  0  0  0  0  0  0  0  0  0  0
  -10.9220    1.5984   -9.8248 N   0  0  0  0  0  0  0  0  0  0  0  0
   -7.7733    0.6272   -9.3636 C   0  0  0  0  0  0  0  0  0  0  0  0
   -6.9601    0.3441  -10.1241 N   0  0  0  0  0  0  0  0  0  0  0  0
    9.5489    7.1929    7.8228 H   0  0  0  0  0  0  0  0  0  0  0  0
    4.1862    8.6893   10.6503 H   0  0  0  0  0  0  0  0  0  0  0  0
    6.0260   12.4641   11.5389 H   0  0  0  0  0  0  0  0  0  0  0  0
    8.1764   11.6708   10.6591 H   0  0  0  0  0  0  0  0  0  0  0  0
    7.3199    4.8915    9.7106 H   0  0  0  0  0  0  0  0  0  0  0  0
    6.5888    2.7316    8.8574 H   0  0  0  0  0  0  0  0  0  0  0  0
    8.3605    3.6176    5.0628 H   0  0  0  0  0  0  0  0  0  0  0  0
    9.1251    5.7789    5.9285 H   0  0  0  0  0  0  0  0  0  0  0  0
    8.9414    1.0097    8.2335 H   0  0  0  0  0  0  0  0  0  0  0  0
    9.5408    0.3388   10.5269 H   0  0  0  0  0  0  0  0  0  0  0  0
    7.8945   -0.8063   11.9536 H   0  0  0  0  0  0  0  0  0  0  0  0
    4.3484   -1.1202   11.1470 H   0  0  0  0  0  0  0  0  0  0  0  0
    5.5914   -1.4166   12.3715 H   0  0  0  0  0  0  0  0  0  0  0  0
    5.1034   -3.1401    9.8910 H   0  0  0  0  0  0  0  0  0  0  0  0
    4.6299   -3.5562   11.5422 H   0  0  0  0  0  0  0  0  0  0  0  0
    6.3396   -3.4391   11.1123 H   0  0  0  0  0  0  0  0  0  0  0  0
    5.0213   -0.5888    8.8123 H   0  0  0  0  0  0  0  0  0  0  0  0
   -2.3526   -5.5612   -0.3433 H   0  0  0  0  0  0  0  0  0  0  0  0
   -3.8985   -7.4357   -0.7486 H   0  0  0  0  0  0  0  0  0  0  0  0
   -4.3201   -8.2213   -3.0419 H   0  0  0  0  0  0  0  0  0  0  0  0
   -2.3045   -7.2662   -5.9314 H   0  0  0  0  0  0  0  0  0  0  0  0
   -3.6215   -8.2993   -5.3579 H   0  0  0  0  0  0  0  0  0  0  0  0
   -3.8733   -5.3238   -6.0220 H   0  0  0  0  0  0  0  0  0  0  0  0
   -4.4545   -6.6551   -7.0300 H   0  0  0  0  0  0  0  0  0  0  0  0
   -5.1790   -6.3523   -5.4440 H   0  0  0  0  0  0  0  0  0  0  0  0
   -1.5334   -5.3558   -4.5272 H   0  0  0  0  0  0  0  0  0  0  0  0
    4.3354    0.6718    1.2358 H   0  0  0  0  0  0  0  0  0  0  0  0
    5.7388    0.8273    2.2757 H   0  0  0  0  0  0  0  0  0  0  0  0
    6.3837   -0.0068    0.0066 H   0  0  0  0  0  0  0  0  0  0  0  0
    5.4048   -1.4584    0.2651 H   0  0  0  0  0  0  0  0  0  0  0  0
    6.8065   -1.1492    1.2847 H   0  0  0  0  0  0  0  0  0  0  0  0
    3.5274   -0.2446   -0.2468 H   0  0  0  0  0  0  0  0  0  0  0  0
    2.0266   -0.6294   -1.0706 H   0  0  0  0  0  0  0  0  0  0  0  0
    1.7568    1.3622    0.4287 H   0  0  0  0  0  0  0  0  0  0  0  0
    0.6787    0.0337    0.8607 H   0  0  0  0  0  0  0  0  0  0  0  0
    2.1157    0.3428    1.8313 H   0  0  0  0  0  0  0  0  0  0  0  0
   -1.8464    0.8827   -3.9526 H   0  0  0  0  0  0  0  0  0  0  0  0
   -1.8078    3.2669   -4.5338 H   0  0  0  0  0  0  0  0  0  0  0  0
    0.4059    4.7465   -7.0570 H   0  0  0  0  0  0  0  0  0  0  0  0
   -1.3265    4.6669   -7.3627 H   0  0  0  0  0  0  0  0  0  0  0  0
   -0.7433    5.0877   -5.7535 H   0  0  0  0  0  0  0  0  0  0  0  0
    0.6710    2.4100   -7.8970 H   0  0  0  0  0  0  0  0  0  0  0  0
    0.6116    0.0212   -7.3387 H   0  0  0  0  0  0  0  0  0  0  0  0
    1.8750   -0.4355   -4.9483 H   0  0  0  0  0  0  0  0  0  0  0  0
    3.8015   -1.9148   -5.3019 H   0  0  0  0  0  0  0  0  0  0  0  0
    3.7647   -4.9659   -7.0914 H   0  0  0  0  0  0  0  0  0  0  0  0
    4.7348   -3.9910   -5.9800 H   0  0  0  0  0  0  0  0  0  0  0  0
    3.7618   -5.3341   -5.3709 H   0  0  0  0  0  0  0  0  0  0  0  0
    1.1749   -5.0664   -6.4640 H   0  0  0  0  0  0  0  0  0  0  0  0
   -0.7515   -3.5815   -6.1472 H   0  0  0  0  0  0  0  0  0  0  0  0
   -7.2253   -4.9594   -5.1217 H   0  0  0  0  0  0  0  0  0  0  0  0
   -7.2593   -6.4696   -3.1753 H   0  0  0  0  0  0  0  0  0  0  0  0
   -7.6242   -5.6829   -0.0015 H   0  0  0  0  0  0  0  0  0  0  0  0
   -6.7125   -6.9079   -0.8854 H   0  0  0  0  0  0  0  0  0  0  0  0
   -5.8649   -5.6772    0.0653 H   0  0  0  0  0  0  0  0  0  0  0  0
   -6.1457   -3.2266   -0.6393 H   0  0  0  0  0  0  0  0  0  0  0  0
   -6.1175   -1.7125   -2.5923 H   0  0  0  0  0  0  0  0  0  0  0  0
   -6.5935   -2.4689   -7.7896 H   0  0  0  0  0  0  0  0  0  0  0  0
   -8.5817   -2.3983   -9.2120 H   0  0  0  0  0  0  0  0  0  0  0  0
  -11.1046   -2.9210   -9.3039 H   0  0  0  0  0  0  0  0  0  0  0  0
  -11.2541   -1.2215   -8.8817 H   0  0  0  0  0  0  0  0  0  0  0  0
  -12.0887   -2.4368   -7.9128 H   0  0  0  0  0  0  0  0  0  0  0  0
  -11.0760   -2.3413   -5.7500 H   0  0  0  0  0  0  0  0  0  0  0  0
   -9.0840   -2.4258   -4.3160 H   0  0  0  0  0  0  0  0  0  0  0  0
   -6.0125    0.8271   -7.6706 H   0  0  0  0  0  0  0  0  0  0  0  0
   -9.9585    0.3995   -2.8514 H   0  0  0  0  0  0  0  0  0  0  0  0
  -13.0479    1.8823   -5.4345 H   0  0  0  0  0  0  0  0  0  0  0  0
  -11.5262    1.8096   -7.3607 H   0  0  0  0  0  0  0  0  0  0  0  0
  1  2  2  0  0  0  0
  2  3  1  0  0  0  0
  3  4  2  0  0  0  0
  3  5  1  0  0  0  0
  5  6  2  0  0  0  0
  6  7  1  0  0  0  0
  7  8  1  0  0  0  0
  8  9  1  0  0  0  0
  8 10  1  0  0  0  0
  8 11  1  0  0  0  0
  7 12  2  0  0  0  0
 12 13  1  0  0  0  0
 13 14  2  0  0  0  0
 14 15  1  0  0  0  0
 15 16  2  0  0  0  0
 16 17  1  0  0  0  0
 17 18  3  0  0  0  0
 16 19  1  0  0  0  0
 19 20  3  0  0  0  0
  1 21  1  0  0  0  0
 21 22  2  0  0  0  0
 22 23  1  0  0  0  0
 23 24  2  0  0  0  0
 24 25  1  0  0  0  0
 25 26  2  0  0  0  0
 24 27  1  0  0  0  0
 27 28  2  0  0  0  0
 28 29  1  0  0  0  0
 29 30  2  0  0  0  0
 30 31  1  0  0  0  0
 31 32  2  0  0  0  0
 32 33  1  0  0  0  0
 33 34  1  0  0  0  0
 34 35  1  0  0  0  0
 33 36  2  0  0  0  0
 28 37  1  0  0  0  0
 37 38  1  0  0  0  0
 38 39  1  0  0  0  0
 39 40  1  0  0  0  0
 40 41  1  0  0  0  0
 41 42  1  0  0  0  0
 42 43  2  0  0  0  0
 43 44  1  0  0  0  0
 44 45  1  0  0  0  0
 42 46  1  0  0  0  0
 46 47  1  0  0  0  0
 47 48  1  0  0  0  0
 48 49  1  0  0  0  0
 49 50  1  0  0  0  0
 50 51  1  0  0  0  0
 51 52  2  0  0  0  0
 52 53  1  0  0  0  0
 53 54  2  0  0  0  0
 54 55  1  0  0  0  0
 55 56  1  0  0  0  0
 56 57  1  0  0  0  0
 55 58  2  0  0  0  0
 50 59  2  0  0  0  0
 59 60  1  0  0  0  0
 60 61  1  0  0  0  0
 61 62  1  0  0  0  0
 62 63  1  0  0  0  0
 63 64  1  0  0  0  0
 64 65  1  0  0  0  0
 65 66  1  0  0  0  0
 66 67  1  0  0  0  0
 67 68  1  0  0  0  0
 68 69  1  0  0  0  0
 66 70  1  0  0  0  0
 70 71  1  0  0  0  0
 63 72  1  0  0  0  0
 72 73  1  0  0  0  0
 59 74  1  0  0  0  0
 74 75  2  0  0  0  0
 75 76  1  0  0  0  0
 76 77  1  0  0  0  0
 77 78  2  0  0  0  0
 78 79  1  0  0  0  0
 79 80  2  0  0  0  0
 80 81  1  0  0  0  0
 80 82  1  0  0  0  0
 82 83  2  0  0  0  0
 76 84  1  0  0  0  0
 84 85  2  0  0  0  0
 85 86  1  0  0  0  0
 86 87  2  0  0  0  0
 87 88  1  0  0  0  0
 87 89  1  0  0  0  0
 89 90  2  0  0  0  0
 75 91  1  0  0  0  0
 91 92  1  0  0  0  0
 92 93  1  0  0  0  0
 93 94  2  0  0  0  0
 94 95  1  0  0  0  0
 95 96  1  0  0  0  0
 96 97  2  0  0  0  0
 97 98  1  0  0  0  0
 98 99  2  0  0  0  0
 99100  1  0  0  0  0
 99101  1  0  0  0  0
101102  2  0  0  0  0
 95103  1  0  0  0  0
103104  2  0  0  0  0
104105  1  0  0  0  0
105106  2  0  0  0  0
106107  1  0  0  0  0
106108  1  0  0  0  0
108109  2  0  0  0  0
 94110  1  0  0  0  0
110111  1  0  0  0  0
 93112  1  0  0  0  0
112113  2  0  0  0  0
113114  1  0  0  0  0
114115  2  0  0  0  0
114116  1  0  0  0  0
116117  2  0  0  0  0
117118  1  0  0  0  0
118119  1  0  0  0  0
119120  1  0  0  0  0
119121  1  0  0  0  0
119122  1  0  0  0  0
118123  2  0  0  0  0
123124  1  0  0  0  0
124125  2  0  0  0  0
125126  1  0  0  0  0
126127  2  0  0  0  0
127128  1  0  0  0  0
128129  3  0  0  0  0
127130  1  0  0  0  0
130131  3  0  0  0  0
 15  2  1  0  0  0  0
 26 21  1  0  0  0  0
 69 27  1  0  0  0  0
111 74  1  0  0  0  0
126113  1  0  0  0  0
 14  5  1  0  0  0  0
 36 29  1  0  0  0  0
 68 37  2  0  0  0  0
 83 77  1  0  0  0  0
 90 84  1  0  0  0  0
110 91  2  0  0  0  0
125116  1  0  0  0  0
 67 39  2  0  0  0  0
102 96  1  0  0  0  0
109103  1  0  0  0  0
 65 40  2  0  0  0  0
 45 41  2  0  0  0  0
 64 46  2  0  0  0  0
 62 47  2  0  0  0  0
 61 49  2  0  0  0  0
 58 51  1  0  0  0  0
  1132  1  0  0  0  0
  6133  1  0  0  0  0
 12134  1  0  0  0  0
 13135  1  0  0  0  0
 22136  1  0  0  0  0
 23137  1  0  0  0  0
 25138  1  0  0  0  0
 26139  1  0  0  0  0
 30140  1  0  0  0  0
 31141  1  0  0  0  0
 32142  1  0  0  0  0
 34143  1  0  0  0  0
 34144  1  0  0  0  0
 35145  1  0  0  0  0
 35146  1  0  0  0  0
 35147  1  0  0  0  0
 36148  1  0  0  0  0
 52149  1  0  0  0  0
 53150  1  0  0  0  0
 54151  1  0  0  0  0
 56152  1  0  0  0  0
 56153  1  0  0  0  0
 57154  1  0  0  0  0
 57155  1  0  0  0  0
 57156  1  0  0  0  0
 58157  1  0  0  0  0
 70158  1  0  0  0  0
 70159  1  0  0  0  0
 71160  1  0  0  0  0
 71161  1  0  0  0  0
 71162  1  0  0  0  0
 72163  1  0  0  0  0
 72164  1  0  0  0  0
 73165  1  0  0  0  0
 73166  1  0  0  0  0
 73167  1  0  0  0  0
 78168  1  0  0  0  0
 79169  1  0  0  0  0
 81170  1  0  0  0  0
 81171  1  0  0  0  0
 81172  1  0  0  0  0
 82173  1  0  0  0  0
 83174  1  0  0  0  0
 85175  1  0  0  0  0
 86176  1  0  0  0  0
 88177  1  0  0  0  0
 88178  1  0  0  0  0
 88179  1  0  0  0  0
 89180  1  0  0  0  0
 90181  1  0  0  0  0
 97182  1  0  0  0  0
 98183  1  0  0  0  0
100184  1  0  0  0  0
100185  1  0  0  0  0
100186  1  0  0  0  0
101187  1  0  0  0  0
102188  1  0  0  0  0
104189  1  0  0  0  0
105190  1  0  0  0  0
107191  1  0  0  0  0
107192  1  0  0  0  0
107193  1  0  0  0  0
108194  1  0  0  0  0
109195  1  0  0  0  0
112196  1  0  0  0  0
117197  1  0  0  0  0
123198  1  0  0  0  0
124199  1  0  0  0  0
M  END
