252

C          9.71340       -6.36060       -0.56620
C          9.25700       -7.34830        0.27650
C         10.18140       -8.38650        0.76760
O         11.38830       -8.41310        0.65750
C          9.30810       -9.41880        1.38430
C          9.65370      -10.64470        1.91280
C          8.62830      -11.44530        2.40760
C          8.93130      -12.78560        3.01620
F          8.76170      -12.78180        4.35310
F          8.12320      -13.75290        2.54570
F         10.18530      -13.19810        2.79640
C          7.30270      -11.02470        2.37200
C          6.96310       -9.78550        1.84870
C          7.97350       -8.97720        1.35500
C          7.94410       -7.62620        0.79040
C          6.93240       -6.71430        0.98740
C          5.67540       -7.03050        1.53320
N          4.62380       -7.23400        1.94830
C          7.08450       -5.33500        0.74910
N          7.19520       -4.19620        0.63600
C          8.95020       -5.58580       -1.44520
C          9.21860       -4.28620       -1.92360
N         10.33590       -3.55180       -1.66070
C         11.60330       -4.14550       -1.54560
C         12.49200       -3.71970       -0.56320
C         13.73340       -4.31450       -0.45190
C         14.11930       -5.33940       -1.30790
C         15.44400       -6.01640       -1.15330
C         13.23070       -5.74460       -2.29850
C         11.98880       -5.15640       -2.42410
C         10.21580       -2.15750       -1.48030
C          9.17840       -1.64180       -0.70750
C          9.05960       -0.27640       -0.54680
C          9.96650        0.59910       -1.13500
C          9.80610        2.07900       -0.97350
C         11.00890        0.06910       -1.88540
C         11.13760       -1.29500       -2.06210
C          8.10620       -3.78040       -2.63580
S          7.73290       -2.25380       -3.36180
C          6.15150       -2.84390       -3.83590
C          5.91470       -4.14690       -3.41530
N          4.70630       -4.81380       -3.50750
C          3.50250       -4.12700       -3.28410
C          2.36240       -4.44850       -4.01660
C          1.20370       -3.71660       -3.85560
C          1.14120       -2.65500       -2.95980
C         -0.11510       -1.85190       -2.81230
C          2.26410       -2.37890       -2.19170
C          3.42980       -3.10510       -2.34130
C          4.71040       -6.20270       -3.69590
C          5.64690       -6.79370       -4.53890
C          5.65770       -8.16410       -4.71390
C          4.74130       -8.97770       -4.06280
C          4.75180      -10.46510       -4.24150
C          3.80870       -8.37810       -3.22190
C          3.78990       -7.01220       -3.03340
C          7.05420       -4.67290       -2.76920
S          7.38860       -6.18760       -2.01960
C          5.18260       -1.99080       -4.45660
C          4.33480       -2.31980       -5.49790
C          4.56640       -3.45580       -6.38620
C          3.50380       -4.14220       -6.96790
C          3.74500       -5.23910       -7.77330
C          5.03990       -5.65490       -8.02290
C          6.11630       -4.95950       -7.48450
C          7.52600       -5.36360       -7.81150
C          7.95750       -4.75940       -9.14880
C          5.86770       -3.86340       -6.67530
C          3.25790       -1.40800       -5.57580
S          1.79410       -1.35750       -6.52790
C          1.24010       -0.01380       -5.58750
C          0.07590        0.75780       -5.40610
C         -1.15380        0.82040       -6.09750
C         -2.17730        1.71740       -5.62750
N         -3.26220        1.68420       -6.38490
S         -3.02210        0.62280       -7.58510
N         -1.52520        0.15600       -7.18010
C         -1.97930        2.40960       -4.41170
C         -2.87440        3.08440       -3.56280
S         -4.55180        3.50740       -3.50080
C         -4.37580        3.91630       -1.81120
C         -5.29890        4.25460       -0.79560
C         -6.71800        4.53830       -0.99170
C         -7.37520        5.45980       -0.17670
C         -8.71870        5.71780       -0.36490
C         -9.42460        5.06730       -1.36270
C         -8.78330        4.16370       -2.19870
C         -9.51360        3.49360       -3.32640
C         -9.25610        4.23420       -4.64000
C         -7.43210        3.91630       -2.01020
C         -4.67370        4.31790        0.43560
S         -2.93460        4.09900        0.33190
C         -3.06410        3.77930       -1.35860
C         -2.20260        3.31580       -2.36090
N         -0.91410        2.86100       -2.44890
C         -0.75340        2.30200       -3.70190
C          0.32280        1.59170       -4.28440
N          1.62350        1.39700       -3.85110
C          2.16280        0.40160       -4.62680
C          3.31780       -0.38770       -4.62690
S          4.73410       -0.49590       -3.64970
C          2.48280        2.36770       -3.20790
C          3.45550        2.99660       -4.20510
C         -0.11840        2.69600       -1.25380
C          0.44290        4.02380       -0.74800
C         -5.29490        4.28290        1.72490
C         -6.28190        3.39000        2.12450
N         -6.81920        2.37860        1.35250
C         -6.04170        1.66930        0.42840
C         -4.69360        1.41030        0.66290
C         -3.92440        0.79200       -0.30440
C         -4.47330        0.39780       -1.51690
C         -3.63600       -0.23910       -2.58350
C         -5.83610        0.59390       -1.71280
C         -6.61420        1.21520       -0.75810
C         -8.13840        1.96740        1.62140
C         -9.13520        2.91340        1.83830
C        -10.41400        2.50910        2.16600
C        -10.73310        1.16230        2.27930
C        -12.10480        0.72910        2.69440
C         -9.73730        0.22500        2.03140
C         -8.45410        0.61510        1.70740
C         -6.63660        3.60380        3.47780
S         -7.72430        2.79650        4.54460
C         -7.18840        3.82390        5.88150
C         -6.14530        4.70830        5.48360
N         -5.46120        5.55890        6.30730
C         -5.09780        5.21340        7.62230
C         -5.03590        6.19510        8.60820
C         -4.66570        5.85750        9.89460
C         -4.36280        4.54450       10.23560
C         -4.00100        4.19290       11.64520
C         -4.41440        3.57510        9.24040
C         -4.76650        3.89970        7.94580
C         -4.97460        6.76540        5.76540
C         -3.67670        7.19190        6.02400
C         -3.21980        8.37810        5.48310
C         -4.03510        9.16060        4.67550
C         -3.53820       10.43760        4.07250
C         -5.33330        8.72670        4.42700
C         -5.80410        7.54730        4.96490
C         -5.88820        4.58960        4.10940
S         -4.73250        5.31200        3.03320
C         -7.76920        3.85180        7.14170
C         -8.76290        3.06310        7.69360
C         -9.40050        1.91240        7.06160
O         -9.25030        1.49410        5.92780
C        -10.27740        1.31680        8.09550
C        -10.16720        2.06350        9.28200
C        -10.88600        1.68560       10.40380
C        -11.70740        0.56950       10.32240
C        -11.81940       -0.15590        9.14720
Br       -12.96540       -1.65890        9.09660
C        -11.10010        0.20820        8.00380
Cl       -11.23360       -0.68120        6.54630
C         -9.25660        3.18460        9.03990
C         -8.97520        4.17670        9.95140
C         -8.24220        5.34770        9.68420
N         -7.70030        6.35210        9.54120
C         -9.42410        4.17540       11.28600
N         -9.73590        4.22670       12.39060
H         10.78900       -6.22450       -0.56680
H         10.68380      -10.96490        1.93650
H          6.53160      -11.67470        2.75710
H          5.93090       -9.47610        1.82520
H         12.19710       -2.93400        0.11620
H         14.40970       -3.98450        0.32270
H         16.14760       -5.38270       -0.61940
H         15.86340       -6.27660       -2.12270
H         15.31700       -6.93830       -0.58510
H         13.51590       -6.53270       -2.97940
H         11.30640       -5.47820       -3.19750
H          8.47980       -2.31390       -0.23130
H          8.25170        0.11720        0.05220
H          9.50120        2.32590        0.04130
H          9.03430        2.44350       -1.65210
H         10.73260        2.59980       -1.20110
H         11.72730        0.73200       -2.34520
H         11.94710       -1.69740       -2.65320
H          2.40220       -5.26470       -4.72180
H          0.33460       -3.96120       -4.44890
H         -0.60170       -1.71520       -3.77610
H          0.09880       -0.87370       -2.38610
H         -0.81470       -2.36570       -2.15210
H          2.23160       -1.57990       -1.46430
H          4.29020       -2.87970       -1.72790
H          6.35600       -6.17330       -5.06580
H          6.39040       -8.60500       -5.37430
H          5.07300      -10.95240       -3.32080
H          5.43010      -10.75720       -5.03900
H          3.75370      -10.82940       -4.47840
H          3.09180       -8.99440       -2.69920
H          3.06850       -6.56390       -2.36650
H          2.49090       -3.82680       -6.77570
H          2.91420       -5.77530       -8.20760
H          5.22010       -6.51920       -8.64540
H          8.20380       -5.02030       -7.02650
H          7.59310       -6.45230       -7.87020
H          8.97920       -5.04720       -9.38550
H          7.30500       -5.10390       -9.94780
H          7.90230       -3.67380       -9.10720
H          6.70080       -3.30670       -6.26990
H         -6.82710        5.98500        0.59160
H         -9.22070        6.43460        0.26920
H        -10.47750        5.26850       -1.49700
H        -10.58540        3.48060       -3.11970
H         -9.17120        2.46140       -3.42530
H         -9.78410        3.75130       -5.45880
H         -9.59740        5.26440       -4.56600
H         -8.19250        4.24070       -4.86710
H         -6.93220        3.21130       -2.65600
H          1.86340        3.15570       -2.78900
H          3.04540        1.87280       -2.40880
H          2.90860        3.44850       -5.03000
H          4.13900        2.25310       -4.60500
H          4.03790        3.76730       -3.70740
H         -0.77030        2.28080       -0.47610
H          0.67340        1.97280       -1.44870
H          1.08570        3.84680        0.10950
H          1.01710        4.53730       -1.51600
H         -0.36850        4.67760       -0.44040
H         -4.24880        1.69970        1.60410
H         -2.87580        0.61250       -0.11000
H         -3.80910       -1.31540       -2.60860
H         -3.89380        0.16250       -3.56180
H         -2.57680       -0.06860       -2.40460
H         -6.28790        0.27100       -2.63960
H         -7.66840        1.37510       -0.92710
H         -8.89880        3.96350        1.75030
H        -11.17610        3.25470        2.34180
H        -12.85110        1.46920        2.41500
H        -12.36620       -0.22670        2.24590
H        -12.13600        0.61190        3.77810
H         -9.96580       -0.82800        2.11170
H         -7.68470       -0.12340        1.53570
H         -5.28900        7.21460        8.36440
H         -4.63150        6.62540       10.65230
H         -4.87080        4.30520       12.29250
H         -3.22350        4.85720       12.01820
H         -3.64980        3.16660       11.71510
H         -4.16610        2.55070        9.47810
H         -4.79120        3.13650        7.18170
H         -3.03000        6.58850        6.64330
H         -2.20810        8.69620        5.68840
H         -4.24720       11.24490        4.24740
H         -3.42490       10.32280        2.99460
H         -2.57570       10.71890        4.49140
H         -5.98500        9.32700        3.80910
H         -6.81850        7.22640        4.77740
H         -7.36740        4.61440        7.79660
H        -10.82270        2.23040       11.33070
H        -12.27410        0.25740       11.18600
