
  xtb     02132212003D
 energy: -365.479606534559 gnorm: 0.000374378122 xtb: 6.4.1 (unknown)
215237  0     0  0            999 V2000
    3.7753   -8.6369   13.1801 C   0  0  0  0  0  0  0  0  0  0  0  0
    4.0248   -9.7854   12.5039 C   0  0  0  0  0  0  0  0  0  0  0  0
    3.8145   -9.9741   11.0384 C   0  0  0  0  0  0  0  0  0  0  0  0
    3.2504   -9.2388   10.2623 O   0  0  0  0  0  0  0  0  0  0  0  0
    4.5383  -11.2180   10.7005 C   0  0  0  0  0  0  0  0  0  0  0  0
    4.6960  -11.7978    9.4586 C   0  0  0  0  0  0  0  0  0  0  0  0
    5.4380  -12.9751    9.3763 C   0  0  0  0  0  0  0  0  0  0  0  0
    5.6620  -13.6710    8.0801 C   0  0  0  0  0  0  0  0  0  0  0  0
    6.3162  -14.6766    7.9587 O   0  0  0  0  0  0  0  0  0  0  0  0
    5.0571  -13.0540    7.0596 O   0  0  0  0  0  0  0  0  0  0  0  0
    5.2229  -13.6564    5.7843 C   0  0  0  0  0  0  0  0  0  0  0  0
    6.0024  -13.5332   10.5244 C   0  0  0  0  0  0  0  0  0  0  0  0
    5.8442  -12.9484   11.7700 C   0  0  0  0  0  0  0  0  0  0  0  0
    5.1023  -11.7782   11.8615 C   0  0  0  0  0  0  0  0  0  0  0  0
    4.7645  -10.9356   13.0040 C   0  0  0  0  0  0  0  0  0  0  0  0
    5.0356  -11.2164   14.3149 C   0  0  0  0  0  0  0  0  0  0  0  0
    4.6373  -10.4189   15.4104 C   0  0  0  0  0  0  0  0  0  0  0  0
    4.3388   -9.8302   16.3495 N   0  0  0  0  0  0  0  0  0  0  0  0
    5.7362  -12.3607   14.7546 C   0  0  0  0  0  0  0  0  0  0  0  0
    6.3022  -13.2649   15.1771 N   0  0  0  0  0  0  0  0  0  0  0  0
    3.0037   -7.5194   12.6910 C   0  0  0  0  0  0  0  0  0  0  0  0
    1.8071   -7.7011   11.9770 C   0  0  0  0  0  0  0  0  0  0  0  0
    1.1521   -6.5920   11.5017 C   0  0  0  0  0  0  0  0  0  0  0  0
   -0.1106   -6.5098   10.7158 C   0  0  0  0  0  0  0  0  0  0  0  0
   -0.8608   -7.4076   10.4212 O   0  0  0  0  0  0  0  0  0  0  0  0
   -0.2420   -5.0641   10.3852 C   0  0  0  0  0  0  0  0  0  0  0  0
    0.8194   -4.3504   10.9796 C   0  0  0  0  0  0  0  0  0  0  0  0
    1.6690   -5.2931   11.6900 C   0  0  0  0  0  0  0  0  0  0  0  0
    2.8167   -5.1071   12.4402 C   0  0  0  0  0  0  0  0  0  0  0  0
    3.4583   -6.2216   12.9542 C   0  0  0  0  0  0  0  0  0  0  0  0
    0.9393   -2.9900   10.7677 C   0  0  0  0  0  0  0  0  0  0  0  0
    0.0173   -2.3642    9.9435 C   0  0  0  0  0  0  0  0  0  0  0  0
   -1.0346   -3.0644    9.3470 C   0  0  0  0  0  0  0  0  0  0  0  0
   -1.1704   -4.4423    9.5868 C   0  0  0  0  0  0  0  0  0  0  0  0
   -1.9077   -2.3970    8.4055 C   0  0  0  0  0  0  0  0  0  0  0  0
   -3.2351   -2.6285    8.1131 C   0  0  0  0  0  0  0  0  0  0  0  0
   -4.1302   -3.4865    8.8903 C   0  0  0  0  0  0  0  0  0  0  0  0
   -4.0790   -3.4927   10.2830 C   0  0  0  0  0  0  0  0  0  0  0  0
   -4.9499   -4.2893   10.9996 C   0  0  0  0  0  0  0  0  0  0  0  0
   -5.8797   -5.0775   10.3425 C   0  0  0  0  0  0  0  0  0  0  0  0
   -5.9481   -5.0801    8.9557 C   0  0  0  0  0  0  0  0  0  0  0  0
   -6.9861   -5.8862    8.2303 C   0  0  0  0  0  0  0  0  0  0  0  0
   -8.1822   -5.0041    7.8664 C   0  0  0  0  0  0  0  0  0  0  0  0
   -5.0690   -4.2803    8.2408 C   0  0  0  0  0  0  0  0  0  0  0  0
   -3.6505   -1.8771    6.9891 C   0  0  0  0  0  0  0  0  0  0  0  0
   -5.1648   -1.7628    6.1204 S   0  0  0  0  0  0  0  0  0  0  0  0
   -4.4161   -0.6808    4.9945 C   0  0  0  0  0  0  0  0  0  0  0  0
   -4.6968   -0.0519    3.7690 C   0  0  0  0  0  0  0  0  0  0  0  0
   -5.8355   -0.1236    2.9389 C   0  0  0  0  0  0  0  0  0  0  0  0
   -5.7735    0.4542    1.6272 C   0  0  0  0  0  0  0  0  0  0  0  0
   -6.8804    0.2472    0.9303 N   0  0  0  0  0  0  0  0  0  0  0  0
   -7.9159   -0.5915    1.8506 S   0  0  0  0  0  0  0  0  0  0  0  0
   -6.9889   -0.7312    3.1709 N   0  0  0  0  0  0  0  0  0  0  0  0
   -4.6172    1.1696    1.2517 C   0  0  0  0  0  0  0  0  0  0  0  0
   -4.3013    1.8620    0.0706 C   0  0  0  0  0  0  0  0  0  0  0  0
   -4.9557    2.1275   -1.5089 S   0  0  0  0  0  0  0  0  0  0  0  0
   -3.5205    3.0238   -1.9330 C   0  0  0  0  0  0  0  0  0  0  0  0
   -3.0494    3.5671   -3.1487 C   0  0  0  0  0  0  0  0  0  0  0  0
   -3.7883    3.6869   -4.4036 C   0  0  0  0  0  0  0  0  0  0  0  0
   -4.7007    2.7203   -4.8161 C   0  0  0  0  0  0  0  0  0  0  0  0
   -5.3508    2.8607   -6.0275 C   0  0  0  0  0  0  0  0  0  0  0  0
   -5.1221    3.9679   -6.8268 C   0  0  0  0  0  0  0  0  0  0  0  0
   -4.2523    4.9674   -6.4097 C   0  0  0  0  0  0  0  0  0  0  0  0
   -4.0038    6.1968   -7.2392 C   0  0  0  0  0  0  0  0  0  0  0  0
   -2.6213    6.1649   -7.8930 C   0  0  0  0  0  0  0  0  0  0  0  0
   -3.5928    4.8127   -5.2004 C   0  0  0  0  0  0  0  0  0  0  0  0
   -1.7624    4.0467   -3.0106 C   0  0  0  0  0  0  0  0  0  0  0  0
   -1.1787    3.9664   -1.3581 S   0  0  0  0  0  0  0  0  0  0  0  0
   -2.6146    3.1357   -0.8775 C   0  0  0  0  0  0  0  0  0  0  0  0
   -3.0592    2.4634    0.2690 C   0  0  0  0  0  0  0  0  0  0  0  0
   -2.5915    2.1687    1.5233 N   0  0  0  0  0  0  0  0  0  0  0  0
   -3.5170    1.3406    2.1382 C   0  0  0  0  0  0  0  0  0  0  0  0
   -3.5122    0.6285    3.3679 C   0  0  0  0  0  0  0  0  0  0  0  0
   -2.5388    0.4108    4.3335 N   0  0  0  0  0  0  0  0  0  0  0  0
   -3.0853   -0.3985    5.2959 C   0  0  0  0  0  0  0  0  0  0  0  0
   -2.6475   -1.0805    6.4388 C   0  0  0  0  0  0  0  0  0  0  0  0
   -1.1738   -1.2223    7.3257 S   0  0  0  0  0  0  0  0  0  0  0  0
   -1.0966    0.4408    4.2365 C   0  0  0  0  0  0  0  0  0  0  0  0
   -0.5772   -0.7501    3.4328 C   0  0  0  0  0  0  0  0  0  0  0  0
   -1.5302    2.9653    2.0963 C   0  0  0  0  0  0  0  0  0  0  0  0
   -0.1435    2.5120    1.6390 C   0  0  0  0  0  0  0  0  0  0  0  0
   -0.8505    4.3021   -4.0881 C   0  0  0  0  0  0  0  0  0  0  0  0
   -0.5707    3.4035   -5.1081 C   0  0  0  0  0  0  0  0  0  0  0  0
   -1.0859    2.1267   -5.2278 N   0  0  0  0  0  0  0  0  0  0  0  0
   -1.3432    1.3252   -4.1093 C   0  0  0  0  0  0  0  0  0  0  0  0
   -0.5129    1.3557   -2.9922 C   0  0  0  0  0  0  0  0  0  0  0  0
   -0.8236    0.6052   -1.8742 C   0  0  0  0  0  0  0  0  0  0  0  0
   -1.9554   -0.1976   -1.8384 C   0  0  0  0  0  0  0  0  0  0  0  0
   -2.3078   -0.9867   -0.6148 C   0  0  0  0  0  0  0  0  0  0  0  0
   -2.7468   -0.2686   -2.9795 C   0  0  0  0  0  0  0  0  0  0  0  0
   -2.4462    0.4732   -4.1026 C   0  0  0  0  0  0  0  0  0  0  0  0
   -1.2798    1.6020   -6.5181 C   0  0  0  0  0  0  0  0  0  0  0  0
   -0.9155    0.2914   -6.8119 C   0  0  0  0  0  0  0  0  0  0  0  0
   -1.0790   -0.1985   -8.0910 C   0  0  0  0  0  0  0  0  0  0  0  0
   -1.6007    0.5964   -9.1055 C   0  0  0  0  0  0  0  0  0  0  0  0
   -1.7260    0.0643  -10.4998 C   0  0  0  0  0  0  0  0  0  0  0  0
   -1.9757    1.8970   -8.7974 C   0  0  0  0  0  0  0  0  0  0  0  0
   -1.8236    2.3978   -7.5198 C   0  0  0  0  0  0  0  0  0  0  0  0
    0.3730    3.9442   -6.0149 C   0  0  0  0  0  0  0  0  0  0  0  0
    1.1866    3.2919   -7.3888 S   0  0  0  0  0  0  0  0  0  0  0  0
    2.1458    4.7706   -7.5298 C   0  0  0  0  0  0  0  0  0  0  0  0
    1.8553    5.6940   -6.4896 C   0  0  0  0  0  0  0  0  0  0  0  0
    2.4815    6.8937   -6.2822 N   0  0  0  0  0  0  0  0  0  0  0  0
    3.8594    7.0802   -6.4959 C   0  0  0  0  0  0  0  0  0  0  0  0
    4.3339    8.3068   -6.9534 C   0  0  0  0  0  0  0  0  0  0  0  0
    5.6861    8.4868   -7.1667 C   0  0  0  0  0  0  0  0  0  0  0  0
    6.5930    7.4573   -6.9452 C   0  0  0  0  0  0  0  0  0  0  0  0
    8.0486    7.6533   -7.2350 C   0  0  0  0  0  0  0  0  0  0  0  0
    6.1107    6.2436   -6.4676 C   0  0  0  0  0  0  0  0  0  0  0  0
    4.7640    6.0539   -6.2328 C   0  0  0  0  0  0  0  0  0  0  0  0
    1.7327    7.9464   -5.7198 C   0  0  0  0  0  0  0  0  0  0  0  0
    0.4535    8.2162   -6.1993 C   0  0  0  0  0  0  0  0  0  0  0  0
   -0.2896    9.2405   -5.6502 C   0  0  0  0  0  0  0  0  0  0  0  0
    0.2224   10.0261   -4.6234 C   0  0  0  0  0  0  0  0  0  0  0  0
   -0.5994   11.1241   -4.0230 C   0  0  0  0  0  0  0  0  0  0  0  0
    1.5048    9.7562   -4.1609 C   0  0  0  0  0  0  0  0  0  0  0  0
    2.2563    8.7285   -4.6960 C   0  0  0  0  0  0  0  0  0  0  0  0
    0.8297    5.2076   -5.6628 C   0  0  0  0  0  0  0  0  0  0  0  0
    0.0956    5.7776   -4.1953 S   0  0  0  0  0  0  0  0  0  0  0  0
    3.0285    5.0466   -8.5688 C   0  0  0  0  0  0  0  0  0  0  0  0
    3.5071    4.2381   -9.5792 C   0  0  0  0  0  0  0  0  0  0  0  0
    3.2343    2.8109   -9.7511 C   0  0  0  0  0  0  0  0  0  0  0  0
    2.4269    2.1209   -9.1537 O   0  0  0  0  0  0  0  0  0  0  0  0
    4.1576    2.3461  -10.8088 C   0  0  0  0  0  0  0  0  0  0  0  0
    4.3248    1.0725  -11.3060 C   0  0  0  0  0  0  0  0  0  0  0  0
    5.2828    0.8806  -12.3030 C   0  0  0  0  0  0  0  0  0  0  0  0
    5.5442   -0.4589  -12.8883 C   0  0  0  0  0  0  0  0  0  0  0  0
    6.3472   -0.6728  -13.7629 O   0  0  0  0  0  0  0  0  0  0  0  0
    4.7911   -1.4167  -12.3309 O   0  0  0  0  0  0  0  0  0  0  0  0
    4.9903   -2.7302  -12.8304 C   0  0  0  0  0  0  0  0  0  0  0  0
    6.0314    1.9590  -12.7734 C   0  0  0  0  0  0  0  0  0  0  0  0
    5.8573    3.2401  -12.2720 C   0  0  0  0  0  0  0  0  0  0  0  0
    4.9136    3.4369  -11.2754 C   0  0  0  0  0  0  0  0  0  0  0  0
    4.4944    4.6383  -10.5510 C   0  0  0  0  0  0  0  0  0  0  0  0
    4.9636    5.9085  -10.7900 C   0  0  0  0  0  0  0  0  0  0  0  0
    4.4658    7.0866  -10.2022 C   0  0  0  0  0  0  0  0  0  0  0  0
    4.0959    8.0987   -9.8001 N   0  0  0  0  0  0  0  0  0  0  0  0
    5.9994    6.2149  -11.6942 C   0  0  0  0  0  0  0  0  0  0  0  0
    6.8529    6.5370  -12.3925 N   0  0  0  0  0  0  0  0  0  0  0  0
    4.2329   -8.4971   14.1525 H   0  0  0  0  0  0  0  0  0  0  0  0
    4.2548  -11.3497    8.5826 H   0  0  0  0  0  0  0  0  0  0  0  0
    4.6633  -13.0426    5.0835 H   0  0  0  0  0  0  0  0  0  0  0  0
    6.2803  -13.6841    5.5129 H   0  0  0  0  0  0  0  0  0  0  0  0
    4.8375  -14.6779    5.7947 H   0  0  0  0  0  0  0  0  0  0  0  0
    6.5746  -14.4426   10.4168 H   0  0  0  0  0  0  0  0  0  0  0  0
    6.2981  -13.3991   12.6374 H   0  0  0  0  0  0  0  0  0  0  0  0
    1.3943   -8.6852   11.8243 H   0  0  0  0  0  0  0  0  0  0  0  0
    3.2109   -4.1187   12.6214 H   0  0  0  0  0  0  0  0  0  0  0  0
    4.3613   -6.0951   13.5343 H   0  0  0  0  0  0  0  0  0  0  0  0
    1.7428   -2.4232   11.2130 H   0  0  0  0  0  0  0  0  0  0  0  0
    0.1129   -1.3056    9.7471 H   0  0  0  0  0  0  0  0  0  0  0  0
   -1.9619   -5.0090    9.1218 H   0  0  0  0  0  0  0  0  0  0  0  0
   -3.3658   -2.8646   10.7964 H   0  0  0  0  0  0  0  0  0  0  0  0
   -4.9076   -4.2926   12.0789 H   0  0  0  0  0  0  0  0  0  0  0  0
   -6.5583   -5.6958   10.9120 H   0  0  0  0  0  0  0  0  0  0  0  0
   -7.3220   -6.7123    8.8597 H   0  0  0  0  0  0  0  0  0  0  0  0
   -6.5578   -6.3038    7.3168 H   0  0  0  0  0  0  0  0  0  0  0  0
   -7.8672   -4.1841    7.2249 H   0  0  0  0  0  0  0  0  0  0  0  0
   -8.6283   -4.5834    8.7649 H   0  0  0  0  0  0  0  0  0  0  0  0
   -8.9377   -5.5853    7.3430 H   0  0  0  0  0  0  0  0  0  0  0  0
   -5.1048   -4.2877    7.1612 H   0  0  0  0  0  0  0  0  0  0  0  0
   -4.8903    1.8611   -4.1923 H   0  0  0  0  0  0  0  0  0  0  0  0
   -6.0464    2.1007   -6.3513 H   0  0  0  0  0  0  0  0  0  0  0  0
   -5.6361    4.0651   -7.7722 H   0  0  0  0  0  0  0  0  0  0  0  0
   -4.0706    7.0792   -6.5976 H   0  0  0  0  0  0  0  0  0  0  0  0
   -4.7682    6.2821   -8.0136 H   0  0  0  0  0  0  0  0  0  0  0  0
   -2.4387    7.0890   -8.4376 H   0  0  0  0  0  0  0  0  0  0  0  0
   -2.5468    5.3353   -8.5928 H   0  0  0  0  0  0  0  0  0  0  0  0
   -1.8468    6.0483   -7.1371 H   0  0  0  0  0  0  0  0  0  0  0  0
   -2.9319    5.5963   -4.8580 H   0  0  0  0  0  0  0  0  0  0  0  0
   -0.7113    0.3863    5.2584 H   0  0  0  0  0  0  0  0  0  0  0  0
   -0.7514    1.3716    3.8019 H   0  0  0  0  0  0  0  0  0  0  0  0
   -0.8672   -1.6824    3.9113 H   0  0  0  0  0  0  0  0  0  0  0  0
   -0.9909   -0.7415    2.4263 H   0  0  0  0  0  0  0  0  0  0  0  0
    0.5073   -0.7153    3.3720 H   0  0  0  0  0  0  0  0  0  0  0  0
   -1.6795    3.9999    1.7665 H   0  0  0  0  0  0  0  0  0  0  0  0
   -1.6322    2.9556    3.1829 H   0  0  0  0  0  0  0  0  0  0  0  0
   -0.0166    2.7241    0.5813 H   0  0  0  0  0  0  0  0  0  0  0  0
    0.0002    1.4460    1.7899 H   0  0  0  0  0  0  0  0  0  0  0  0
    0.6212    3.0539    2.1894 H   0  0  0  0  0  0  0  0  0  0  0  0
    0.3747    1.9718   -3.0026 H   0  0  0  0  0  0  0  0  0  0  0  0
   -0.1724    0.6487   -1.0127 H   0  0  0  0  0  0  0  0  0  0  0  0
   -1.8735   -0.5336    0.2736 H   0  0  0  0  0  0  0  0  0  0  0  0
   -1.9285   -2.0060   -0.6978 H   0  0  0  0  0  0  0  0  0  0  0  0
   -3.3871   -1.0389   -0.4869 H   0  0  0  0  0  0  0  0  0  0  0  0
   -3.6215   -0.9025   -2.9792 H   0  0  0  0  0  0  0  0  0  0  0  0
   -3.0696    0.4146   -4.9818 H   0  0  0  0  0  0  0  0  0  0  0  0
   -0.4960   -0.3322   -6.0362 H   0  0  0  0  0  0  0  0  0  0  0  0
   -0.7831   -1.2140   -8.3112 H   0  0  0  0  0  0  0  0  0  0  0  0
   -0.7574    0.1116  -10.9984 H   0  0  0  0  0  0  0  0  0  0  0  0
   -2.0484   -0.9749  -10.4919 H   0  0  0  0  0  0  0  0  0  0  0  0
   -2.4352    0.6503  -11.0794 H   0  0  0  0  0  0  0  0  0  0  0  0
   -2.3952    2.5284   -9.5677 H   0  0  0  0  0  0  0  0  0  0  0  0
   -2.1298    3.4048   -7.2840 H   0  0  0  0  0  0  0  0  0  0  0  0
    3.6398    9.1074   -7.1546 H   0  0  0  0  0  0  0  0  0  0  0  0
    6.0399    9.4379   -7.5343 H   0  0  0  0  0  0  0  0  0  0  0  0
    8.2150    7.6568   -8.3126 H   0  0  0  0  0  0  0  0  0  0  0  0
    8.6457    6.8561   -6.7992 H   0  0  0  0  0  0  0  0  0  0  0  0
    8.3941    8.6082   -6.8440 H   0  0  0  0  0  0  0  0  0  0  0  0
    6.8000    5.4356   -6.2686 H   0  0  0  0  0  0  0  0  0  0  0  0
    4.4055    5.1076   -5.8545 H   0  0  0  0  0  0  0  0  0  0  0  0
    0.0557    7.6255   -7.0113 H   0  0  0  0  0  0  0  0  0  0  0  0
   -1.2804    9.4408   -6.0313 H   0  0  0  0  0  0  0  0  0  0  0  0
   -1.1918   11.6250   -4.7856 H   0  0  0  0  0  0  0  0  0  0  0  0
    0.0320   11.8572   -3.5277 H   0  0  0  0  0  0  0  0  0  0  0  0
   -1.2862   10.7120   -3.2829 H   0  0  0  0  0  0  0  0  0  0  0  0
    1.9212   10.3557   -3.3646 H   0  0  0  0  0  0  0  0  0  0  0  0
    3.2486    8.5241   -4.3224 H   0  0  0  0  0  0  0  0  0  0  0  0
    3.4225    6.0546   -8.5542 H   0  0  0  0  0  0  0  0  0  0  0  0
    3.7335    0.2522  -10.9314 H   0  0  0  0  0  0  0  0  0  0  0  0
    4.6739   -2.7909  -13.8739 H   0  0  0  0  0  0  0  0  0  0  0  0
    4.3861   -3.3868  -12.2097 H   0  0  0  0  0  0  0  0  0  0  0  0
    6.0457   -3.0036  -12.7687 H   0  0  0  0  0  0  0  0  0  0  0  0
    6.7616    1.7708  -13.5461 H   0  0  0  0  0  0  0  0  0  0  0  0
    6.4534    4.0518  -12.6555 H   0  0  0  0  0  0  0  0  0  0  0  0
  1  2  2  0  0  0  0
  2  3  1  0  0  0  0
  3  4  2  0  0  0  0
  3  5  1  0  0  0  0
  5  6  2  0  0  0  0
  6  7  1  0  0  0  0
  7  8  1  0  0  0  0
  8  9  2  0  0  0  0
  8 10  1  0  0  0  0
 10 11  1  0  0  0  0
  7 12  2  0  0  0  0
 12 13  1  0  0  0  0
 13 14  2  0  0  0  0
 14 15  1  0  0  0  0
 15 16  2  0  0  0  0
 16 17  1  0  0  0  0
 17 18  3  0  0  0  0
 16 19  1  0  0  0  0
 19 20  3  0  0  0  0
  1 21  1  0  0  0  0
 21 22  2  0  0  0  0
 22 23  1  0  0  0  0
 23 24  1  0  0  0  0
 24 25  2  0  0  0  0
 24 26  1  0  0  0  0
 26 27  2  0  0  0  0
 27 28  1  0  0  0  0
 28 29  1  0  0  0  0
 29 30  2  0  0  0  0
 27 31  1  0  0  0  0
 31 32  2  0  0  0  0
 32 33  1  0  0  0  0
 33 34  2  0  0  0  0
 33 35  1  0  0  0  0
 35 36  2  0  0  0  0
 36 37  1  0  0  0  0
 37 38  2  0  0  0  0
 38 39  1  0  0  0  0
 39 40  2  0  0  0  0
 40 41  1  0  0  0  0
 41 42  1  0  0  0  0
 42 43  1  0  0  0  0
 41 44  2  0  0  0  0
 36 45  1  0  0  0  0
 45 46  1  0  0  0  0
 46 47  1  0  0  0  0
 47 48  1  0  0  0  0
 48 49  1  0  0  0  0
 49 50  1  0  0  0  0
 50 51  2  0  0  0  0
 51 52  1  0  0  0  0
 52 53  1  0  0  0  0
 50 54  1  0  0  0  0
 54 55  1  0  0  0  0
 55 56  1  0  0  0  0
 56 57  1  0  0  0  0
 57 58  1  0  0  0  0
 58 59  1  0  0  0  0
 59 60  2  0  0  0  0
 60 61  1  0  0  0  0
 61 62  2  0  0  0  0
 62 63  1  0  0  0  0
 63 64  1  0  0  0  0
 64 65  1  0  0  0  0
 63 66  2  0  0  0  0
 58 67  2  0  0  0  0
 67 68  1  0  0  0  0
 68 69  1  0  0  0  0
 69 70  1  0  0  0  0
 70 71  1  0  0  0  0
 71 72  1  0  0  0  0
 72 73  1  0  0  0  0
 73 74  1  0  0  0  0
 74 75  1  0  0  0  0
 75 76  1  0  0  0  0
 76 77  1  0  0  0  0
 74 78  1  0  0  0  0
 78 79  1  0  0  0  0
 71 80  1  0  0  0  0
 80 81  1  0  0  0  0
 67 82  1  0  0  0  0
 82 83  2  0  0  0  0
 83 84  1  0  0  0  0
 84 85  1  0  0  0  0
 85 86  2  0  0  0  0
 86 87  1  0  0  0  0
 87 88  2  0  0  0  0
 88 89  1  0  0  0  0
 88 90  1  0  0  0  0
 90 91  2  0  0  0  0
 84 92  1  0  0  0  0
 92 93  2  0  0  0  0
 93 94  1  0  0  0  0
 94 95  2  0  0  0  0
 95 96  1  0  0  0  0
 95 97  1  0  0  0  0
 97 98  2  0  0  0  0
 83 99  1  0  0  0  0
 99100  1  0  0  0  0
100101  1  0  0  0  0
101102  2  0  0  0  0
102103  1  0  0  0  0
103104  1  0  0  0  0
104105  2  0  0  0  0
105106  1  0  0  0  0
106107  2  0  0  0  0
107108  1  0  0  0  0
107109  1  0  0  0  0
109110  2  0  0  0  0
103111  1  0  0  0  0
111112  2  0  0  0  0
112113  1  0  0  0  0
113114  2  0  0  0  0
114115  1  0  0  0  0
114116  1  0  0  0  0
116117  2  0  0  0  0
102118  1  0  0  0  0
118119  1  0  0  0  0
101120  1  0  0  0  0
120121  2  0  0  0  0
121122  1  0  0  0  0
122123  2  0  0  0  0
122124  1  0  0  0  0
124125  2  0  0  0  0
125126  1  0  0  0  0
126127  1  0  0  0  0
127128  2  0  0  0  0
127129  1  0  0  0  0
129130  1  0  0  0  0
126131  2  0  0  0  0
131132  1  0  0  0  0
132133  2  0  0  0  0
133134  1  0  0  0  0
134135  2  0  0  0  0
135136  1  0  0  0  0
136137  3  0  0  0  0
135138  1  0  0  0  0
138139  3  0  0  0  0
 15  2  1  0  0  0  0
 30 21  1  0  0  0  0
 77 35  1  0  0  0  0
119 82  1  0  0  0  0
134121  1  0  0  0  0
 14  5  1  0  0  0  0
 28 23  2  0  0  0  0
 44 37  1  0  0  0  0
 76 45  2  0  0  0  0
 91 85  1  0  0  0  0
 98 92  1  0  0  0  0
118 99  2  0  0  0  0
133124  1  0  0  0  0
 34 26  1  0  0  0  0
 75 47  2  0  0  0  0
110104  1  0  0  0  0
117111  1  0  0  0  0
 73 48  2  0  0  0  0
 53 49  2  0  0  0  0
 72 54  2  0  0  0  0
 70 55  2  0  0  0  0
 69 57  2  0  0  0  0
 66 59  1  0  0  0  0
  1140  1  0  0  0  0
  6141  1  0  0  0  0
 11142  1  0  0  0  0
 11143  1  0  0  0  0
 11144  1  0  0  0  0
 12145  1  0  0  0  0
 13146  1  0  0  0  0
 22147  1  0  0  0  0
 29148  1  0  0  0  0
 30149  1  0  0  0  0
 31150  1  0  0  0  0
 32151  1  0  0  0  0
 34152  1  0  0  0  0
 38153  1  0  0  0  0
 39154  1  0  0  0  0
 40155  1  0  0  0  0
 42156  1  0  0  0  0
 42157  1  0  0  0  0
 43158  1  0  0  0  0
 43159  1  0  0  0  0
 43160  1  0  0  0  0
 44161  1  0  0  0  0
 60162  1  0  0  0  0
 61163  1  0  0  0  0
 62164  1  0  0  0  0
 64165  1  0  0  0  0
 64166  1  0  0  0  0
 65167  1  0  0  0  0
 65168  1  0  0  0  0
 65169  1  0  0  0  0
 66170  1  0  0  0  0
 78171  1  0  0  0  0
 78172  1  0  0  0  0
 79173  1  0  0  0  0
 79174  1  0  0  0  0
 79175  1  0  0  0  0
 80176  1  0  0  0  0
 80177  1  0  0  0  0
 81178  1  0  0  0  0
 81179  1  0  0  0  0
 81180  1  0  0  0  0
 86181  1  0  0  0  0
 87182  1  0  0  0  0
 89183  1  0  0  0  0
 89184  1  0  0  0  0
 89185  1  0  0  0  0
 90186  1  0  0  0  0
 91187  1  0  0  0  0
 93188  1  0  0  0  0
 94189  1  0  0  0  0
 96190  1  0  0  0  0
 96191  1  0  0  0  0
 96192  1  0  0  0  0
 97193  1  0  0  0  0
 98194  1  0  0  0  0
105195  1  0  0  0  0
106196  1  0  0  0  0
108197  1  0  0  0  0
108198  1  0  0  0  0
108199  1  0  0  0  0
109200  1  0  0  0  0
110201  1  0  0  0  0
112202  1  0  0  0  0
113203  1  0  0  0  0
115204  1  0  0  0  0
115205  1  0  0  0  0
115206  1  0  0  0  0
116207  1  0  0  0  0
117208  1  0  0  0  0
120209  1  0  0  0  0
125210  1  0  0  0  0
130211  1  0  0  0  0
130212  1  0  0  0  0
130213  1  0  0  0  0
131214  1  0  0  0  0
132215  1  0  0  0  0
M  END
