
  xtb     02052217283D
 energy: -430.400924133008 gnorm: 0.000533199176 xtb: 6.4.1 (unknown)
261287  0     0  0            999 V2000
    7.4163   -6.9914    7.8040 C   0  0  0  0  0  0  0  0  0  0  0  0
    8.1701   -6.4730    8.8383 C   0  0  0  0  0  0  0  0  0  0  0  0
    8.4206   -5.0565    9.0996 C   0  0  0  0  0  0  0  0  0  0  0  0
    8.1089   -4.0983    8.4139 O   0  0  0  0  0  0  0  0  0  0  0  0
    9.1271   -5.0014   10.3980 C   0  0  0  0  0  0  0  0  0  0  0  0
    9.5730   -3.8971   11.0897 C   0  0  0  0  0  0  0  0  0  0  0  0
   10.2174   -4.1066   12.3104 C   0  0  0  0  0  0  0  0  0  0  0  0
   10.7333   -2.9782   13.1256 C   0  0  0  0  0  0  0  0  0  0  0  0
   11.3158   -3.1082   14.1741 O   0  0  0  0  0  0  0  0  0  0  0  0
   10.4776   -1.7862   12.5694 O   0  0  0  0  0  0  0  0  0  0  0  0
   10.9395   -0.6546   13.2907 C   0  0  0  0  0  0  0  0  0  0  0  0
   10.3948   -5.4013   12.7969 C   0  0  0  0  0  0  0  0  0  0  0  0
    9.9450   -6.5101   12.0963 C   0  0  0  0  0  0  0  0  0  0  0  0
    9.3032   -6.3098   10.8837 C   0  0  0  0  0  0  0  0  0  0  0  0
    8.7401   -7.2484    9.9109 C   0  0  0  0  0  0  0  0  0  0  0  0
    8.7874   -8.6189   10.0207 C   0  0  0  0  0  0  0  0  0  0  0  0
    8.3819   -9.5346    9.0322 C   0  0  0  0  0  0  0  0  0  0  0  0
    8.1102  -10.3505    8.2682 N   0  0  0  0  0  0  0  0  0  0  0  0
    9.2871   -9.3082   11.1429 C   0  0  0  0  0  0  0  0  0  0  0  0
    9.6564   -9.9385   12.0297 N   0  0  0  0  0  0  0  0  0  0  0  0
    6.8071   -6.3640    6.7243 C   0  0  0  0  0  0  0  0  0  0  0  0
    6.0296   -7.0672    5.7620 C   0  0  0  0  0  0  0  0  0  0  0  0
    5.5928   -8.3561    5.8833 N   0  0  0  0  0  0  0  0  0  0  0  0
    5.3717   -9.1055    4.7105 C   0  0  0  0  0  0  0  0  0  0  0  0
    6.3266   -9.1108    3.6984 C   0  0  0  0  0  0  0  0  0  0  0  0
    6.1094   -9.8411    2.5473 C   0  0  0  0  0  0  0  0  0  0  0  0
    4.9450  -10.5784    2.3765 C   0  0  0  0  0  0  0  0  0  0  0  0
    4.6975  -11.3443    1.1152 C   0  0  0  0  0  0  0  0  0  0  0  0
    4.0016  -10.5741    3.3983 C   0  0  0  0  0  0  0  0  0  0  0  0
    4.2058   -9.8489    4.5541 C   0  0  0  0  0  0  0  0  0  0  0  0
    5.1979   -8.9103    7.1165 C   0  0  0  0  0  0  0  0  0  0  0  0
    4.5604   -8.1292    8.0774 C   0  0  0  0  0  0  0  0  0  0  0  0
    4.1875   -8.6869    9.2837 C   0  0  0  0  0  0  0  0  0  0  0  0
    4.4193  -10.0304    9.5565 C   0  0  0  0  0  0  0  0  0  0  0  0
    4.0394  -10.6319   10.8739 C   0  0  0  0  0  0  0  0  0  0  0  0
    5.0257  -10.8080    8.5770 C   0  0  0  0  0  0  0  0  0  0  0  0
    5.4177  -10.2615    7.3712 C   0  0  0  0  0  0  0  0  0  0  0  0
    5.7333   -6.2438    4.6633 C   0  0  0  0  0  0  0  0  0  0  0  0
    4.8539   -6.4569    3.1829 S   0  0  0  0  0  0  0  0  0  0  0  0
    5.1028   -4.7617    2.7661 C   0  0  0  0  0  0  0  0  0  0  0  0
    5.7795   -4.0739    3.7598 C   0  0  0  0  0  0  0  0  0  0  0  0
    6.1230   -2.7214    3.7407 N   0  0  0  0  0  0  0  0  0  0  0  0
    5.1232   -1.7475    3.7673 C   0  0  0  0  0  0  0  0  0  0  0  0
    5.3727   -0.4707    3.2670 C   0  0  0  0  0  0  0  0  0  0  0  0
    4.3783    0.4861    3.2770 C   0  0  0  0  0  0  0  0  0  0  0  0
    3.1121    0.2043    3.7761 C   0  0  0  0  0  0  0  0  0  0  0  0
    2.0325    1.2440    3.8002 C   0  0  0  0  0  0  0  0  0  0  0  0
    2.8698   -1.0702    4.2732 C   0  0  0  0  0  0  0  0  0  0  0  0
    3.8565   -2.0352    4.2761 C   0  0  0  0  0  0  0  0  0  0  0  0
    7.4463   -2.4188    4.1061 C   0  0  0  0  0  0  0  0  0  0  0  0
    7.7477   -1.3852    4.9885 C   0  0  0  0  0  0  0  0  0  0  0  0
    9.0573   -1.1440    5.3479 C   0  0  0  0  0  0  0  0  0  0  0  0
   10.0979   -1.9226    4.8531 C   0  0  0  0  0  0  0  0  0  0  0  0
   11.5094   -1.6642    5.2830 C   0  0  0  0  0  0  0  0  0  0  0  0
    9.7889   -2.9513    3.9742 C   0  0  0  0  0  0  0  0  0  0  0  0
    8.4829   -3.1974    3.5992 C   0  0  0  0  0  0  0  0  0  0  0  0
    6.1693   -4.9344    4.8130 C   0  0  0  0  0  0  0  0  0  0  0  0
    7.0122   -4.6615    6.2940 S   0  0  0  0  0  0  0  0  0  0  0  0
    4.5933   -4.3152    1.5061 C   0  0  0  0  0  0  0  0  0  0  0  0
    4.6034   -5.0342    0.3222 C   0  0  0  0  0  0  0  0  0  0  0  0
    5.3746   -6.2506    0.0661 C   0  0  0  0  0  0  0  0  0  0  0  0
    6.6753   -6.3863    0.5473 C   0  0  0  0  0  0  0  0  0  0  0  0
    7.4259   -7.4934    0.2066 C   0  0  0  0  0  0  0  0  0  0  0  0
    6.8988   -8.4669   -0.6254 C   0  0  0  0  0  0  0  0  0  0  0  0
    5.6039   -8.3512   -1.1119 C   0  0  0  0  0  0  0  0  0  0  0  0
    5.0458   -9.3528   -2.0809 C   0  0  0  0  0  0  0  0  0  0  0  0
    5.2505   -8.8599   -3.5152 C   0  0  0  0  0  0  0  0  0  0  0  0
    4.8503   -7.2445   -0.7524 C   0  0  0  0  0  0  0  0  0  0  0  0
    3.8686   -4.3741   -0.6847 C   0  0  0  0  0  0  0  0  0  0  0  0
    3.5017   -4.7748   -2.3467 S   0  0  0  0  0  0  0  0  0  0  0  0
    2.5960   -3.3054   -2.4804 C   0  0  0  0  0  0  0  0  0  0  0  0
    1.7386   -2.6630   -3.3888 C   0  0  0  0  0  0  0  0  0  0  0  0
    1.1991   -3.0837   -4.6245 C   0  0  0  0  0  0  0  0  0  0  0  0
    0.1169   -2.3340   -5.2028 C   0  0  0  0  0  0  0  0  0  0  0  0
   -0.3491   -2.8920   -6.3089 N   0  0  0  0  0  0  0  0  0  0  0  0
    0.5023   -4.2377   -6.6039 S   0  0  0  0  0  0  0  0  0  0  0  0
    1.4966   -4.1649   -5.3271 N   0  0  0  0  0  0  0  0  0  0  0  0
   -0.2844   -1.1270   -4.5899 C   0  0  0  0  0  0  0  0  0  0  0  0
   -1.2703   -0.1801   -4.9233 C   0  0  0  0  0  0  0  0  0  0  0  0
   -2.5717    0.0224   -6.0490 S   0  0  0  0  0  0  0  0  0  0  0  0
   -2.9583    1.5460   -5.2887 C   0  0  0  0  0  0  0  0  0  0  0  0
   -3.9973    2.4750   -5.5009 C   0  0  0  0  0  0  0  0  0  0  0  0
   -5.0279    2.2675   -6.5251 C   0  0  0  0  0  0  0  0  0  0  0  0
   -6.3670    2.1210   -6.1821 C   0  0  0  0  0  0  0  0  0  0  0  0
   -7.3072    1.8922   -7.1698 C   0  0  0  0  0  0  0  0  0  0  0  0
   -6.9191    1.7900   -8.4936 C   0  0  0  0  0  0  0  0  0  0  0  0
   -5.5809    1.9064   -8.8490 C   0  0  0  0  0  0  0  0  0  0  0  0
   -5.1381    1.7165  -10.2710 C   0  0  0  0  0  0  0  0  0  0  0  0
   -4.7161    0.2638  -10.5008 C   0  0  0  0  0  0  0  0  0  0  0  0
   -4.6442    2.1425   -7.8546 C   0  0  0  0  0  0  0  0  0  0  0  0
   -3.8806    3.5579   -4.6588 C   0  0  0  0  0  0  0  0  0  0  0  0
   -2.5176    3.4012   -3.5499 S   0  0  0  0  0  0  0  0  0  0  0  0
   -2.0935    1.8822   -4.2492 C   0  0  0  0  0  0  0  0  0  0  0  0
   -1.1408    0.8799   -4.0243 C   0  0  0  0  0  0  0  0  0  0  0  0
   -0.1330    0.6216   -3.1297 N   0  0  0  0  0  0  0  0  0  0  0  0
    0.3813   -0.6278   -3.4381 C   0  0  0  0  0  0  0  0  0  0  0  0
    1.2935   -1.4704   -2.7544 C   0  0  0  0  0  0  0  0  0  0  0  0
    1.8331   -1.4208   -1.4838 N   0  0  0  0  0  0  0  0  0  0  0  0
    2.6118   -2.5338   -1.3164 C   0  0  0  0  0  0  0  0  0  0  0  0
    3.3301   -3.1524   -0.2842 C   0  0  0  0  0  0  0  0  0  0  0  0
    3.7117   -2.8017    1.3632 S   0  0  0  0  0  0  0  0  0  0  0  0
    1.4705   -0.6098   -0.3444 C   0  0  0  0  0  0  0  0  0  0  0  0
    2.6048    0.3260    0.0757 C   0  0  0  0  0  0  0  0  0  0  0  0
    0.5402    1.7337   -2.4948 C   0  0  0  0  0  0  0  0  0  0  0  0
    1.1858    2.6484   -3.5347 C   0  0  0  0  0  0  0  0  0  0  0  0
   -4.6658    4.7524   -4.5814 C   0  0  0  0  0  0  0  0  0  0  0  0
   -4.1817    6.0470   -4.4490 C   0  0  0  0  0  0  0  0  0  0  0  0
   -2.8511    6.4122   -4.5564 N   0  0  0  0  0  0  0  0  0  0  0  0
   -2.0068    5.7754   -5.4733 C   0  0  0  0  0  0  0  0  0  0  0  0
   -2.5024    5.2651   -6.6725 C   0  0  0  0  0  0  0  0  0  0  0  0
   -1.6687    4.5874   -7.5379 C   0  0  0  0  0  0  0  0  0  0  0  0
   -0.3211    4.4068   -7.2501 C   0  0  0  0  0  0  0  0  0  0  0  0
    0.5599    3.6247   -8.1753 C   0  0  0  0  0  0  0  0  0  0  0  0
    0.1744    4.9524   -6.0727 C   0  0  0  0  0  0  0  0  0  0  0  0
   -0.6514    5.6202   -5.1896 C   0  0  0  0  0  0  0  0  0  0  0  0
   -2.3882    7.4821   -3.7709 C   0  0  0  0  0  0  0  0  0  0  0  0
   -2.8088    7.6094   -2.4494 C   0  0  0  0  0  0  0  0  0  0  0  0
   -2.3798    8.6764   -1.6860 C   0  0  0  0  0  0  0  0  0  0  0  0
   -1.5175    9.6325   -2.2089 C   0  0  0  0  0  0  0  0  0  0  0  0
   -1.0777   10.7992   -1.3788 C   0  0  0  0  0  0  0  0  0  0  0  0
   -1.0952    9.4908   -3.5253 C   0  0  0  0  0  0  0  0  0  0  0  0
   -1.5252    8.4348   -4.3039 C   0  0  0  0  0  0  0  0  0  0  0  0
   -5.2383    6.9635   -4.2440 C   0  0  0  0  0  0  0  0  0  0  0  0
   -5.3099    8.6665   -4.0118 S   0  0  0  0  0  0  0  0  0  0  0  0
   -7.0677    8.5936   -3.8074 C   0  0  0  0  0  0  0  0  0  0  0  0
   -7.5688    7.2941   -4.0461 C   0  0  0  0  0  0  0  0  0  0  0  0
   -8.8817    6.9158   -4.1371 N   0  0  0  0  0  0  0  0  0  0  0  0
   -9.9284    7.7521   -4.5566 C   0  0  0  0  0  0  0  0  0  0  0  0
   -9.7277    8.8357   -5.4075 C   0  0  0  0  0  0  0  0  0  0  0  0
  -10.7899    9.6416   -5.7691 C   0  0  0  0  0  0  0  0  0  0  0  0
  -12.0779    9.3858   -5.3149 C   0  0  0  0  0  0  0  0  0  0  0  0
  -13.2209   10.2728   -5.6966 C   0  0  0  0  0  0  0  0  0  0  0  0
  -12.2803    8.2690   -4.5115 C   0  0  0  0  0  0  0  0  0  0  0  0
  -11.2267    7.4651   -4.1310 C   0  0  0  0  0  0  0  0  0  0  0  0
   -9.1860    5.5262   -4.0864 C   0  0  0  0  0  0  0  0  0  0  0  0
   -8.8929    4.7726   -2.9554 C   0  0  0  0  0  0  0  0  0  0  0  0
   -9.1973    3.4253   -2.9305 C   0  0  0  0  0  0  0  0  0  0  0  0
   -9.7938    2.8026   -4.0206 C   0  0  0  0  0  0  0  0  0  0  0  0
  -10.0817    1.3338   -3.9952 C   0  0  0  0  0  0  0  0  0  0  0  0
  -10.0928    3.5703   -5.1399 C   0  0  0  0  0  0  0  0  0  0  0  0
   -9.7957    4.9178   -5.1777 C   0  0  0  0  0  0  0  0  0  0  0  0
   -6.5024    6.3896   -4.2493 C   0  0  0  0  0  0  0  0  0  0  0  0
   -6.4146    4.6872   -4.5488 S   0  0  0  0  0  0  0  0  0  0  0  0
   -7.6746    9.7964   -3.4397 C   0  0  0  0  0  0  0  0  0  0  0  0
   -8.9104   10.0415   -2.8846 C   0  0  0  0  0  0  0  0  0  0  0  0
   -9.5540   11.3555   -3.0931 C   0  0  0  0  0  0  0  0  0  0  0  0
   -9.0585   12.3488   -3.5815 O   0  0  0  0  0  0  0  0  0  0  0  0
  -10.9521   11.1764   -2.6447 C   0  0  0  0  0  0  0  0  0  0  0  0
  -12.0003   12.0433   -2.7317 C   0  0  0  0  0  0  0  0  0  0  0  0
  -13.2702   11.6391   -2.2592 C   0  0  0  0  0  0  0  0  0  0  0  0
  -14.3933   12.4857   -2.3472 C   0  0  0  0  0  0  0  0  0  0  0  0
  -15.6190   12.0824   -1.8937 C   0  0  0  0  0  0  0  0  0  0  0  0
  -15.7453   10.8055   -1.3322 C   0  0  0  0  0  0  0  0  0  0  0  0
  -16.9603   10.4229   -0.8920 F   0  0  0  0  0  0  0  0  0  0  0  0
  -14.6883    9.9457   -1.2211 C   0  0  0  0  0  0  0  0  0  0  0  0
  -13.4197   10.3443   -1.6846 C   0  0  0  0  0  0  0  0  0  0  0  0
  -12.3092    9.4726   -1.5940 C   0  0  0  0  0  0  0  0  0  0  0  0
  -11.0983    9.8782   -2.0812 C   0  0  0  0  0  0  0  0  0  0  0  0
   -9.8063    9.2000   -2.1500 C   0  0  0  0  0  0  0  0  0  0  0  0
   -9.4577    8.0632   -1.4508 C   0  0  0  0  0  0  0  0  0  0  0  0
   -8.1279    7.6511   -1.2758 C   0  0  0  0  0  0  0  0  0  0  0  0
   -7.0504    7.3004   -1.0789 N   0  0  0  0  0  0  0  0  0  0  0  0
  -10.3767    7.2351   -0.7854 C   0  0  0  0  0  0  0  0  0  0  0  0
  -11.0854    6.4911   -0.2699 N   0  0  0  0  0  0  0  0  0  0  0  0
    7.2656   -8.0629    7.8307 H   0  0  0  0  0  0  0  0  0  0  0  0
    9.4277   -2.9039   10.6959 H   0  0  0  0  0  0  0  0  0  0  0  0
   10.5505    0.2173   12.7711 H   0  0  0  0  0  0  0  0  0  0  0  0
   10.5753   -0.6856   14.3197 H   0  0  0  0  0  0  0  0  0  0  0  0
   12.0314   -0.6356   13.3064 H   0  0  0  0  0  0  0  0  0  0  0  0
   10.8981   -5.5227   13.7443 H   0  0  0  0  0  0  0  0  0  0  0  0
   10.0979   -7.4976   12.4998 H   0  0  0  0  0  0  0  0  0  0  0  0
    7.2406   -8.5494    3.8246 H   0  0  0  0  0  0  0  0  0  0  0  0
    6.8576   -9.8385    1.7699 H   0  0  0  0  0  0  0  0  0  0  0  0
    4.1771  -12.2768    1.3221 H   0  0  0  0  0  0  0  0  0  0  0  0
    5.6317  -11.5641    0.6055 H   0  0  0  0  0  0  0  0  0  0  0  0
    4.0764  -10.7523    0.4433 H   0  0  0  0  0  0  0  0  0  0  0  0
    3.0905  -11.1431    3.2839 H   0  0  0  0  0  0  0  0  0  0  0  0
    3.4637   -9.8482    5.3386 H   0  0  0  0  0  0  0  0  0  0  0  0
    4.3645   -7.0859    7.8774 H   0  0  0  0  0  0  0  0  0  0  0  0
    3.6995   -8.0676   10.0226 H   0  0  0  0  0  0  0  0  0  0  0  0
    4.9354  -10.8625   11.4503 H   0  0  0  0  0  0  0  0  0  0  0  0
    3.4920  -11.5612   10.7278 H   0  0  0  0  0  0  0  0  0  0  0  0
    3.4243   -9.9483   11.4536 H   0  0  0  0  0  0  0  0  0  0  0  0
    5.2127  -11.8538    8.7678 H   0  0  0  0  0  0  0  0  0  0  0  0
    5.9052  -10.8727    6.6284 H   0  0  0  0  0  0  0  0  0  0  0  0
    6.3486   -0.2400    2.8667 H   0  0  0  0  0  0  0  0  0  0  0  0
    4.5897    1.4703    2.8834 H   0  0  0  0  0  0  0  0  0  0  0  0
    2.3449    2.1442    3.2763 H   0  0  0  0  0  0  0  0  0  0  0  0
    1.7931    1.5139    4.8286 H   0  0  0  0  0  0  0  0  0  0  0  0
    1.1218    0.8640    3.3389 H   0  0  0  0  0  0  0  0  0  0  0  0
    1.8944   -1.3082    4.6728 H   0  0  0  0  0  0  0  0  0  0  0  0
    3.6532   -3.0169    4.6783 H   0  0  0  0  0  0  0  0  0  0  0  0
    6.9513   -0.7864    5.4039 H   0  0  0  0  0  0  0  0  0  0  0  0
    9.2767   -0.3451    6.0413 H   0  0  0  0  0  0  0  0  0  0  0  0
   11.6434   -1.9684    6.3212 H   0  0  0  0  0  0  0  0  0  0  0  0
   12.2127   -2.2218    4.6692 H   0  0  0  0  0  0  0  0  0  0  0  0
   11.7459   -0.6038    5.2135 H   0  0  0  0  0  0  0  0  0  0  0  0
   10.5797   -3.5704    3.5750 H   0  0  0  0  0  0  0  0  0  0  0  0
    8.2584   -4.0017    2.9130 H   0  0  0  0  0  0  0  0  0  0  0  0
    7.1010   -5.6086    1.1644 H   0  0  0  0  0  0  0  0  0  0  0  0
    8.4361   -7.5903    0.5777 H   0  0  0  0  0  0  0  0  0  0  0  0
    7.5016   -9.3190   -0.9073 H   0  0  0  0  0  0  0  0  0  0  0  0
    5.5428  -10.3166   -1.9551 H   0  0  0  0  0  0  0  0  0  0  0  0
    3.9773   -9.4889   -1.9015 H   0  0  0  0  0  0  0  0  0  0  0  0
    4.8445   -9.5763   -4.2254 H   0  0  0  0  0  0  0  0  0  0  0  0
    6.3105   -8.7282   -3.7214 H   0  0  0  0  0  0  0  0  0  0  0  0
    4.7525   -7.9040   -3.6604 H   0  0  0  0  0  0  0  0  0  0  0  0
    3.8381   -7.1525   -1.1174 H   0  0  0  0  0  0  0  0  0  0  0  0
   -6.6662    2.1601   -5.1455 H   0  0  0  0  0  0  0  0  0  0  0  0
   -8.3473    1.7868   -6.9001 H   0  0  0  0  0  0  0  0  0  0  0  0
   -7.6595    1.6075   -9.2594 H   0  0  0  0  0  0  0  0  0  0  0  0
   -4.2936    2.3742  -10.4876 H   0  0  0  0  0  0  0  0  0  0  0  0
   -5.9523    1.9699  -10.9527 H   0  0  0  0  0  0  0  0  0  0  0  0
   -5.5532   -0.4058  -10.3166 H   0  0  0  0  0  0  0  0  0  0  0  0
   -3.9088   -0.0070   -9.8242 H   0  0  0  0  0  0  0  0  0  0  0  0
   -4.3767    0.1228  -11.5243 H   0  0  0  0  0  0  0  0  0  0  0  0
   -3.5986    2.2346   -8.1106 H   0  0  0  0  0  0  0  0  0  0  0  0
    1.2554   -1.2866    0.4905 H   0  0  0  0  0  0  0  0  0  0  0  0
    0.5541   -0.0652   -0.5741 H   0  0  0  0  0  0  0  0  0  0  0  0
    2.2426    1.0367    0.8120 H   0  0  0  0  0  0  0  0  0  0  0  0
    3.0088    0.8713   -0.7748 H   0  0  0  0  0  0  0  0  0  0  0  0
    3.4140   -0.2437    0.5243 H   0  0  0  0  0  0  0  0  0  0  0  0
    1.3132    1.3618   -1.8325 H   0  0  0  0  0  0  0  0  0  0  0  0
   -0.1993    2.2966   -1.9162 H   0  0  0  0  0  0  0  0  0  0  0  0
    1.9055    2.0902   -4.1304 H   0  0  0  0  0  0  0  0  0  0  0  0
    1.7013    3.4632   -3.0336 H   0  0  0  0  0  0  0  0  0  0  0  0
    0.4359    3.0701   -4.1983 H   0  0  0  0  0  0  0  0  0  0  0  0
   -3.5435    5.4001   -6.9264 H   0  0  0  0  0  0  0  0  0  0  0  0
   -2.0720    4.1984   -8.4618 H   0  0  0  0  0  0  0  0  0  0  0  0
    0.4117    2.5555   -8.0156 H   0  0  0  0  0  0  0  0  0  0  0  0
    0.3209    3.8423   -9.2143 H   0  0  0  0  0  0  0  0  0  0  0  0
    1.6086    3.8515   -7.9997 H   0  0  0  0  0  0  0  0  0  0  0  0
    1.2235    4.8453   -5.8365 H   0  0  0  0  0  0  0  0  0  0  0  0
   -0.2539    6.0151   -4.2665 H   0  0  0  0  0  0  0  0  0  0  0  0
   -3.4725    6.8707   -2.0248 H   0  0  0  0  0  0  0  0  0  0  0  0
   -2.7198    8.7657   -0.6647 H   0  0  0  0  0  0  0  0  0  0  0  0
   -0.9299   10.5033   -0.3424 H   0  0  0  0  0  0  0  0  0  0  0  0
   -1.8416   11.5771   -1.3983 H   0  0  0  0  0  0  0  0  0  0  0  0
   -0.1527   11.2238   -1.7612 H   0  0  0  0  0  0  0  0  0  0  0  0
   -0.4277   10.2250   -3.9533 H   0  0  0  0  0  0  0  0  0  0  0  0
   -1.2000    8.3454   -5.3300 H   0  0  0  0  0  0  0  0  0  0  0  0
   -8.7420    9.0460   -5.7930 H   0  0  0  0  0  0  0  0  0  0  0  0
  -10.6097   10.4886   -6.4142 H   0  0  0  0  0  0  0  0  0  0  0  0
  -13.6786    9.9178   -6.6206 H   0  0  0  0  0  0  0  0  0  0  0  0
  -13.9835   10.2744   -4.9208 H   0  0  0  0  0  0  0  0  0  0  0  0
  -12.8792   11.2920   -5.8591 H   0  0  0  0  0  0  0  0  0  0  0  0
  -13.2755    8.0372   -4.1621 H   0  0  0  0  0  0  0  0  0  0  0  0
  -11.3998    6.6180   -3.4836 H   0  0  0  0  0  0  0  0  0  0  0  0
   -8.4218    5.2383   -2.1039 H   0  0  0  0  0  0  0  0  0  0  0  0
   -8.9675    2.8496   -2.0465 H   0  0  0  0  0  0  0  0  0  0  0  0
  -10.3947    1.0183   -3.0026 H   0  0  0  0  0  0  0  0  0  0  0  0
   -9.1814    0.7756   -4.2554 H   0  0  0  0  0  0  0  0  0  0  0  0
  -10.8588    1.0754   -4.7104 H   0  0  0  0  0  0  0  0  0  0  0  0
  -10.5637    3.1095   -5.9960 H   0  0  0  0  0  0  0  0  0  0  0  0
  -10.0285    5.5056   -6.0537 H   0  0  0  0  0  0  0  0  0  0  0  0
   -7.1034   10.6902   -3.6748 H   0  0  0  0  0  0  0  0  0  0  0  0
  -11.8671   13.0261   -3.1586 H   0  0  0  0  0  0  0  0  0  0  0  0
  -14.2707   13.4659   -2.7832 H   0  0  0  0  0  0  0  0  0  0  0  0
  -16.4879   12.7183   -1.9548 H   0  0  0  0  0  0  0  0  0  0  0  0
  -14.8220    8.9698   -0.7806 H   0  0  0  0  0  0  0  0  0  0  0  0
  -12.4506    8.4957   -1.1592 H   0  0  0  0  0  0  0  0  0  0  0  0
  1  2  2  0  0  0  0
  2  3  1  0  0  0  0
  3  4  2  0  0  0  0
  3  5  1  0  0  0  0
  5  6  2  0  0  0  0
  6  7  1  0  0  0  0
  7  8  1  0  0  0  0
  8  9  2  0  0  0  0
  8 10  1  0  0  0  0
 10 11  1  0  0  0  0
  7 12  2  0  0  0  0
 12 13  1  0  0  0  0
 13 14  2  0  0  0  0
 14 15  1  0  0  0  0
 15 16  2  0  0  0  0
 16 17  1  0  0  0  0
 17 18  3  0  0  0  0
 16 19  1  0  0  0  0
 19 20  3  0  0  0  0
  1 21  1  0  0  0  0
 21 22  2  0  0  0  0
 22 23  1  0  0  0  0
 23 24  1  0  0  0  0
 24 25  2  0  0  0  0
 25 26  1  0  0  0  0
 26 27  2  0  0  0  0
 27 28  1  0  0  0  0
 27 29  1  0  0  0  0
 29 30  2  0  0  0  0
 23 31  1  0  0  0  0
 31 32  2  0  0  0  0
 32 33  1  0  0  0  0
 33 34  2  0  0  0  0
 34 35  1  0  0  0  0
 34 36  1  0  0  0  0
 36 37  2  0  0  0  0
 22 38  1  0  0  0  0
 38 39  1  0  0  0  0
 39 40  1  0  0  0  0
 40 41  2  0  0  0  0
 41 42  1  0  0  0  0
 42 43  1  0  0  0  0
 43 44  2  0  0  0  0
 44 45  1  0  0  0  0
 45 46  2  0  0  0  0
 46 47  1  0  0  0  0
 46 48  1  0  0  0  0
 48 49  2  0  0  0  0
 42 50  1  0  0  0  0
 50 51  2  0  0  0  0
 51 52  1  0  0  0  0
 52 53  2  0  0  0  0
 53 54  1  0  0  0  0
 53 55  1  0  0  0  0
 55 56  2  0  0  0  0
 41 57  1  0  0  0  0
 57 58  1  0  0  0  0
 40 59  1  0  0  0  0
 59 60  2  0  0  0  0
 60 61  1  0  0  0  0
 61 62  2  0  0  0  0
 62 63  1  0  0  0  0
 63 64  2  0  0  0  0
 64 65  1  0  0  0  0
 65 66  1  0  0  0  0
 66 67  1  0  0  0  0
 65 68  2  0  0  0  0
 60 69  1  0  0  0  0
 69 70  1  0  0  0  0
 70 71  1  0  0  0  0
 71 72  1  0  0  0  0
 72 73  1  0  0  0  0
 73 74  1  0  0  0  0
 74 75  2  0  0  0  0
 75 76  1  0  0  0  0
 76 77  1  0  0  0  0
 74 78  1  0  0  0  0
 78 79  1  0  0  0  0
 79 80  1  0  0  0  0
 80 81  1  0  0  0  0
 81 82  1  0  0  0  0
 82 83  1  0  0  0  0
 83 84  2  0  0  0  0
 84 85  1  0  0  0  0
 85 86  2  0  0  0  0
 86 87  1  0  0  0  0
 87 88  1  0  0  0  0
 88 89  1  0  0  0  0
 87 90  2  0  0  0  0
 82 91  2  0  0  0  0
 91 92  1  0  0  0  0
 92 93  1  0  0  0  0
 93 94  1  0  0  0  0
 94 95  1  0  0  0  0
 95 96  1  0  0  0  0
 96 97  1  0  0  0  0
 97 98  1  0  0  0  0
 98 99  1  0  0  0  0
 99100  1  0  0  0  0
100101  1  0  0  0  0
 98102  1  0  0  0  0
102103  1  0  0  0  0
 95104  1  0  0  0  0
104105  1  0  0  0  0
 91106  1  0  0  0  0
106107  2  0  0  0  0
107108  1  0  0  0  0
108109  1  0  0  0  0
109110  2  0  0  0  0
110111  1  0  0  0  0
111112  2  0  0  0  0
112113  1  0  0  0  0
112114  1  0  0  0  0
114115  2  0  0  0  0
108116  1  0  0  0  0
116117  2  0  0  0  0
117118  1  0  0  0  0
118119  2  0  0  0  0
119120  1  0  0  0  0
119121  1  0  0  0  0
121122  2  0  0  0  0
107123  1  0  0  0  0
123124  1  0  0  0  0
124125  1  0  0  0  0
125126  2  0  0  0  0
126127  1  0  0  0  0
127128  1  0  0  0  0
128129  2  0  0  0  0
129130  1  0  0  0  0
130131  2  0  0  0  0
131132  1  0  0  0  0
131133  1  0  0  0  0
133134  2  0  0  0  0
127135  1  0  0  0  0
135136  2  0  0  0  0
136137  1  0  0  0  0
137138  2  0  0  0  0
138139  1  0  0  0  0
138140  1  0  0  0  0
140141  2  0  0  0  0
126142  1  0  0  0  0
142143  1  0  0  0  0
125144  1  0  0  0  0
144145  2  0  0  0  0
145146  1  0  0  0  0
146147  2  0  0  0  0
146148  1  0  0  0  0
148149  2  0  0  0  0
149150  1  0  0  0  0
150151  2  0  0  0  0
151152  1  0  0  0  0
152153  2  0  0  0  0
153154  1  0  0  0  0
153155  1  0  0  0  0
155156  2  0  0  0  0
156157  1  0  0  0  0
157158  2  0  0  0  0
158159  1  0  0  0  0
159160  2  0  0  0  0
160161  1  0  0  0  0
161162  3  0  0  0  0
160163  1  0  0  0  0
163164  3  0  0  0  0
 15  2  1  0  0  0  0
 58 21  1  0  0  0  0
101 59  1  0  0  0  0
143106  1  0  0  0  0
159145  1  0  0  0  0
 14  5  1  0  0  0  0
 30 24  1  0  0  0  0
 37 31  1  0  0  0  0
 57 38  2  0  0  0  0
 68 61  1  0  0  0  0
100 69  2  0  0  0  0
115109  1  0  0  0  0
122116  1  0  0  0  0
142123  2  0  0  0  0
158148  1  0  0  0  0
 49 43  1  0  0  0  0
 56 50  1  0  0  0  0
 99 71  2  0  0  0  0
134128  1  0  0  0  0
141135  1  0  0  0  0
156150  1  0  0  0  0
 97 72  2  0  0  0  0
 77 73  2  0  0  0  0
 96 78  2  0  0  0  0
 94 79  2  0  0  0  0
 93 81  2  0  0  0  0
 90 83  1  0  0  0  0
  1165  1  0  0  0  0
  6166  1  0  0  0  0
 11167  1  0  0  0  0
 11168  1  0  0  0  0
 11169  1  0  0  0  0
 12170  1  0  0  0  0
 13171  1  0  0  0  0
 25172  1  0  0  0  0
 26173  1  0  0  0  0
 28174  1  0  0  0  0
 28175  1  0  0  0  0
 28176  1  0  0  0  0
 29177  1  0  0  0  0
 30178  1  0  0  0  0
 32179  1  0  0  0  0
 33180  1  0  0  0  0
 35181  1  0  0  0  0
 35182  1  0  0  0  0
 35183  1  0  0  0  0
 36184  1  0  0  0  0
 37185  1  0  0  0  0
 44186  1  0  0  0  0
 45187  1  0  0  0  0
 47188  1  0  0  0  0
 47189  1  0  0  0  0
 47190  1  0  0  0  0
 48191  1  0  0  0  0
 49192  1  0  0  0  0
 51193  1  0  0  0  0
 52194  1  0  0  0  0
 54195  1  0  0  0  0
 54196  1  0  0  0  0
 54197  1  0  0  0  0
 55198  1  0  0  0  0
 56199  1  0  0  0  0
 62200  1  0  0  0  0
 63201  1  0  0  0  0
 64202  1  0  0  0  0
 66203  1  0  0  0  0
 66204  1  0  0  0  0
 67205  1  0  0  0  0
 67206  1  0  0  0  0
 67207  1  0  0  0  0
 68208  1  0  0  0  0
 84209  1  0  0  0  0
 85210  1  0  0  0  0
 86211  1  0  0  0  0
 88212  1  0  0  0  0
 88213  1  0  0  0  0
 89214  1  0  0  0  0
 89215  1  0  0  0  0
 89216  1  0  0  0  0
 90217  1  0  0  0  0
102218  1  0  0  0  0
102219  1  0  0  0  0
103220  1  0  0  0  0
103221  1  0  0  0  0
103222  1  0  0  0  0
104223  1  0  0  0  0
104224  1  0  0  0  0
105225  1  0  0  0  0
105226  1  0  0  0  0
105227  1  0  0  0  0
110228  1  0  0  0  0
111229  1  0  0  0  0
113230  1  0  0  0  0
113231  1  0  0  0  0
113232  1  0  0  0  0
114233  1  0  0  0  0
115234  1  0  0  0  0
117235  1  0  0  0  0
118236  1  0  0  0  0
120237  1  0  0  0  0
120238  1  0  0  0  0
120239  1  0  0  0  0
121240  1  0  0  0  0
122241  1  0  0  0  0
129242  1  0  0  0  0
130243  1  0  0  0  0
132244  1  0  0  0  0
132245  1  0  0  0  0
132246  1  0  0  0  0
133247  1  0  0  0  0
134248  1  0  0  0  0
136249  1  0  0  0  0
137250  1  0  0  0  0
139251  1  0  0  0  0
139252  1  0  0  0  0
139253  1  0  0  0  0
140254  1  0  0  0  0
141255  1  0  0  0  0
144256  1  0  0  0  0
149257  1  0  0  0  0
151258  1  0  0  0  0
152259  1  0  0  0  0
155260  1  0  0  0  0
157261  1  0  0  0  0
M  END
