221

C          0.58360        9.60950       -3.05840
C          0.16410       10.69350       -2.31230
C          0.47290       10.94460       -0.90530
O          1.07420       10.22720       -0.12410
C         -0.06570       12.28830       -0.60440
C         -0.03140       12.98080        0.58530
C         -0.61690       14.24740        0.62200
C         -0.62970       15.06420        1.86170
O         -1.11590       16.16490        1.94620
O         -0.03670       14.44130        2.88980
C         -0.01120       15.15700        4.11510
C         -1.21240       14.77740       -0.52200
C         -1.24670       14.07500       -1.71730
C         -0.66730       12.81610       -1.76100
C         -0.55550       11.82720       -2.83590
C         -1.08480       11.97190       -4.09710
C         -1.10030       10.98270       -5.09820
N         -1.18830       10.22530       -5.95950
C         -1.72240       13.13990       -4.55990
N         -2.23690       14.06170       -5.01280
C          1.23030        8.44420       -2.66470
C          1.60800        7.41820       -3.57420
N          1.59840        7.52290       -4.93720
C          1.93340        8.71630       -5.60440
C          2.92130        9.55780       -5.09870
C          3.23000       10.73140       -5.75660
C          2.58260       11.08670       -6.93450
C          2.89630       12.37080       -7.63770
C          1.62140       10.22280       -7.44680
C          1.29210        9.05200       -6.79400
C          1.35310        6.36590       -5.70240
C          2.13320        6.07200       -6.81570
C          1.87870        4.93410       -7.55540
C          0.85220        4.06490       -7.20630
C          0.59490        2.81690       -7.99240
C          0.07480        4.37110       -6.09490
C          0.31430        5.50780       -5.35050
C          2.01140        6.26470       -2.88260
S          2.55790        4.69140       -3.37430
C          2.82090        4.25310       -1.69510
C          2.43550        5.24740       -0.80560
N          2.41290        5.12660        0.56980
C          2.60610        6.28090        1.35180
C          1.78040        6.54520        2.43900
C          1.95050        7.70580        3.16770
C          2.93570        8.62610        2.83420
C          3.08210        9.91270        3.58590
C          3.77180        8.33930        1.76230
C          3.61580        7.18150        1.02870
C          2.10180        3.91460        1.20020
C          1.15120        3.04530        0.67240
C          0.90030        1.83220        1.28580
C          1.57660        1.45330        2.43700
C          1.31890        0.13290        3.09610
C          2.48820        2.34920        2.98610
C          2.74470        3.56420        2.38640
C          2.00330        6.40420       -1.49930
S          1.51620        7.97620       -0.98510
C          3.36330        2.98680       -1.29920
C          4.37400        2.81690       -0.37240
C          5.29470        3.89720       -0.02520
C          5.81760        4.03420        1.25730
C          6.65660        5.09330        1.54830
C          6.99680        6.01320        0.57110
C          6.52070        5.86910       -0.72620
C          6.88710        6.83930       -1.81550
C          5.69870        7.71180       -2.22590
C          5.67720        4.80610       -1.00940
C          4.39400        1.49320        0.11720
S          5.26290        0.71330        1.41570
C          4.30070       -0.70790        1.18340
C          4.01930       -1.92110        1.83180
C          4.48320       -2.43310        3.06310
C          3.83790       -3.58730        3.61980
N          4.31640       -3.90920        4.81110
S          5.48270       -2.85420        5.19820
N          5.41770       -1.94120        3.86130
C          2.84200       -4.24350        2.86450
C          2.10790       -5.41000        3.12500
S          1.86340       -6.54770        4.40520
C          0.71310       -7.39770        3.39680
C         -0.09860       -8.52550        3.61660
C         -0.04320       -9.34620        4.82310
C          0.07700       -8.75720        6.07840
C          0.14630       -9.55080        7.20710
C          0.10310      -10.92900        7.09680
C         -0.00820      -11.53540        5.85090
C         -0.00490      -13.03240        5.72690
C          1.42950      -13.55940        5.65680
C         -0.07450      -10.73550        4.72240
C         -0.86830       -8.80870        2.49480
S         -0.49470       -7.76800        1.13590
C          0.56680       -6.83040        2.12550
C          1.35010       -5.67990        1.98220
N          1.56970       -4.71130        1.03820
C          2.46110       -3.79470        1.56630
C          2.97240       -2.55320        1.10000
N          2.61770       -1.71700        0.05670
C          3.40650       -0.60310        0.11790
C          3.44900        0.66130       -0.48290
S          2.53350        1.49200       -1.68890
C          1.48410       -1.72110       -0.83540
C          1.89550       -1.99200       -2.28190
C          1.12830       -4.92530       -0.32110
C         -0.37530       -4.70510       -0.49290
C         -1.98490       -9.68820        2.33040
C         -2.89270      -10.00790        3.33310
F         -2.73330       -9.54770        4.58510
C         -4.06300      -10.72030        3.07000
F         -4.89840      -10.93600        4.10430
C         -4.39400      -11.19840        1.81060
C         -3.45240      -10.95260        0.77290
N         -3.69970      -11.40340       -0.46720
C         -2.89260      -11.07460       -1.44640
C         -3.19710      -11.67590       -2.78400
C         -2.38210      -12.95630       -2.98680
C         -1.77500      -10.22630       -1.21060
N         -1.50640       -9.82000        0.00570
C         -2.30600      -10.16430        1.02210
C         -0.88040       -9.69560       -2.28810
C         -1.42270       -8.35270       -2.78460
C         -5.62040      -11.88070        1.50320
C         -6.85740      -11.62910        1.99040
C         -7.94970      -12.63300        1.82190
O         -7.93540      -13.59960        1.09950
C         -9.01200      -12.20380        2.75790
C        -10.19640      -12.83320        3.07710
C        -11.03630      -12.22830        4.01360
C        -12.32230      -12.90170        4.33790
O        -12.67700      -13.94820        3.85670
O        -13.05220      -12.21230        5.22440
C        -14.30110      -12.78800        5.57850
C        -10.66810      -11.02710        4.61960
C         -9.47930      -10.39270        4.29530
C         -8.65050      -10.97720        3.34940
C         -7.38800      -10.52620        2.77030
C         -6.94450       -9.23170        2.76480
C         -5.87320       -8.75320        1.98270
N         -5.04940       -8.28210        1.33590
C         -7.57330       -8.18070        3.46690
N         -8.03800       -7.28670        4.01590
H          0.36990        9.66090       -4.11820
H          0.43050       12.55170        1.46000
H          0.48110       14.50880        4.83550
H         -1.02730       15.39110        4.43910
H          0.54200       16.09130        3.99740
H         -1.65460       15.76020       -0.45490
H         -1.71680       14.51250       -2.58270
H          3.43720        9.29210       -4.18740
H          3.99330       11.37910       -5.34980
H          3.09420       12.19140       -8.69300
H          2.04610       13.04960       -7.57150
H          3.76150       12.85830       -7.19560
H          1.10800       10.47960       -8.36080
H          0.52910        8.40230       -7.19230
H          2.93820        6.73620       -7.09310
H          2.49350        4.71500       -8.41620
H         -0.47340        2.63760       -8.09340
H          1.03090        1.95900       -7.47940
H          1.03760        2.88160       -8.98300
H         -0.73440        3.71320       -5.81370
H         -0.30640        5.74490       -4.49880
H          1.00020        5.84490        2.69950
H          1.29280        7.90630        4.00130
H          4.13020       10.13080        3.78250
H          2.67640       10.72890        2.98810
H          2.54460        9.87840        4.53020
H          4.55390        9.03570        1.49650
H          4.27290        6.96010        0.20290
H          0.60890        3.32310       -0.22000
H          0.16050        1.16940        0.85810
H          0.67950        0.26680        3.96910
H          0.82350       -0.55640        2.41570
H          2.25100       -0.31690        3.43290
H          3.01380        2.08090        3.89100
H          3.45330        4.25230        2.82160
H          5.55950        3.31790        2.02120
H          7.05000        5.20330        2.54800
H          7.64850        6.84010        0.81390
H          7.70500        7.47920       -1.47930
H          7.23150        6.28080       -2.68990
H          5.98210        8.37040       -3.04450
H          5.36420        8.32510       -1.39170
H          4.86490        7.09410       -2.55450
H          5.32620        4.66940       -2.02200
H          0.08830       -7.68220        6.16850
H          0.22920       -9.09050        8.18030
H          0.15250      -11.54320        7.98440
H         -0.54420      -13.33190        4.82560
H         -0.50920      -13.47440        6.58850
H          1.97890      -13.28060        6.55310
H          1.43350      -14.64350        5.56950
H          1.94520      -13.13900        4.79610
H         -0.14490      -11.19500        3.74530
H          0.75250       -2.44160       -0.48410
H          1.02720       -0.72590       -0.78820
H          2.46490       -2.91490       -2.36990
H          1.01080       -2.06390       -2.90810
H          2.51390       -1.17840       -2.65160
H          1.35350       -5.96620       -0.58070
H          1.70670       -4.28570       -0.98380
H         -0.62940       -4.73040       -1.54900
H         -0.69570       -3.75240       -0.07750
H         -0.93080       -5.48820        0.01430
H         -4.25870      -11.92280       -2.80730
H         -2.98120      -10.96540       -3.58190
H         -1.31420      -12.75320       -2.93840
H         -2.62900      -13.67980       -2.21400
H         -2.60900      -13.39300       -3.95590
H         -0.80220      -10.39820       -3.11670
H          0.10980       -9.53960       -1.85840
H         -2.41860       -8.46970       -3.20640
H         -0.76680       -7.94310       -3.54880
H         -1.48000       -7.65180       -1.95570
H         -5.53570      -12.69900        0.79660
H        -10.48000      -13.76790        2.61790
H        -14.76110      -12.10360        6.28650
H        -14.15090      -13.76910        6.03340
H        -14.92890      -12.90500        4.69280
H        -11.32700      -10.58730        5.35150
H         -9.21050       -9.46950        4.78270
