205

C         -4.45450        5.84480       -0.57490
C         -5.22770        4.83620       -0.04560
C         -4.77560        3.43430        0.09000
O         -3.80110        2.90900       -0.40960
C         -5.84710        2.74390        0.83310
C         -5.83680        1.47500        1.36120
C         -6.93890        1.05860        2.10920
C         -6.85860       -0.26950        2.77190
O         -5.82710       -0.89350        2.88310
O         -8.03110       -0.68810        3.24450
C         -8.03010       -1.93680        3.92800
C         -8.03640        1.90540        2.25750
C         -8.05440        3.17550        1.69420
C         -6.94190        3.61010        0.98840
C         -6.61630        4.88700        0.34160
C         -7.50090        5.91600        0.12950
C         -7.19600        7.11290       -0.54690
N         -7.02680        8.10700       -1.09810
C         -8.85500        5.87780        0.51570
N         -9.96720        5.90130        0.80190
C         -3.05070        5.76740       -0.63720
C         -2.17070        6.30870       -1.59370
N         -2.56580        7.00070       -2.70170
C         -3.86670        6.83070       -3.23610
C         -4.63520        7.94320       -3.55600
C         -5.92000        7.77650       -4.03330
C         -6.46220        6.50730       -4.20260
C         -7.87410        6.35000       -4.67430
C         -5.67010        5.40300       -3.91290
C         -4.38030        5.55460       -3.44200
C         -1.66140        7.82490       -3.38930
C         -0.76030        8.62680       -2.69250
C          0.12060        9.43750       -3.38060
C          0.12180        9.48070       -4.76920
C          1.09200       10.34540       -5.51230
C         -0.79340        8.68940       -5.45490
C         -1.67580        7.87040       -4.78100
C         -0.84410        5.89070       -1.33940
S          0.64350        5.97360       -2.22840
C          1.40240        4.83420       -1.11840
C          0.55930        4.47970       -0.07300
N          0.85850        3.59080        0.92470
C         -0.20760        3.01100        1.66860
C         -0.49310        3.49950        2.93840
C         -1.55240        2.97580        3.65220
C         -2.32660        1.94340        3.13190
C         -3.47480        1.40810        3.93130
C         -2.00770        1.44120        1.87730
C         -0.96450        1.97350        1.14140
C          2.17040        3.27220        1.32060
C          2.51630        1.94120        1.54070
C          3.80550        1.61610        1.91080
C          4.77140        2.59970        2.09530
C          6.17420        2.22620        2.46260
C          4.40260        3.92630        1.91440
C          3.12160        4.26530        1.52300
C         -0.70830        5.09320       -0.21140
S         -2.20070        4.85910        0.60540
C          2.53830        4.00770       -1.46530
C          3.90830        4.12950       -1.37300
C          4.60360        5.39150       -1.13670
C          5.86230        5.42160       -0.53760
C          6.49590        6.62830       -0.31400
C          5.89210        7.81960       -0.67910
C          4.64420        7.81150       -1.28780
C          3.98440        9.08520       -1.73490
C          4.18040        9.29700       -3.23650
C          4.01960        6.59640       -1.51920
C          4.53520        2.85760       -1.50320
S          6.17410        2.26520       -1.29350
C          5.62790        0.63130       -1.52250
C          6.08170       -0.70140       -1.43340
C          7.27120       -1.28370       -0.93590
C          7.30460       -2.70050       -0.65890
N          8.44000       -3.07360       -0.09230
S          9.39180       -1.77310        0.07030
N          8.38580       -0.67430       -0.56720
C          6.20320       -3.50920       -1.02430
C          5.89850       -4.87920       -0.86730
S          6.40580       -6.27960        0.03360
C          4.90370       -7.09870       -0.37690
C          4.21780       -8.23280        0.12630
C          4.75370       -9.22460        1.05260
C          5.73780       -8.89730        1.98330
C          6.21480       -9.86110        2.85110
C          5.71930      -11.15300        2.80830
C          4.74480      -11.50180        1.88110
C          4.15830      -12.88380        1.84970
C          2.82900      -12.91040        2.60730
C          4.27750      -10.53420        1.00710
C          2.92910       -8.29830       -0.38170
S          2.60210       -7.05460       -1.57640
C          4.13470       -6.34810       -1.26470
C          4.68690       -5.09250       -1.52480
N          4.21820       -3.93240       -2.07220
C          5.09960       -2.93250       -1.71120
C          4.96830       -1.52510       -1.75190
N          3.86380       -0.72650       -1.96970
C          4.26440        0.56700       -1.80710
C          3.64750        1.82070       -1.76410
S          2.02160        2.36360       -1.83060
C          2.45750       -1.06260       -1.95260
C          2.04430       -1.77900       -0.67020
C          3.25210       -3.97770       -3.14980
C          3.76970       -3.28500       -4.40570
C          1.71920       -8.83430        0.21030
C          1.55550       -8.81930        1.60200
C          0.30420       -8.71240        2.16020
C         -0.84110       -8.66060        1.36290
C         -0.69490       -8.93770        0.00680
F         -1.78180       -8.98240       -0.78390
C          0.56570       -9.01630       -0.56060
F          0.66870       -9.15940       -1.89590
C         -2.09090       -8.08070        1.86680
C         -2.11920       -6.75290        2.10580
C         -0.97810       -5.84180        1.76420
O          0.02580       -6.10620        1.14360
C         -1.36070       -4.52100        2.28670
C         -0.59250       -3.37710        2.33380
C         -1.11920       -2.25630        2.97230
C         -0.21470       -1.08530        3.14460
O          0.66230       -0.79200        2.37080
O         -0.44120       -0.45380        4.29760
C          0.47520        0.57440        4.64860
C         -2.41680       -2.28690        3.48230
C         -3.20590       -3.42400        3.38760
C         -2.66620       -4.56770        2.80970
C         -3.19040       -5.92260        2.65760
C         -4.45590       -6.32960        2.97370
C         -4.92610       -7.65640        2.85800
N         -5.36540       -8.71490        2.80540
C         -5.47290       -5.46920        3.44190
N         -6.34950       -4.82670        3.81030
H         -4.92870        6.74470       -0.94250
H         -4.99180        0.82110        1.21800
H         -9.07290       -2.20230        4.07740
H         -7.51820       -2.70100        3.34120
H         -7.52220       -1.83760        4.88930
H         -8.88370        1.56640        2.83300
H         -8.91820        3.80630        1.82940
H         -4.22770        8.93230       -3.40960
H         -6.51970        8.64460       -4.25930
H         -8.12660        5.30200       -4.81400
H         -8.55840        6.77880       -3.94270
H         -8.02430        6.87570       -5.61590
H         -6.06430        4.40750       -4.05830
H         -3.77660        4.68810       -3.21540
H         -0.76620        8.62480       -1.61230
H          0.81200       10.05660       -2.82800
H          1.39010       11.20090       -4.91090
H          1.98830        9.77390       -5.75580
H          0.65870       10.70210       -6.44380
H         -0.81200        8.71180       -6.53480
H         -2.37760        7.25700       -5.32610
H          0.10770        4.29880        3.34740
H         -1.78820        3.37600        4.62810
H         -4.21290        2.19410        4.09350
H         -3.96590        0.58030        3.42760
H         -3.13030        1.07290        4.90960
H         -2.58380        0.62800        1.46160
H         -0.74140        1.59700        0.15480
H          1.77730        1.16540        1.40780
H          4.06900        0.57770        2.05240
H          6.74090        3.10030        2.77300
H          6.67860        1.77810        1.60570
H          6.18070        1.49570        3.26960
H          5.12660        4.71150        2.07490
H          2.85680        5.30120        1.36700
H          6.33960        4.50340       -0.23610
H          7.47030        6.64050        0.15220
H          6.39410        8.75870       -0.49490
H          2.91470        9.03600       -1.51880
H          4.40740        9.93180       -1.19050
H          3.72160        8.48370       -3.79400
H          5.24050        9.32560       -3.47880
H          3.72740       10.23420       -3.55120
H          3.06690        6.59100       -2.02450
H          6.11670       -7.88880        2.03590
H          6.97740       -9.60090        3.57020
H          6.09590      -11.89810        3.49410
H          4.85000      -13.59390        2.30620
H          3.98740      -13.18900        0.81530
H          2.12340      -12.21280        2.16040
H          2.98030      -12.62400        3.64580
H          2.39610      -13.90750        2.58180
H          3.53620      -10.80210        0.26810
H          1.91400       -0.11760       -2.02160
H          2.19630       -1.64470       -2.83730
H          2.60610       -2.69860       -0.52870
H          2.20830       -1.13830        0.19250
H          0.98560       -2.02090       -0.71430
H          3.08450       -5.03590       -3.36780
H          2.29170       -3.56630       -2.83080
H          4.69010       -3.75880       -4.74000
H          3.97650       -2.23330       -4.22570
H          3.03080       -3.36530       -5.19860
H          2.43070       -8.75840        2.22880
H          0.20300       -8.57310        3.22560
H         -2.95660       -8.71460        2.00030
H          0.40480       -3.36020        1.92150
H         -0.00260        1.16090        5.42830
H          1.40030        0.13030        5.02290
H          0.70400        1.19890        3.78450
H         -2.81630       -1.40550        3.95630
H         -4.21060       -3.40150        3.77600
