205

C          4.77750       -7.87130       -7.79940
C          4.71100       -9.23290       -7.76530
C          4.76070      -10.06020       -6.53300
O          4.86220       -9.69050       -5.38430
C          4.81880      -11.46210       -7.00590
C          4.86380      -12.61650       -6.25350
C          4.93660      -13.83600       -6.92700
C          4.97330      -15.13110       -6.19970
O          5.06930      -16.20720       -6.73570
O          4.88350      -14.97540       -4.87230
C          4.91420      -16.17080       -4.10720
C          4.98090      -13.86740       -8.32120
C          4.94260      -12.70560       -9.07500
C          4.85430      -11.48960       -8.41180
C          4.76960      -10.11880       -8.91080
C          4.65910       -9.75580      -10.22740
C          4.45030       -8.43930      -10.69230
N          4.24790       -7.40860      -11.15560
C          4.69900      -10.66200      -11.30800
N          4.72960      -11.34430      -12.23070
C          4.49070       -6.99620       -6.71260
C          3.52960       -7.25820       -5.70600
N          2.67870       -8.28070       -5.56170
N          2.00150       -7.98910       -4.48950
C          0.97980       -8.85730       -3.97710
C         -0.34830       -8.11610       -3.87660
N          2.29190       -6.86400       -3.90050
C          3.26740       -6.33620       -4.65180
C          3.91410       -5.07510       -4.55920
C          4.82430       -4.83100       -5.59000
C          5.08820       -5.73780       -6.61500
F          6.00200       -5.38690       -7.53370
F          5.49180       -3.65990       -5.61130
C          3.57910       -4.14170       -3.54220
S          4.09930       -2.46340       -3.59710
C          3.15230       -2.12110       -2.21440
C          2.74590       -0.99460       -1.46560
C          1.82600       -1.40020       -0.49850
C          1.63670       -2.89800       -0.52620
C          2.50870       -3.25650       -1.70720
C          2.74260       -4.39050       -2.45970
C          0.22530       -3.36290       -0.82460
C         -0.08980       -4.70400       -0.63970
C         -1.34710       -5.17790       -0.95660
C         -2.32250       -4.32810       -1.46440
C         -3.67280       -4.85930       -1.85100
C         -3.64070       -5.41310       -3.27700
C         -2.00040       -2.99160       -1.65040
C         -0.74000       -2.51210       -1.33960
C          2.12630       -3.45300        0.80010
C          3.38630       -4.01460        0.94110
C          3.80910       -4.47800        2.17410
C          2.99300       -4.38170        3.29260
C          3.43820       -4.92760        4.61870
C          3.01550       -6.39110        4.76220
C          1.73470       -3.81110        3.14510
C          1.30490       -3.35080        1.91600
C          1.32480       -0.31610        0.21320
S          0.10980       -0.10740        1.43910
C          0.30040        1.61010        1.31230
C         -0.36880        2.74730        1.86180
C         -1.43590        2.84010        2.75100
C         -1.92910        4.09710        3.01150
C         -3.10840        4.47740        3.89350
C         -2.83090        4.32480        5.37840
C         -1.55310        4.10990        5.87260
C         -1.33580        4.02230        7.23630
C         -2.38270        4.15220        8.13760
C         -2.13560        4.10160        9.61790
C         -1.83850        5.50200       10.15790
C         -3.65890        4.38010        7.63730
C         -3.88160        4.46740        6.27730
C         -4.31480        3.66860        3.46310
C         -5.18020        4.13390        2.48340
C         -6.24390        3.35750        2.06080
C         -6.46640        2.09710        2.59810
C         -7.58850        1.23230        2.10000
C         -7.10750        0.34910        0.94680
C         -5.59280        1.63250        3.57280
C         -4.53080        2.40560        4.00090
C         -3.21240        5.95480        3.60850
C         -2.17960        6.35620        2.77390
C         -1.38020        5.23820        2.38100
C         -0.29100        5.14860        1.51820
C          0.21410        3.89360        1.27220
C          1.35210        3.50580        0.34260
C          1.09910        4.08590       -1.03430
C          1.54290        5.36620       -1.34090
C          1.28980        5.91740       -2.58210
C          0.58560        5.20970       -3.54760
C          0.36450        5.78840       -4.91510
C          1.52940        5.42850       -5.83960
C          0.13380        3.93580       -3.23190
C          0.37940        3.38210       -1.98900
C          2.72400        3.89390        0.86900
C          2.91780        4.33360        2.16980
C          4.18910        4.64160        2.62100
C          5.29400        4.51210        1.79160
C          6.67640        4.80930        2.29680
C          7.31900        3.54590        2.87300
C          5.09510        4.05510        0.49450
C          3.82860        3.74900        0.03770
C          1.26140        2.00390        0.39840
C          1.85800        0.91250       -0.22920
S          3.01600        0.71630       -1.50830
S         -2.22400        8.03110        2.42810
C         -3.66560        8.20150        3.41170
C         -4.05240        6.99720        3.97800
C         -4.34710        9.44960        3.54580
C         -5.56260        9.57100        4.26810
N         -6.27910        8.66550        4.94990
N         -7.30450        9.32940        5.40340
C         -8.34700        8.69170        6.15500
C         -9.41650        8.14160        5.21610
N         -7.35980       10.59480        5.09610
C         -6.26040       10.80850        4.36440
C         -5.80960       12.00710        3.76440
C         -4.61270       11.86160        3.07700
C         -3.92290       10.64530        2.97530
F         -2.77790       10.67010        2.26420
F         -4.05320       12.91550        2.45440
C         -6.56990       13.21830        3.88400
C         -6.30210       14.47560        3.38340
C         -7.28500       15.41490        3.69830
C         -8.31230       14.87990        4.44240
C         -9.44210       15.54700        4.91450
N        -10.37040       16.10290        5.30000
S         -8.06660       13.19080        4.76480
H          5.08870       -7.38360       -8.71560
H          4.83930      -12.57260       -5.17640
H          5.84960      -16.70720       -4.27920
H          4.08230      -16.82100       -4.38610
H          4.83210      -15.86810       -3.06660
H          5.04680      -14.83030       -8.80520
H          4.98500      -12.76150      -10.15040
H          1.28910       -9.20760       -2.98780
H          0.91950       -9.70640       -4.65920
H         -0.68190       -7.79710       -4.86110
H         -0.23460       -7.23800       -3.24530
H         -1.10250       -8.76930       -3.44690
H          2.33020       -5.36410       -2.27650
H          0.65510       -5.37510       -0.23760
H         -1.57870       -6.22270       -0.80350
H         -3.96850       -5.65460       -1.16350
H         -4.41580       -4.06190       -1.79100
H         -2.92020       -6.22450       -3.35300
H         -3.35180       -4.63340       -3.97820
H         -4.62040       -5.79010       -3.56100
H         -2.74380       -2.31330       -2.04440
H         -0.51310       -1.46880       -1.50190
H          4.04140       -4.09610        0.08640
H          4.79200       -4.91760        2.26700
H          2.99380       -4.34390        5.42730
H          4.52450       -4.85720        4.70270
H          3.33640       -6.78780        5.72250
H          1.93360       -6.48070        4.69260
H          3.45990       -6.99210        3.97190
H          1.08440       -3.72300        4.00360
H          0.32220       -2.91250        1.81730
H         -1.86320        1.95450        3.19590
H         -0.72070        4.00600        5.19220
H         -0.33450        3.84790        7.60400
H         -1.28770        3.44730        9.83000
H         -3.01390        3.69890       10.12670
H         -2.67640        6.16800        9.96380
H         -1.66270        5.46770       11.23060
H         -0.95610        5.91440        9.67380
H         -4.48800        4.48770        8.32240
H         -4.88120        4.63730        5.90440
H         -5.02450        5.11000        2.04750
H         -6.91100        3.73800        1.30010
H         -7.95500        0.59780        2.90970
H         -8.41450        1.85710        1.75450
H         -6.28680       -0.28560        1.27370
H         -7.91600       -0.28390        0.58850
H         -6.75510        0.96440        0.12190
H         -5.74690        0.65310        4.00360
H         -3.86890        2.02940        4.76790
H          0.11930        6.03060        1.05120
H          2.10090        5.93020       -0.60740
H          1.64460        6.91370       -2.80430
H         -0.56410        5.39880       -5.33730
H          0.28060        6.87490       -4.84820
H          1.62160        4.34840       -5.92900
H          1.37260        5.84740       -6.83080
H          2.46300        5.81880       -5.44070
H         -0.42060        3.36920       -3.96650
H          0.00640        2.39320       -1.76410
H          2.07430        4.44340        2.83550
H          4.32140        4.99170        3.63500
H          6.63030        5.57580        3.07310
H          7.29520        5.18650        1.48010
H          8.32080        3.76070        3.23750
H          7.38450        2.77340        2.11010
H          6.72350        3.16120        3.69810
H          5.94160        3.94140       -0.16740
H          3.69160        3.40370       -0.97710
H         -4.91600        6.91830        4.61050
H         -7.89180        7.88500        6.73250
H         -8.77380        9.44200        6.82270
H         -9.85530        8.94870        4.63470
H        -10.20030        7.66000        5.79320
H         -8.98160        7.41220        4.53690
H         -5.42680       14.71290        2.80860
H         -7.25460       16.44700        3.39720
