
  xtb     02112218233D
 energy: -269.899978541159 gnorm: 0.000330269629 xtb: 6.4.1 (unknown)
154170  0     0  0            999 V2000
    2.7690    5.5360   -7.0709 C   0  0  0  0  0  0  0  0  0  0  0  0
    2.6912    6.2323   -8.2476 C   0  0  0  0  0  0  0  0  0  0  0  0
    1.8526    7.4114   -8.5646 C   0  0  0  0  0  0  0  0  0  0  0  0
    1.1986    8.1065   -7.8170 O   0  0  0  0  0  0  0  0  0  0  0  0
    1.9372    7.5733  -10.0325 C   0  0  0  0  0  0  0  0  0  0  0  0
    1.2762    8.4863  -10.8267 C   0  0  0  0  0  0  0  0  0  0  0  0
    1.4984    8.4365  -12.2025 C   0  0  0  0  0  0  0  0  0  0  0  0
    0.8234    9.3731  -13.1396 C   0  0  0  0  0  0  0  0  0  0  0  0
    0.9746    9.3584  -14.3360 O   0  0  0  0  0  0  0  0  0  0  0  0
    0.0205   10.2371  -12.5077 O   0  0  0  0  0  0  0  0  0  0  0  0
   -0.6650   11.1645  -13.3361 C   0  0  0  0  0  0  0  0  0  0  0  0
    2.3670    7.4862  -12.7402 C   0  0  0  0  0  0  0  0  0  0  0  0
    3.0323    6.5727  -11.9385 C   0  0  0  0  0  0  0  0  0  0  0  0
    2.8159    6.6161  -10.5684 C   0  0  0  0  0  0  0  0  0  0  0  0
    3.3486    5.8089   -9.4729 C   0  0  0  0  0  0  0  0  0  0  0  0
    4.3481    4.8794   -9.5967 C   0  0  0  0  0  0  0  0  0  0  0  0
    4.9473    4.1606   -8.5398 C   0  0  0  0  0  0  0  0  0  0  0  0
    5.5048    3.5475   -7.7443 N   0  0  0  0  0  0  0  0  0  0  0  0
    4.9613    4.5338  -10.8202 C   0  0  0  0  0  0  0  0  0  0  0  0
    5.5023    4.1988  -11.7756 N   0  0  0  0  0  0  0  0  0  0  0  0
    2.2506    5.8108   -5.7914 C   0  0  0  0  0  0  0  0  0  0  0  0
    1.6089    6.9018   -5.2362 C   0  0  0  0  0  0  0  0  0  0  0  0
    1.2719    6.7407   -3.8913 C   0  0  0  0  0  0  0  0  0  0  0  0
    0.3619    8.0042   -3.0641 S   0  0  0  0  0  0  0  0  0  0  0  0
   -1.0144    7.0679   -2.3020 C   0  0  0  0  0  0  0  0  0  0  0  0
   -1.7627    6.2172   -3.3080 C   0  0  0  0  0  0  0  0  0  0  0  0
    1.6809    5.5180   -3.3620 C   0  0  0  0  0  0  0  0  0  0  0  0
    2.4401    4.5494   -4.5856 S   0  0  0  0  0  0  0  0  0  0  0  0
    1.5316    4.9786   -2.0518 C   0  0  0  0  0  0  0  0  0  0  0  0
    1.6155    5.6119   -0.8228 C   0  0  0  0  0  0  0  0  0  0  0  0
    2.0479    6.9937   -0.6212 C   0  0  0  0  0  0  0  0  0  0  0  0
    3.1277    7.5075   -1.3354 C   0  0  0  0  0  0  0  0  0  0  0  0
    3.5303    8.8115   -1.1274 C   0  0  0  0  0  0  0  0  0  0  0  0
    2.8632    9.6114   -0.2159 C   0  0  0  0  0  0  0  0  0  0  0  0
    1.7935    9.1108    0.5147 C   0  0  0  0  0  0  0  0  0  0  0  0
    1.0305    9.9851    1.4666 C   0  0  0  0  0  0  0  0  0  0  0  0
   -0.1807   10.5977    0.7606 C   0  0  0  0  0  0  0  0  0  0  0  0
    1.3992    7.7979    0.3096 C   0  0  0  0  0  0  0  0  0  0  0  0
    1.3226    4.7199    0.2288 C   0  0  0  0  0  0  0  0  0  0  0  0
    1.2561    4.9202    1.9636 S   0  0  0  0  0  0  0  0  0  0  0  0
    0.8707    3.2407    2.1175 C   0  0  0  0  0  0  0  0  0  0  0  0
    0.5483    2.3108    3.1192 C   0  0  0  0  0  0  0  0  0  0  0  0
    0.3303    2.4776    4.5041 C   0  0  0  0  0  0  0  0  0  0  0  0
   -0.1390    1.3597    5.2712 C   0  0  0  0  0  0  0  0  0  0  0  0
   -0.3624    1.6736    6.5378 N   0  0  0  0  0  0  0  0  0  0  0  0
   -0.0059    3.2386    6.7487 S   0  0  0  0  0  0  0  0  0  0  0  0
    0.4434    3.5783    5.2311 N   0  0  0  0  0  0  0  0  0  0  0  0
   -0.2461    0.0998    4.6433 C   0  0  0  0  0  0  0  0  0  0  0  0
   -0.5293   -1.1713    5.1656 C   0  0  0  0  0  0  0  0  0  0  0  0
   -0.9669   -1.8984    6.6730 S   0  0  0  0  0  0  0  0  0  0  0  0
   -0.8881   -3.4679    5.9078 C   0  0  0  0  0  0  0  0  0  0  0  0
   -1.0795   -4.7704    6.4036 C   0  0  0  0  0  0  0  0  0  0  0  0
   -1.3500   -5.0312    7.8188 C   0  0  0  0  0  0  0  0  0  0  0  0
   -0.5827   -5.9459    8.5367 C   0  0  0  0  0  0  0  0  0  0  0  0
   -0.8190   -6.1311    9.8849 C   0  0  0  0  0  0  0  0  0  0  0  0
   -1.8097   -5.4075   10.5275 C   0  0  0  0  0  0  0  0  0  0  0  0
   -2.5782   -4.4860    9.8284 C   0  0  0  0  0  0  0  0  0  0  0  0
   -3.6119   -3.6491   10.5243 C   0  0  0  0  0  0  0  0  0  0  0  0
   -3.0213   -2.2882   10.8989 C   0  0  0  0  0  0  0  0  0  0  0  0
   -2.3366   -4.3040    8.4745 C   0  0  0  0  0  0  0  0  0  0  0  0
   -0.9028   -5.7167    5.4043 C   0  0  0  0  0  0  0  0  0  0  0  0
   -0.4574   -4.9910    3.8655 S   0  0  0  0  0  0  0  0  0  0  0  0
   -0.5392   -3.4098    4.5552 C   0  0  0  0  0  0  0  0  0  0  0  0
   -0.3419   -2.0905    4.1292 C   0  0  0  0  0  0  0  0  0  0  0  0
    0.0258   -1.4346    2.9846 N   0  0  0  0  0  0  0  0  0  0  0  0
    0.0687   -0.0817    3.2663 C   0  0  0  0  0  0  0  0  0  0  0  0
    0.3441    1.0610    2.4709 C   0  0  0  0  0  0  0  0  0  0  0  0
    0.5019    1.2417    1.1035 N   0  0  0  0  0  0  0  0  0  0  0  0
    0.8094    2.5628    0.8984 C   0  0  0  0  0  0  0  0  0  0  0  0
    1.0606    3.4118   -0.1860 C   0  0  0  0  0  0  0  0  0  0  0  0
    1.1556    3.2639   -1.9039 S   0  0  0  0  0  0  0  0  0  0  0  0
   -0.1005    0.5034    0.0138 C   0  0  0  0  0  0  0  0  0  0  0  0
   -1.6224    0.6270    0.0470 C   0  0  0  0  0  0  0  0  0  0  0  0
    0.6053   -2.1781    1.8889 C   0  0  0  0  0  0  0  0  0  0  0  0
   -0.4565   -2.8457    1.0165 C   0  0  0  0  0  0  0  0  0  0  0  0
   -1.1002   -7.1219    5.4401 C   0  0  0  0  0  0  0  0  0  0  0  0
   -1.7747   -7.8683    6.3934 C   0  0  0  0  0  0  0  0  0  0  0  0
   -1.8233   -9.2165    6.0763 C   0  0  0  0  0  0  0  0  0  0  0  0
   -2.6251  -10.4006    7.1175 S   0  0  0  0  0  0  0  0  0  0  0  0
   -4.1168  -10.7565    6.1116 C   0  0  0  0  0  0  0  0  0  0  0  0
   -5.0716   -9.5806    6.1065 C   0  0  0  0  0  0  0  0  0  0  0  0
   -1.1678   -9.5519    4.8821 C   0  0  0  0  0  0  0  0  0  0  0  0
   -0.5197   -8.1141    4.1364 S   0  0  0  0  0  0  0  0  0  0  0  0
   -1.0562  -10.8668    4.4124 C   0  0  0  0  0  0  0  0  0  0  0  0
   -0.4444  -11.3569    3.2906 C   0  0  0  0  0  0  0  0  0  0  0  0
    0.3513  -10.5847    2.3147 C   0  0  0  0  0  0  0  0  0  0  0  0
    0.5038   -9.3762    2.2762 O   0  0  0  0  0  0  0  0  0  0  0  0
    0.9260  -11.5811    1.4080 C   0  0  0  0  0  0  0  0  0  0  0  0
    0.4862  -12.8366    1.7791 C   0  0  0  0  0  0  0  0  0  0  0  0
    1.0835  -14.1042    0.7806 S   0  0  0  0  0  0  0  0  0  0  0  0
    1.9663  -12.9268   -0.1756 C   0  0  0  0  0  0  0  0  0  0  0  0
    2.7678  -13.2053   -1.2712 C   0  0  0  0  0  0  0  0  0  0  0  0
    3.3892  -12.1522   -1.9122 C   0  0  0  0  0  0  0  0  0  0  0  0
    3.2175  -10.8381   -1.4726 C   0  0  0  0  0  0  0  0  0  0  0  0
    2.4232  -10.5523   -0.3859 C   0  0  0  0  0  0  0  0  0  0  0  0
    1.7845  -11.6003    0.2802 C   0  0  0  0  0  0  0  0  0  0  0  0
   -0.4011  -12.7587    2.9125 C   0  0  0  0  0  0  0  0  0  0  0  0
   -1.0936  -13.8207    3.4382 C   0  0  0  0  0  0  0  0  0  0  0  0
   -2.0676  -13.7414    4.4509 C   0  0  0  0  0  0  0  0  0  0  0  0
   -2.9024  -13.7344    5.2400 N   0  0  0  0  0  0  0  0  0  0  0  0
   -0.9164  -15.1258    2.9336 C   0  0  0  0  0  0  0  0  0  0  0  0
   -0.7799  -16.1940    2.5370 N   0  0  0  0  0  0  0  0  0  0  0  0
    3.3046    4.5943   -7.1132 H   0  0  0  0  0  0  0  0  0  0  0  0
    0.6076    9.2121  -10.3918 H   0  0  0  0  0  0  0  0  0  0  0  0
   -1.2894   11.7592  -12.6745 H   0  0  0  0  0  0  0  0  0  0  0  0
   -1.2755   10.6365  -14.0715 H   0  0  0  0  0  0  0  0  0  0  0  0
    0.0486   11.7994  -13.8651 H   0  0  0  0  0  0  0  0  0  0  0  0
    2.5090    7.4776  -13.8105 H   0  0  0  0  0  0  0  0  0  0  0  0
    3.6923    5.8476  -12.3854 H   0  0  0  0  0  0  0  0  0  0  0  0
    1.3630    7.7865   -5.7939 H   0  0  0  0  0  0  0  0  0  0  0  0
   -0.6222    6.4728   -1.4787 H   0  0  0  0  0  0  0  0  0  0  0  0
   -1.6531    7.8534   -1.8995 H   0  0  0  0  0  0  0  0  0  0  0  0
   -2.0907    6.8237   -4.1489 H   0  0  0  0  0  0  0  0  0  0  0  0
   -1.1308    5.4159   -3.6864 H   0  0  0  0  0  0  0  0  0  0  0  0
   -2.6359    5.7717   -2.8354 H   0  0  0  0  0  0  0  0  0  0  0  0
    3.6544    6.8798   -2.0390 H   0  0  0  0  0  0  0  0  0  0  0  0
    4.3681    9.2076   -1.6816 H   0  0  0  0  0  0  0  0  0  0  0  0
    3.1787   10.6337   -0.0664 H   0  0  0  0  0  0  0  0  0  0  0  0
    1.6757   10.7842    1.8358 H   0  0  0  0  0  0  0  0  0  0  0  0
    0.6914    9.3954    2.3207 H   0  0  0  0  0  0  0  0  0  0  0  0
   -0.7329   11.2423    1.4404 H   0  0  0  0  0  0  0  0  0  0  0  0
   -0.8468    9.8147    0.4050 H   0  0  0  0  0  0  0  0  0  0  0  0
    0.1393   11.1859   -0.0965 H   0  0  0  0  0  0  0  0  0  0  0  0
    0.5621    7.4014    0.8664 H   0  0  0  0  0  0  0  0  0  0  0  0
    0.1993   -6.4977    8.0368 H   0  0  0  0  0  0  0  0  0  0  0  0
   -0.2241   -6.8412   10.4396 H   0  0  0  0  0  0  0  0  0  0  0  0
   -1.9858   -5.5581   11.5826 H   0  0  0  0  0  0  0  0  0  0  0  0
   -3.9562   -4.1567   11.4272 H   0  0  0  0  0  0  0  0  0  0  0  0
   -4.4706   -3.4990    9.8666 H   0  0  0  0  0  0  0  0  0  0  0  0
   -2.6765   -1.7667   10.0089 H   0  0  0  0  0  0  0  0  0  0  0  0
   -2.1741   -2.4161   11.5689 H   0  0  0  0  0  0  0  0  0  0  0  0
   -3.7680   -1.6738   11.3963 H   0  0  0  0  0  0  0  0  0  0  0  0
   -2.9334   -3.5965    7.9172 H   0  0  0  0  0  0  0  0  0  0  0  0
    0.1935   -0.5415    0.0334 H   0  0  0  0  0  0  0  0  0  0  0  0
    0.2848    0.9398   -0.9112 H   0  0  0  0  0  0  0  0  0  0  0  0
   -2.0194    0.2162    0.9732 H   0  0  0  0  0  0  0  0  0  0  0  0
   -1.9168    1.6721   -0.0173 H   0  0  0  0  0  0  0  0  0  0  0  0
   -2.0573    0.0921   -0.7929 H   0  0  0  0  0  0  0  0  0  0  0  0
    1.2541   -1.5130    1.3174 H   0  0  0  0  0  0  0  0  0  0  0  0
    1.2395   -2.9606    2.3207 H   0  0  0  0  0  0  0  0  0  0  0  0
   -1.1934   -2.1296    0.6639 H   0  0  0  0  0  0  0  0  0  0  0  0
    0.0161   -3.3195    0.1605 H   0  0  0  0  0  0  0  0  0  0  0  0
   -0.9744   -3.6124    1.5861 H   0  0  0  0  0  0  0  0  0  0  0  0
   -2.2379   -7.4549    7.2698 H   0  0  0  0  0  0  0  0  0  0  0  0
   -4.5560  -11.6316    6.5868 H   0  0  0  0  0  0  0  0  0  0  0  0
   -3.7969  -11.0224    5.1056 H   0  0  0  0  0  0  0  0  0  0  0  0
   -4.6081   -8.7106    5.6436 H   0  0  0  0  0  0  0  0  0  0  0  0
   -5.3585   -9.3195    7.1225 H   0  0  0  0  0  0  0  0  0  0  0  0
   -5.9679   -9.8365    5.5448 H   0  0  0  0  0  0  0  0  0  0  0  0
   -1.5110  -11.5950    5.0758 H   0  0  0  0  0  0  0  0  0  0  0  0
    2.8982  -14.2214   -1.6090 H   0  0  0  0  0  0  0  0  0  0  0  0
    4.0181  -12.3483   -2.7672 H   0  0  0  0  0  0  0  0  0  0  0  0
    3.7177  -10.0377   -1.9965 H   0  0  0  0  0  0  0  0  0  0  0  0
    2.2806   -9.5426   -0.0339 H   0  0  0  0  0  0  0  0  0  0  0  0
  1  2  2  0  0  0  0
  2  3  1  0  0  0  0
  3  4  2  0  0  0  0
  3  5  1  0  0  0  0
  5  6  2  0  0  0  0
  6  7  1  0  0  0  0
  7  8  1  0  0  0  0
  8  9  2  0  0  0  0
  8 10  1  0  0  0  0
 10 11  1  0  0  0  0
  7 12  2  0  0  0  0
 12 13  1  0  0  0  0
 13 14  2  0  0  0  0
 14 15  1  0  0  0  0
 15 16  2  0  0  0  0
 16 17  1  0  0  0  0
 17 18  3  0  0  0  0
 16 19  1  0  0  0  0
 19 20  3  0  0  0  0
  1 21  1  0  0  0  0
 21 22  2  0  0  0  0
 22 23  1  0  0  0  0
 23 24  1  0  0  0  0
 24 25  1  0  0  0  0
 25 26  1  0  0  0  0
 23 27  2  0  0  0  0
 27 28  1  0  0  0  0
 27 29  1  0  0  0  0
 29 30  2  0  0  0  0
 30 31  1  0  0  0  0
 31 32  2  0  0  0  0
 32 33  1  0  0  0  0
 33 34  2  0  0  0  0
 34 35  1  0  0  0  0
 35 36  1  0  0  0  0
 36 37  1  0  0  0  0
 35 38  2  0  0  0  0
 30 39  1  0  0  0  0
 39 40  1  0  0  0  0
 40 41  1  0  0  0  0
 41 42  1  0  0  0  0
 42 43  1  0  0  0  0
 43 44  1  0  0  0  0
 44 45  2  0  0  0  0
 45 46  1  0  0  0  0
 46 47  1  0  0  0  0
 44 48  1  0  0  0  0
 48 49  1  0  0  0  0
 49 50  1  0  0  0  0
 50 51  1  0  0  0  0
 51 52  1  0  0  0  0
 52 53  1  0  0  0  0
 53 54  2  0  0  0  0
 54 55  1  0  0  0  0
 55 56  2  0  0  0  0
 56 57  1  0  0  0  0
 57 58  1  0  0  0  0
 58 59  1  0  0  0  0
 57 60  2  0  0  0  0
 52 61  2  0  0  0  0
 61 62  1  0  0  0  0
 62 63  1  0  0  0  0
 63 64  1  0  0  0  0
 64 65  1  0  0  0  0
 65 66  1  0  0  0  0
 66 67  1  0  0  0  0
 67 68  1  0  0  0  0
 68 69  1  0  0  0  0
 69 70  1  0  0  0  0
 70 71  1  0  0  0  0
 68 72  1  0  0  0  0
 72 73  1  0  0  0  0
 65 74  1  0  0  0  0
 74 75  1  0  0  0  0
 61 76  1  0  0  0  0
 76 77  2  0  0  0  0
 77 78  1  0  0  0  0
 78 79  1  0  0  0  0
 79 80  1  0  0  0  0
 80 81  1  0  0  0  0
 78 82  2  0  0  0  0
 82 83  1  0  0  0  0
 82 84  1  0  0  0  0
 84 85  2  0  0  0  0
 85 86  1  0  0  0  0
 86 87  2  0  0  0  0
 86 88  1  0  0  0  0
 88 89  2  0  0  0  0
 89 90  1  0  0  0  0
 90 91  1  0  0  0  0
 91 92  2  0  0  0  0
 92 93  1  0  0  0  0
 93 94  2  0  0  0  0
 94 95  1  0  0  0  0
 95 96  2  0  0  0  0
 89 97  1  0  0  0  0
 97 98  2  0  0  0  0
 98 99  1  0  0  0  0
 99100  3  0  0  0  0
 98101  1  0  0  0  0
101102  3  0  0  0  0
 15  2  1  0  0  0  0
 28 21  1  0  0  0  0
 71 29  1  0  0  0  0
 83 76  1  0  0  0  0
 97 85  1  0  0  0  0
 14  5  1  0  0  0  0
 38 31  1  0  0  0  0
 70 39  2  0  0  0  0
 96 88  1  0  0  0  0
 69 41  2  0  0  0  0
 96 91  1  0  0  0  0
 67 42  2  0  0  0  0
 47 43  2  0  0  0  0
 66 48  2  0  0  0  0
 64 49  2  0  0  0  0
 63 51  2  0  0  0  0
 60 53  1  0  0  0  0
  1103  1  0  0  0  0
  6104  1  0  0  0  0
 11105  1  0  0  0  0
 11106  1  0  0  0  0
 11107  1  0  0  0  0
 12108  1  0  0  0  0
 13109  1  0  0  0  0
 22110  1  0  0  0  0
 25111  1  0  0  0  0
 25112  1  0  0  0  0
 26113  1  0  0  0  0
 26114  1  0  0  0  0
 26115  1  0  0  0  0
 32116  1  0  0  0  0
 33117  1  0  0  0  0
 34118  1  0  0  0  0
 36119  1  0  0  0  0
 36120  1  0  0  0  0
 37121  1  0  0  0  0
 37122  1  0  0  0  0
 37123  1  0  0  0  0
 38124  1  0  0  0  0
 54125  1  0  0  0  0
 55126  1  0  0  0  0
 56127  1  0  0  0  0
 58128  1  0  0  0  0
 58129  1  0  0  0  0
 59130  1  0  0  0  0
 59131  1  0  0  0  0
 59132  1  0  0  0  0
 60133  1  0  0  0  0
 72134  1  0  0  0  0
 72135  1  0  0  0  0
 73136  1  0  0  0  0
 73137  1  0  0  0  0
 73138  1  0  0  0  0
 74139  1  0  0  0  0
 74140  1  0  0  0  0
 75141  1  0  0  0  0
 75142  1  0  0  0  0
 75143  1  0  0  0  0
 77144  1  0  0  0  0
 80145  1  0  0  0  0
 80146  1  0  0  0  0
 81147  1  0  0  0  0
 81148  1  0  0  0  0
 81149  1  0  0  0  0
 84150  1  0  0  0  0
 92151  1  0  0  0  0
 93152  1  0  0  0  0
 94153  1  0  0  0  0
 95154  1  0  0  0  0
M  END
