
  xtb     02052211013D
 energy: -275.815414902198 gnorm: 0.000574959851 xtb: 6.4.1 (unknown)
157172  0     0  0            999 V2000
   -0.3957    3.7617  -10.7792 C   0  0  0  0  0  0  0  0  0  0  0  0
   -1.6279    3.2227  -10.5555 C   0  0  0  0  0  0  0  0  0  0  0  0
   -2.5212    2.8810  -11.6935 C   0  0  0  0  0  0  0  0  0  0  0  0
   -2.4045    3.2373  -12.8420 O   0  0  0  0  0  0  0  0  0  0  0  0
   -3.5366    1.9674  -11.1176 C   0  0  0  0  0  0  0  0  0  0  0  0
   -4.5349    1.2631  -11.7546 C   0  0  0  0  0  0  0  0  0  0  0  0
   -5.3621    0.4426  -10.9844 C   0  0  0  0  0  0  0  0  0  0  0  0
   -6.4397   -0.3104  -11.6796 C   0  0  0  0  0  0  0  0  0  0  0  0
   -6.6347   -0.2678  -12.8681 O   0  0  0  0  0  0  0  0  0  0  0  0
   -7.1779   -1.0460  -10.8373 O   0  0  0  0  0  0  0  0  0  0  0  0
   -8.2308   -1.7923  -11.4302 C   0  0  0  0  0  0  0  0  0  0  0  0
   -5.1703    0.3403   -9.6071 C   0  0  0  0  0  0  0  0  0  0  0  0
   -4.1698    1.0543   -8.9657 C   0  0  0  0  0  0  0  0  0  0  0  0
   -3.3503    1.8756   -9.7240 C   0  0  0  0  0  0  0  0  0  0  0  0
   -2.2637    2.7720   -9.3381 C   0  0  0  0  0  0  0  0  0  0  0  0
   -2.0761    3.3011   -8.0861 C   0  0  0  0  0  0  0  0  0  0  0  0
   -1.2429    4.4133   -7.8457 C   0  0  0  0  0  0  0  0  0  0  0  0
   -0.6212    5.3548   -7.6318 N   0  0  0  0  0  0  0  0  0  0  0  0
   -2.7344    2.8511   -6.9262 C   0  0  0  0  0  0  0  0  0  0  0  0
   -3.2118    2.4989   -5.9428 N   0  0  0  0  0  0  0  0  0  0  0  0
    0.7187    3.7570   -9.9103 C   0  0  0  0  0  0  0  0  0  0  0  0
    1.8110    4.6005   -9.9452 C   0  0  0  0  0  0  0  0  0  0  0  0
    2.7419    4.3723   -8.9267 C   0  0  0  0  0  0  0  0  0  0  0  0
    4.1428    5.3851   -8.6097 S   0  0  0  0  0  0  0  0  0  0  0  0
    3.4268    7.0523   -8.8764 C   0  0  0  0  0  0  0  0  0  0  0  0
    2.3118    7.3608   -7.8980 C   0  0  0  0  0  0  0  0  0  0  0  0
    2.4121    3.2826   -8.1294 C   0  0  0  0  0  0  0  0  0  0  0  0
    0.9110    2.5728   -8.6421 S   0  0  0  0  0  0  0  0  0  0  0  0
    3.0365    2.7574   -6.9672 C   0  0  0  0  0  0  0  0  0  0  0  0
    4.3747    2.6507   -6.6194 C   0  0  0  0  0  0  0  0  0  0  0  0
    5.4923    2.9047   -7.5233 C   0  0  0  0  0  0  0  0  0  0  0  0
    6.6706    3.4772   -7.0500 C   0  0  0  0  0  0  0  0  0  0  0  0
    7.7186    3.7108   -7.9180 C   0  0  0  0  0  0  0  0  0  0  0  0
    7.6069    3.3802   -9.2577 C   0  0  0  0  0  0  0  0  0  0  0  0
    6.4470    2.7919   -9.7442 C   0  0  0  0  0  0  0  0  0  0  0  0
    6.2859    2.4777  -11.2036 C   0  0  0  0  0  0  0  0  0  0  0  0
    5.4805    3.5828  -11.8898 C   0  0  0  0  0  0  0  0  0  0  0  0
    5.4018    2.5508   -8.8670 C   0  0  0  0  0  0  0  0  0  0  0  0
    4.5120    2.1559   -5.3061 C   0  0  0  0  0  0  0  0  0  0  0  0
    5.9050    1.7953   -4.3124 S   0  0  0  0  0  0  0  0  0  0  0  0
    4.8458    1.2575   -3.0534 C   0  0  0  0  0  0  0  0  0  0  0  0
    4.9095    0.8069   -1.7252 C   0  0  0  0  0  0  0  0  0  0  0  0
    5.9971    0.6816   -0.8336 C   0  0  0  0  0  0  0  0  0  0  0  0
    5.7347    0.3498    0.5380 C   0  0  0  0  0  0  0  0  0  0  0  0
    6.8354    0.3324    1.2732 N   0  0  0  0  0  0  0  0  0  0  0  0
    8.0938    0.6958    0.3222 S   0  0  0  0  0  0  0  0  0  0  0  0
    7.2834    0.8920   -1.0654 N   0  0  0  0  0  0  0  0  0  0  0  0
    4.4132    0.0374    0.9255 C   0  0  0  0  0  0  0  0  0  0  0  0
    3.8900   -0.4267    2.1437 C   0  0  0  0  0  0  0  0  0  0  0  0
    4.4191   -0.7613    3.7574 S   0  0  0  0  0  0  0  0  0  0  0  0
    2.8054   -1.3050    4.1450 C   0  0  0  0  0  0  0  0  0  0  0  0
    2.2227   -1.7768    5.3352 C   0  0  0  0  0  0  0  0  0  0  0  0
    2.9252   -1.8464    6.6186 C   0  0  0  0  0  0  0  0  0  0  0  0
    4.1458   -2.5048    6.7210 C   0  0  0  0  0  0  0  0  0  0  0  0
    4.7883   -2.5642    7.9432 C   0  0  0  0  0  0  0  0  0  0  0  0
    4.2237   -1.9726    9.0600 C   0  0  0  0  0  0  0  0  0  0  0  0
    3.0172   -1.2897    8.9683 C   0  0  0  0  0  0  0  0  0  0  0  0
    2.3754   -0.6680   10.1747 C   0  0  0  0  0  0  0  0  0  0  0  0
    1.1494   -1.4723   10.6126 C   0  0  0  0  0  0  0  0  0  0  0  0
    2.3818   -1.2243    7.7377 C   0  0  0  0  0  0  0  0  0  0  0  0
    0.8868   -2.0867    5.1541 C   0  0  0  0  0  0  0  0  0  0  0  0
    0.3382   -1.7571    3.5132 S   0  0  0  0  0  0  0  0  0  0  0  0
    1.9194   -1.2246    3.0670 C   0  0  0  0  0  0  0  0  0  0  0  0
    2.5402   -0.7121    1.9228 C   0  0  0  0  0  0  0  0  0  0  0  0
    2.1940   -0.4094    0.6307 N   0  0  0  0  0  0  0  0  0  0  0  0
    3.3346    0.0663   -0.0017 C   0  0  0  0  0  0  0  0  0  0  0  0
    3.5681    0.5789   -1.3035 C   0  0  0  0  0  0  0  0  0  0  0  0
    2.7191    0.9316   -2.3357 N   0  0  0  0  0  0  0  0  0  0  0  0
    3.4918    1.3364   -3.3910 C   0  0  0  0  0  0  0  0  0  0  0  0
    3.3008    1.8546   -4.6759 C   0  0  0  0  0  0  0  0  0  0  0  0
    1.9550    2.1931   -5.6994 S   0  0  0  0  0  0  0  0  0  0  0  0
    1.3120    1.2643   -2.3121 C   0  0  0  0  0  0  0  0  0  0  0  0
    0.4690    0.2869   -3.1290 C   0  0  0  0  0  0  0  0  0  0  0  0
    1.0483   -1.0807    0.0541 C   0  0  0  0  0  0  0  0  0  0  0  0
    1.4648   -2.3801   -0.6319 C   0  0  0  0  0  0  0  0  0  0  0  0
   -0.0409   -2.6488    6.0733 C   0  0  0  0  0  0  0  0  0  0  0  0
   -1.4133   -2.6262    5.9502 C   0  0  0  0  0  0  0  0  0  0  0  0
   -2.0862   -3.2221    7.0219 C   0  0  0  0  0  0  0  0  0  0  0  0
   -3.8155   -3.4302    7.0959 S   0  0  0  0  0  0  0  0  0  0  0  0
   -4.4290   -2.1896    5.8907 C   0  0  0  0  0  0  0  0  0  0  0  0
   -5.9127   -1.9786    6.1227 C   0  0  0  0  0  0  0  0  0  0  0  0
   -1.2207   -3.7447    7.9916 C   0  0  0  0  0  0  0  0  0  0  0  0
    0.4452   -3.5175    7.4899 S   0  0  0  0  0  0  0  0  0  0  0  0
   -1.4211   -4.3971    9.2175 C   0  0  0  0  0  0  0  0  0  0  0  0
   -2.4794   -4.4350   10.0892 C   0  0  0  0  0  0  0  0  0  0  0  0
   -2.5304   -5.5367   11.0895 C   0  0  0  0  0  0  0  0  0  0  0  0
   -1.6488   -6.3229   11.3468 O   0  0  0  0  0  0  0  0  0  0  0  0
   -3.8944   -5.4764   11.6640 C   0  0  0  0  0  0  0  0  0  0  0  0
   -4.5031   -6.3254   12.5608 C   0  0  0  0  0  0  0  0  0  0  0  0
   -5.8237   -6.0597   12.9335 C   0  0  0  0  0  0  0  0  0  0  0  0
   -6.4771   -6.9838   13.8954 C   0  0  0  0  0  0  0  0  0  0  0  0
   -5.9387   -7.9455   14.3840 O   0  0  0  0  0  0  0  0  0  0  0  0
   -7.7437   -6.6348   14.1654 O   0  0  0  0  0  0  0  0  0  0  0  0
   -8.4329   -7.4747   15.0792 C   0  0  0  0  0  0  0  0  0  0  0  0
   -6.4953   -4.9577   12.4070 C   0  0  0  0  0  0  0  0  0  0  0  0
   -5.8763   -4.0974   11.5122 C   0  0  0  0  0  0  0  0  0  0  0  0
   -4.5684   -4.3585   11.1364 C   0  0  0  0  0  0  0  0  0  0  0  0
   -3.6576   -3.6372   10.2495 C   0  0  0  0  0  0  0  0  0  0  0  0
   -3.8337   -2.3460    9.8041 C   0  0  0  0  0  0  0  0  0  0  0  0
   -2.7924   -1.5795    9.2521 C   0  0  0  0  0  0  0  0  0  0  0  0
   -1.9568   -0.9194    8.8204 N   0  0  0  0  0  0  0  0  0  0  0  0
   -5.0315   -1.6175    9.9170 C   0  0  0  0  0  0  0  0  0  0  0  0
   -5.9917   -0.9867    9.9193 N   0  0  0  0  0  0  0  0  0  0  0  0
   -0.2332    4.1801  -11.7674 H   0  0  0  0  0  0  0  0  0  0  0  0
   -4.6859    1.3370  -12.8207 H   0  0  0  0  0  0  0  0  0  0  0  0
   -8.7475   -2.2902  -10.6139 H   0  0  0  0  0  0  0  0  0  0  0  0
   -7.8272   -2.5241  -12.1329 H   0  0  0  0  0  0  0  0  0  0  0  0
   -8.9100   -1.1281  -11.9683 H   0  0  0  0  0  0  0  0  0  0  0  0
   -5.8169   -0.3071   -9.0360 H   0  0  0  0  0  0  0  0  0  0  0  0
   -4.0335    0.9575   -7.9003 H   0  0  0  0  0  0  0  0  0  0  0  0
    1.8918    5.3962  -10.6635 H   0  0  0  0  0  0  0  0  0  0  0  0
    4.2790    7.7154   -8.7264 H   0  0  0  0  0  0  0  0  0  0  0  0
    3.1004    7.1319   -9.9121 H   0  0  0  0  0  0  0  0  0  0  0  0
    1.9638    8.3805   -8.0498 H   0  0  0  0  0  0  0  0  0  0  0  0
    2.6709    7.2650   -6.8759 H   0  0  0  0  0  0  0  0  0  0  0  0
    1.4685    6.6864   -8.0312 H   0  0  0  0  0  0  0  0  0  0  0  0
    6.7517    3.7600   -6.0120 H   0  0  0  0  0  0  0  0  0  0  0  0
    8.6280    4.1613   -7.5491 H   0  0  0  0  0  0  0  0  0  0  0  0
    8.4285    3.5768   -9.9313 H   0  0  0  0  0  0  0  0  0  0  0  0
    7.2650    2.3943  -11.6783 H   0  0  0  0  0  0  0  0  0  0  0  0
    5.7645    1.5254  -11.3236 H   0  0  0  0  0  0  0  0  0  0  0  0
    5.3679    3.3717  -12.9507 H   0  0  0  0  0  0  0  0  0  0  0  0
    4.4919    3.6617  -11.4427 H   0  0  0  0  0  0  0  0  0  0  0  0
    5.9830    4.5404  -11.7744 H   0  0  0  0  0  0  0  0  0  0  0  0
    4.5057    2.0678   -9.2304 H   0  0  0  0  0  0  0  0  0  0  0  0
    4.5759   -2.9778    5.8510 H   0  0  0  0  0  0  0  0  0  0  0  0
    5.7334   -3.0798    8.0263 H   0  0  0  0  0  0  0  0  0  0  0  0
    4.7292   -2.0355   10.0129 H   0  0  0  0  0  0  0  0  0  0  0  0
    2.0650    0.3530    9.9418 H   0  0  0  0  0  0  0  0  0  0  0  0
    3.0950   -0.6273   10.9945 H   0  0  0  0  0  0  0  0  0  0  0  0
    0.7365   -1.0599   11.5303 H   0  0  0  0  0  0  0  0  0  0  0  0
    1.4202   -2.5111   10.7899 H   0  0  0  0  0  0  0  0  0  0  0  0
    0.3762   -1.4423    9.8485 H   0  0  0  0  0  0  0  0  0  0  0  0
    1.4526   -0.6799    7.6459 H   0  0  0  0  0  0  0  0  0  0  0  0
    0.9838    1.3280   -1.2740 H   0  0  0  0  0  0  0  0  0  0  0  0
    1.2023    2.2630   -2.7502 H   0  0  0  0  0  0  0  0  0  0  0  0
    0.6179   -0.7396   -2.8064 H   0  0  0  0  0  0  0  0  0  0  0  0
    0.7390    0.3535   -4.1795 H   0  0  0  0  0  0  0  0  0  0  0  0
   -0.5829    0.5421   -3.0338 H   0  0  0  0  0  0  0  0  0  0  0  0
    0.3681   -1.3017    0.8805 H   0  0  0  0  0  0  0  0  0  0  0  0
    0.5219   -0.4368   -0.6441 H   0  0  0  0  0  0  0  0  0  0  0  0
    2.1663   -2.1787   -1.4389 H   0  0  0  0  0  0  0  0  0  0  0  0
    0.5912   -2.8820   -1.0391 H   0  0  0  0  0  0  0  0  0  0  0  0
    1.9458   -3.0452    0.0817 H   0  0  0  0  0  0  0  0  0  0  0  0
   -1.8980   -2.1671    5.1080 H   0  0  0  0  0  0  0  0  0  0  0  0
   -3.8689   -1.2721    6.0680 H   0  0  0  0  0  0  0  0  0  0  0  0
   -4.2364   -2.5665    4.8861 H   0  0  0  0  0  0  0  0  0  0  0  0
   -6.2951   -1.2590    5.4024 H   0  0  0  0  0  0  0  0  0  0  0  0
   -6.4561   -2.9132    6.0039 H   0  0  0  0  0  0  0  0  0  0  0  0
   -6.0949   -1.5966    7.1248 H   0  0  0  0  0  0  0  0  0  0  0  0
   -0.5856   -5.0188    9.5316 H   0  0  0  0  0  0  0  0  0  0  0  0
   -3.9855   -7.1787   12.9717 H   0  0  0  0  0  0  0  0  0  0  0  0
   -7.9249   -7.4808   16.0458 H   0  0  0  0  0  0  0  0  0  0  0  0
   -8.4726   -8.4974   14.6986 H   0  0  0  0  0  0  0  0  0  0  0  0
   -9.4340   -7.0624   15.1754 H   0  0  0  0  0  0  0  0  0  0  0  0
   -7.5154   -4.7752   12.7061 H   0  0  0  0  0  0  0  0  0  0  0  0
   -6.4165   -3.2523   11.1164 H   0  0  0  0  0  0  0  0  0  0  0  0
  1  2  2  0  0  0  0
  2  3  1  0  0  0  0
  3  4  2  0  0  0  0
  3  5  1  0  0  0  0
  5  6  2  0  0  0  0
  6  7  1  0  0  0  0
  7  8  1  0  0  0  0
  8  9  2  0  0  0  0
  8 10  1  0  0  0  0
 10 11  1  0  0  0  0
  7 12  2  0  0  0  0
 12 13  1  0  0  0  0
 13 14  2  0  0  0  0
 14 15  1  0  0  0  0
 15 16  2  0  0  0  0
 16 17  1  0  0  0  0
 17 18  3  0  0  0  0
 16 19  1  0  0  0  0
 19 20  3  0  0  0  0
  1 21  1  0  0  0  0
 21 22  2  0  0  0  0
 22 23  1  0  0  0  0
 23 24  1  0  0  0  0
 24 25  1  0  0  0  0
 25 26  1  0  0  0  0
 23 27  2  0  0  0  0
 27 28  1  0  0  0  0
 27 29  1  0  0  0  0
 29 30  2  0  0  0  0
 30 31  1  0  0  0  0
 31 32  2  0  0  0  0
 32 33  1  0  0  0  0
 33 34  2  0  0  0  0
 34 35  1  0  0  0  0
 35 36  1  0  0  0  0
 36 37  1  0  0  0  0
 35 38  2  0  0  0  0
 30 39  1  0  0  0  0
 39 40  1  0  0  0  0
 40 41  1  0  0  0  0
 41 42  1  0  0  0  0
 42 43  1  0  0  0  0
 43 44  1  0  0  0  0
 44 45  2  0  0  0  0
 45 46  1  0  0  0  0
 46 47  1  0  0  0  0
 44 48  1  0  0  0  0
 48 49  1  0  0  0  0
 49 50  1  0  0  0  0
 50 51  1  0  0  0  0
 51 52  1  0  0  0  0
 52 53  1  0  0  0  0
 53 54  2  0  0  0  0
 54 55  1  0  0  0  0
 55 56  2  0  0  0  0
 56 57  1  0  0  0  0
 57 58  1  0  0  0  0
 58 59  1  0  0  0  0
 57 60  2  0  0  0  0
 52 61  2  0  0  0  0
 61 62  1  0  0  0  0
 62 63  1  0  0  0  0
 63 64  1  0  0  0  0
 64 65  1  0  0  0  0
 65 66  1  0  0  0  0
 66 67  1  0  0  0  0
 67 68  1  0  0  0  0
 68 69  1  0  0  0  0
 69 70  1  0  0  0  0
 70 71  1  0  0  0  0
 68 72  1  0  0  0  0
 72 73  1  0  0  0  0
 65 74  1  0  0  0  0
 74 75  1  0  0  0  0
 61 76  1  0  0  0  0
 76 77  2  0  0  0  0
 77 78  1  0  0  0  0
 78 79  1  0  0  0  0
 79 80  1  0  0  0  0
 80 81  1  0  0  0  0
 78 82  2  0  0  0  0
 82 83  1  0  0  0  0
 82 84  1  0  0  0  0
 84 85  2  0  0  0  0
 85 86  1  0  0  0  0
 86 87  2  0  0  0  0
 86 88  1  0  0  0  0
 88 89  2  0  0  0  0
 89 90  1  0  0  0  0
 90 91  1  0  0  0  0
 91 92  2  0  0  0  0
 91 93  1  0  0  0  0
 93 94  1  0  0  0  0
 90 95  2  0  0  0  0
 95 96  1  0  0  0  0
 96 97  2  0  0  0  0
 97 98  1  0  0  0  0
 98 99  2  0  0  0  0
 99100  1  0  0  0  0
100101  3  0  0  0  0
 99102  1  0  0  0  0
102103  3  0  0  0  0
 15  2  1  0  0  0  0
 28 21  1  0  0  0  0
 71 29  1  0  0  0  0
 83 76  1  0  0  0  0
 98 85  1  0  0  0  0
 14  5  1  0  0  0  0
 38 31  1  0  0  0  0
 70 39  2  0  0  0  0
 97 88  1  0  0  0  0
 69 41  2  0  0  0  0
 67 42  2  0  0  0  0
 47 43  2  0  0  0  0
 66 48  2  0  0  0  0
 64 49  2  0  0  0  0
 63 51  2  0  0  0  0
 60 53  1  0  0  0  0
  1104  1  0  0  0  0
  6105  1  0  0  0  0
 11106  1  0  0  0  0
 11107  1  0  0  0  0
 11108  1  0  0  0  0
 12109  1  0  0  0  0
 13110  1  0  0  0  0
 22111  1  0  0  0  0
 25112  1  0  0  0  0
 25113  1  0  0  0  0
 26114  1  0  0  0  0
 26115  1  0  0  0  0
 26116  1  0  0  0  0
 32117  1  0  0  0  0
 33118  1  0  0  0  0
 34119  1  0  0  0  0
 36120  1  0  0  0  0
 36121  1  0  0  0  0
 37122  1  0  0  0  0
 37123  1  0  0  0  0
 37124  1  0  0  0  0
 38125  1  0  0  0  0
 54126  1  0  0  0  0
 55127  1  0  0  0  0
 56128  1  0  0  0  0
 58129  1  0  0  0  0
 58130  1  0  0  0  0
 59131  1  0  0  0  0
 59132  1  0  0  0  0
 59133  1  0  0  0  0
 60134  1  0  0  0  0
 72135  1  0  0  0  0
 72136  1  0  0  0  0
 73137  1  0  0  0  0
 73138  1  0  0  0  0
 73139  1  0  0  0  0
 74140  1  0  0  0  0
 74141  1  0  0  0  0
 75142  1  0  0  0  0
 75143  1  0  0  0  0
 75144  1  0  0  0  0
 77145  1  0  0  0  0
 80146  1  0  0  0  0
 80147  1  0  0  0  0
 81148  1  0  0  0  0
 81149  1  0  0  0  0
 81150  1  0  0  0  0
 84151  1  0  0  0  0
 89152  1  0  0  0  0
 94153  1  0  0  0  0
 94154  1  0  0  0  0
 94155  1  0  0  0  0
 95156  1  0  0  0  0
 96157  1  0  0  0  0
M  END
