261

C         -5.18440        7.37170       -2.89940
C         -5.42430        7.69270       -1.58480
C         -5.24920        9.08830       -1.13620
O         -5.15670       10.07960       -1.82840
C         -5.15360        9.00620        0.34270
C         -4.86290       10.00070        1.24930
C         -4.78220        9.65380        2.59800
O         -4.52380       10.68730        3.48120
C         -3.74050       10.52100        4.56710
O         -3.17700        9.50180        4.85180
C         -3.66720       11.80880        5.33950
C         -5.00330        8.34600        3.01320
C         -5.30400        7.35140        2.09240
C         -5.37790        7.67840        0.75010
C         -5.69770        6.87850       -0.43260
C         -6.38900        5.68770       -0.41910
C         -6.64070        4.95850        0.75260
N         -6.83870        4.33220        1.69650
C         -7.00180        5.15490       -1.57010
N         -7.57570        4.75220       -2.48040
C         -4.78630        6.14830       -3.44140
C         -4.52600        5.89410       -4.80700
N         -4.91190        6.71350       -5.82560
C         -4.18730        6.73880       -7.03080
C         -4.85790        6.80740       -8.24940
C         -4.14380        6.90210       -9.42510
C         -2.75260        6.92380       -9.42310
C         -2.00160        7.06090      -10.71090
C         -2.09260        6.82610       -8.20570
C         -2.79550        6.74050       -7.01930
C         -6.08960        7.49000       -5.73410
C         -7.24440        6.96130       -5.16560
C         -8.38550        7.73400       -5.08640
C         -8.41100        9.03420       -5.57800
C         -9.64340        9.87660       -5.46460
C         -7.25590        9.54430       -6.15870
C         -6.10430        8.78650       -6.23810
C         -3.86640        4.65770       -4.97460
S         -3.19510        3.78520       -6.31720
C         -2.74720        2.45260       -5.26120
C         -3.07460        2.69380       -3.92930
N         -2.85670        1.87880       -2.82760
C         -3.92330        1.76360       -1.91020
C         -5.22640        1.63650       -2.38170
C         -6.27740        1.48890       -1.49710
C         -6.05760        1.43950       -0.12730
C         -7.18290        1.23060        0.83640
C         -4.75440        1.59090        0.33540
C         -3.69950        1.76700       -0.53590
C         -1.64400        1.22950       -2.59510
C         -1.60150        0.06760       -1.82680
C         -0.40630       -0.58520       -1.61130
C          0.77280       -0.14310       -2.19860
C          2.05220       -0.90750       -2.03890
C          0.72680        1.02060       -2.95650
C         -0.45370        1.71430       -3.13420
C         -3.69870        3.95120       -3.79300
S         -4.27940        4.80350       -2.41610
C         -2.01610        1.33510       -5.76520
C         -0.95190        1.35460       -6.64520
C         -0.62290        2.45550       -7.56860
C         -1.42080        2.58220       -8.70340
C         -1.11510        3.50820       -9.68000
C          0.00130        4.31330       -9.53370
C          0.77820        4.20950       -8.39630
C          0.47950        3.29020       -7.39840
C          1.29670        3.27140       -6.13970
C          0.93210        4.47650       -5.26910
C         -0.24380        0.13700       -6.61150
S          1.33340       -0.32710       -7.21230
C          1.23190       -1.78880       -6.28200
C          2.05880       -2.83980       -5.84470
C          3.42450       -3.09970       -6.09120
C          4.11090       -4.05310       -5.26550
N          5.39350       -4.15780       -5.57330
S          5.71070       -3.15070       -6.80210
N          4.22440       -2.53110       -6.97890
C          3.39990       -4.68660       -4.22310
C          3.85740       -5.38140       -3.08990
S          5.34730       -5.70660       -2.25170
C          4.42830       -6.06410       -0.79740
C          4.77880       -6.13800        0.56400
C          6.14950       -6.07710        1.08740
C          6.67460       -7.09760        1.88850
C          5.89490       -8.34980        2.17860
C          5.82280       -9.24530        0.94060
C          7.97050       -6.96220        2.36400
C          8.73480       -5.84790        2.06880
C          8.21370       -4.84850        1.26710
C          6.92890       -4.96780        0.77450
C          3.65030       -6.13640        1.37030
S          2.15190       -6.21660        0.45070
C          3.04960       -6.06160       -1.01630
C          2.72960       -5.65910       -2.31620
N          1.60160       -5.21820       -2.94410
C          1.98570       -4.53730       -4.08300
C          1.30120       -3.61010       -4.91570
N          0.02270       -3.06500       -4.83930
C          0.01270       -1.94090       -5.62340
C         -0.82110       -0.82980       -5.78730
S         -2.26890       -0.25330       -5.04990
C         -1.25430       -3.68460       -4.54770
C         -1.49270       -4.90210       -5.43880
C          0.32720       -5.39350       -2.29110
C         -0.02550       -4.18580       -1.42810
C          3.54120       -5.73220        2.72550
C          2.33680       -5.42780        3.33940
N          1.08330       -5.79880        2.80820
C          0.59540       -6.98420        3.43000
C          1.18820       -8.20330        3.13070
C          0.75830       -9.35840        3.75750
C         -0.26370       -9.32460        4.69600
C         -0.74920      -10.57560        5.36220
C         -0.83760       -8.09550        5.00350
C         -0.41130       -6.93540        4.38910
C          0.18840       -4.77950        2.44250
C          0.61310       -3.46110        2.29970
C         -0.27830       -2.47050        1.93440
C         -1.61060       -2.75970        1.67780
C         -2.60000       -1.68210        1.35210
C         -2.00870       -4.09110        1.74060
C         -1.12860       -5.08940        2.10630
C          2.52330       -4.66280        4.50250
S          1.43840       -3.75610        5.47880
C          2.79210       -2.94680        6.25350
C          4.03390       -3.43850        5.81480
N          5.24970       -2.93060        6.19070
C          5.36370       -1.60460        6.67220
C          6.05300       -1.35170        7.85270
C          6.09510       -0.07000        8.36390
C          5.45750        0.98260        7.71540
C          5.45920        2.35270        8.31950
C          4.81600        0.72630        6.50990
C          4.77400       -0.55000        5.98160
C          6.41850       -3.68750        6.01830
C          6.42580       -5.05650        6.27880
C          7.58500       -5.78640        6.11330
C          8.76470       -5.17920        5.69920
C         10.02390       -5.97860        5.56570
C          8.74970       -3.81270        5.44980
C          7.59590       -3.07090        5.60440
C          3.85660       -4.39970        4.79800
S          4.92150       -5.16610        3.65230
C          2.57800       -1.86730        7.13880
C          1.63380       -0.88850        6.96070
C          0.93860       -0.62790        5.68000
O          1.08780       -1.19600        4.61830
C          0.14230        0.59740        5.89930
C         -0.71030        1.21560        5.00710
C         -1.33550        2.38640        5.42710
O         -2.20610        3.14630        4.67450
C         -2.57750        2.89290        3.40320
O         -2.22340        1.95150        2.74790
C         -3.51420        3.97010        2.92950
C         -1.09410        2.89250        6.70740
C         -0.23030        2.26580        7.58900
C          0.40580        1.10110        7.18170
C          1.36780        0.22220        7.84620
C          1.94840        0.46170        9.06650
C          2.88150       -0.37390        9.71080
N          3.64330       -0.98670       10.31520
C          1.71670        1.62020        9.83420
N          1.59440        2.54760       10.50080
H         -5.16840        8.22220       -3.57260
H         -4.70070       11.01850        0.93210
H         -3.06870       11.66390        6.23330
H         -3.21980       12.57860        4.71500
H         -4.67060       12.13140        5.60620
H         -4.93720        8.09810        4.06020
H         -5.46650        6.34300        2.43500
H         -5.93750        6.79450       -8.26440
H         -4.67460        6.96510      -10.36390
H         -0.95840        7.30370      -10.52770
H         -2.04670        6.12970      -11.27450
H         -2.44140        7.84310      -11.32710
H         -1.01320        6.83280       -8.17950
H         -2.26750        6.70280       -6.07770
H         -7.24740        5.95440       -4.77610
H         -9.27310        7.31270       -4.63840
H         -9.58300       10.50000       -4.57200
H         -9.74510       10.53400       -6.32520
H        -10.53270        9.25640       -5.38400
H         -7.25390       10.55240       -6.54640
H         -5.20930        9.19680       -6.68250
H         -5.41340        1.64260       -3.44610
H         -7.28170        1.39590       -1.88340
H         -8.10600        0.99470        0.31310
H         -6.94870        0.42060        1.52530
H         -7.33960        2.13460        1.42420
H         -4.55640        1.56550        1.39580
H         -2.69900        1.89030       -0.14940
H         -2.51210       -0.32400       -1.40290
H         -0.39720       -1.45340       -0.97040
H          2.21030       -1.56000       -2.90040
H          2.02630       -1.52550       -1.14440
H          2.90280       -0.23200       -1.97690
H          1.63640        1.39890       -3.40190
H         -0.46150        2.63400       -3.69720
H         -2.27690        1.93300       -8.81860
H         -1.73820        3.58760      -10.55790
H          0.26740        5.01940      -10.30570
H          1.64430        4.84550       -8.27770
H          2.35960        3.31310       -6.38670
H          1.11070        2.35020       -5.58750
H          1.18800        5.40470       -5.77500
H          1.46450        4.44070       -4.32120
H         -0.13850        4.48950       -5.06890
H          6.38020       -8.89520        2.99010
H          4.88310       -8.10250        2.50390
H          5.28010      -10.16070        1.16580
H          6.82380       -9.50760        0.60560
H          5.31500       -8.73260        0.12700
H          8.38690       -7.74950        2.97620
H          9.73850       -5.76410        2.45670
H          8.80540       -3.97880        1.02420
H          6.51110       -4.19110        0.15110
H         -1.34580       -3.93970       -3.49540
H         -2.01400       -2.92760       -4.75760
H         -0.71100       -5.64660       -5.30080
H         -1.49530       -4.60620       -6.48560
H         -2.45330       -5.35220       -5.20270
H         -0.43880       -5.60980       -3.03450
H          0.41940       -6.27630       -1.65190
H          0.04790       -3.27140       -2.00960
H          0.66070       -4.11310       -0.58810
H         -1.03000       -4.28330       -1.02520
H          1.98570       -8.24650        2.40500
H          1.22650      -10.30050        3.51050
H         -0.05180      -11.39520        5.20870
H         -1.71600      -10.86750        4.95150
H         -0.87700      -10.41690        6.43130
H         -1.62190       -8.04590        5.74510
H         -0.85080       -5.98430        4.65210
H          1.64080       -3.19420        2.49030
H          0.07270       -1.45180        1.86970
H         -2.11740       -0.71090        1.28670
H         -3.36330       -1.62950        2.12810
H         -3.10640       -1.89010        0.40970
H         -3.03260       -4.35100        1.50870
H         -1.46330       -6.11540        2.14170
H          6.52930       -2.16730        8.37560
H          6.60960        0.11400        9.29470
H          4.98860        3.07400        7.65620
H          6.47700        2.67860        8.52760
H          4.91540        2.34610        9.26440
H          4.33850        1.53490        5.97460
H          4.26590       -0.73710        5.04690
H          5.52560       -5.54010        6.62850
H          7.57670       -6.84620        6.32230
H         10.42620       -6.20930        6.55270
H          9.83000       -6.92070        5.05780
H         10.77930       -5.42630        5.01270
H          9.65450       -3.31900        5.12630
H          7.59800       -2.00990        5.40250
H          3.25200       -1.78920        7.98170
H         -0.87320        0.79150        4.03000
H         -3.43320        4.07400        1.85080
H         -3.29370        4.90940        3.42780
H         -4.53810        3.67990        3.16380
H         -1.59970        3.80070        6.99600
H         -0.06600        2.69030        8.56580
