
  xtb     02072215153D
 energy: -430.009469185099 gnorm: 0.000685352375 xtb: 6.4.1 (unknown)
261286  0     0  0            999 V2000
   -5.1844    7.3717   -2.8994 C   0  0  0  0  0  0  0  0  0  0  0  0
   -5.4243    7.6927   -1.5848 C   0  0  0  0  0  0  0  0  0  0  0  0
   -5.2492    9.0883   -1.1362 C   0  0  0  0  0  0  0  0  0  0  0  0
   -5.1567   10.0796   -1.8284 O   0  0  0  0  0  0  0  0  0  0  0  0
   -5.1536    9.0062    0.3427 C   0  0  0  0  0  0  0  0  0  0  0  0
   -4.8629   10.0007    1.2493 C   0  0  0  0  0  0  0  0  0  0  0  0
   -4.7822    9.6538    2.5980 C   0  0  0  0  0  0  0  0  0  0  0  0
   -4.5238   10.6873    3.4812 O   0  0  0  0  0  0  0  0  0  0  0  0
   -3.7405   10.5210    4.5671 C   0  0  0  0  0  0  0  0  0  0  0  0
   -3.1770    9.5018    4.8518 O   0  0  0  0  0  0  0  0  0  0  0  0
   -3.6672   11.8088    5.3395 C   0  0  0  0  0  0  0  0  0  0  0  0
   -5.0033    8.3460    3.0132 C   0  0  0  0  0  0  0  0  0  0  0  0
   -5.3040    7.3514    2.0924 C   0  0  0  0  0  0  0  0  0  0  0  0
   -5.3779    7.6784    0.7501 C   0  0  0  0  0  0  0  0  0  0  0  0
   -5.6977    6.8785   -0.4326 C   0  0  0  0  0  0  0  0  0  0  0  0
   -6.3890    5.6877   -0.4191 C   0  0  0  0  0  0  0  0  0  0  0  0
   -6.6407    4.9585    0.7526 C   0  0  0  0  0  0  0  0  0  0  0  0
   -6.8387    4.3322    1.6965 N   0  0  0  0  0  0  0  0  0  0  0  0
   -7.0018    5.1549   -1.5701 C   0  0  0  0  0  0  0  0  0  0  0  0
   -7.5757    4.7522   -2.4804 N   0  0  0  0  0  0  0  0  0  0  0  0
   -4.7863    6.1483   -3.4414 C   0  0  0  0  0  0  0  0  0  0  0  0
   -4.5260    5.8941   -4.8070 C   0  0  0  0  0  0  0  0  0  0  0  0
   -4.9119    6.7135   -5.8256 N   0  0  0  0  0  0  0  0  0  0  0  0
   -4.1873    6.7388   -7.0308 C   0  0  0  0  0  0  0  0  0  0  0  0
   -4.8579    6.8074   -8.2494 C   0  0  0  0  0  0  0  0  0  0  0  0
   -4.1438    6.9021   -9.4251 C   0  0  0  0  0  0  0  0  0  0  0  0
   -2.7526    6.9238   -9.4231 C   0  0  0  0  0  0  0  0  0  0  0  0
   -2.0016    7.0609  -10.7109 C   0  0  0  0  0  0  0  0  0  0  0  0
   -2.0926    6.8261   -8.2057 C   0  0  0  0  0  0  0  0  0  0  0  0
   -2.7955    6.7405   -7.0193 C   0  0  0  0  0  0  0  0  0  0  0  0
   -6.0896    7.4900   -5.7341 C   0  0  0  0  0  0  0  0  0  0  0  0
   -7.2444    6.9613   -5.1656 C   0  0  0  0  0  0  0  0  0  0  0  0
   -8.3855    7.7340   -5.0864 C   0  0  0  0  0  0  0  0  0  0  0  0
   -8.4110    9.0342   -5.5780 C   0  0  0  0  0  0  0  0  0  0  0  0
   -9.6434    9.8766   -5.4646 C   0  0  0  0  0  0  0  0  0  0  0  0
   -7.2559    9.5443   -6.1587 C   0  0  0  0  0  0  0  0  0  0  0  0
   -6.1043    8.7865   -6.2381 C   0  0  0  0  0  0  0  0  0  0  0  0
   -3.8664    4.6577   -4.9746 C   0  0  0  0  0  0  0  0  0  0  0  0
   -3.1951    3.7852   -6.3172 S   0  0  0  0  0  0  0  0  0  0  0  0
   -2.7472    2.4526   -5.2612 C   0  0  0  0  0  0  0  0  0  0  0  0
   -3.0746    2.6938   -3.9293 C   0  0  0  0  0  0  0  0  0  0  0  0
   -2.8567    1.8788   -2.8276 N   0  0  0  0  0  0  0  0  0  0  0  0
   -3.9233    1.7636   -1.9102 C   0  0  0  0  0  0  0  0  0  0  0  0
   -5.2264    1.6365   -2.3817 C   0  0  0  0  0  0  0  0  0  0  0  0
   -6.2774    1.4889   -1.4971 C   0  0  0  0  0  0  0  0  0  0  0  0
   -6.0576    1.4395   -0.1273 C   0  0  0  0  0  0  0  0  0  0  0  0
   -7.1829    1.2306    0.8364 C   0  0  0  0  0  0  0  0  0  0  0  0
   -4.7544    1.5909    0.3354 C   0  0  0  0  0  0  0  0  0  0  0  0
   -3.6995    1.7670   -0.5359 C   0  0  0  0  0  0  0  0  0  0  0  0
   -1.6440    1.2295   -2.5951 C   0  0  0  0  0  0  0  0  0  0  0  0
   -1.6015    0.0676   -1.8268 C   0  0  0  0  0  0  0  0  0  0  0  0
   -0.4063   -0.5852   -1.6113 C   0  0  0  0  0  0  0  0  0  0  0  0
    0.7728   -0.1431   -2.1986 C   0  0  0  0  0  0  0  0  0  0  0  0
    2.0522   -0.9075   -2.0389 C   0  0  0  0  0  0  0  0  0  0  0  0
    0.7268    1.0206   -2.9565 C   0  0  0  0  0  0  0  0  0  0  0  0
   -0.4537    1.7143   -3.1342 C   0  0  0  0  0  0  0  0  0  0  0  0
   -3.6987    3.9512   -3.7930 C   0  0  0  0  0  0  0  0  0  0  0  0
   -4.2794    4.8035   -2.4161 S   0  0  0  0  0  0  0  0  0  0  0  0
   -2.0161    1.3351   -5.7652 C   0  0  0  0  0  0  0  0  0  0  0  0
   -0.9519    1.3546   -6.6452 C   0  0  0  0  0  0  0  0  0  0  0  0
   -0.6229    2.4555   -7.5686 C   0  0  0  0  0  0  0  0  0  0  0  0
   -1.4208    2.5822   -8.7034 C   0  0  0  0  0  0  0  0  0  0  0  0
   -1.1151    3.5082   -9.6800 C   0  0  0  0  0  0  0  0  0  0  0  0
    0.0013    4.3133   -9.5337 C   0  0  0  0  0  0  0  0  0  0  0  0
    0.7782    4.2095   -8.3963 C   0  0  0  0  0  0  0  0  0  0  0  0
    0.4795    3.2902   -7.3984 C   0  0  0  0  0  0  0  0  0  0  0  0
    1.2967    3.2714   -6.1397 C   0  0  0  0  0  0  0  0  0  0  0  0
    0.9321    4.4765   -5.2691 C   0  0  0  0  0  0  0  0  0  0  0  0
   -0.2438    0.1370   -6.6115 C   0  0  0  0  0  0  0  0  0  0  0  0
    1.3334   -0.3271   -7.2123 S   0  0  0  0  0  0  0  0  0  0  0  0
    1.2319   -1.7888   -6.2820 C   0  0  0  0  0  0  0  0  0  0  0  0
    2.0588   -2.8398   -5.8447 C   0  0  0  0  0  0  0  0  0  0  0  0
    3.4245   -3.0997   -6.0912 C   0  0  0  0  0  0  0  0  0  0  0  0
    4.1109   -4.0531   -5.2655 C   0  0  0  0  0  0  0  0  0  0  0  0
    5.3935   -4.1578   -5.5733 N   0  0  0  0  0  0  0  0  0  0  0  0
    5.7107   -3.1507   -6.8021 S   0  0  0  0  0  0  0  0  0  0  0  0
    4.2244   -2.5311   -6.9789 N   0  0  0  0  0  0  0  0  0  0  0  0
    3.3999   -4.6866   -4.2231 C   0  0  0  0  0  0  0  0  0  0  0  0
    3.8574   -5.3814   -3.0899 C   0  0  0  0  0  0  0  0  0  0  0  0
    5.3473   -5.7066   -2.2517 S   0  0  0  0  0  0  0  0  0  0  0  0
    4.4283   -6.0641   -0.7974 C   0  0  0  0  0  0  0  0  0  0  0  0
    4.7788   -6.1380    0.5640 C   0  0  0  0  0  0  0  0  0  0  0  0
    6.1495   -6.0771    1.0874 C   0  0  0  0  0  0  0  0  0  0  0  0
    6.6746   -7.0976    1.8885 C   0  0  0  0  0  0  0  0  0  0  0  0
    5.8949   -8.3498    2.1786 C   0  0  0  0  0  0  0  0  0  0  0  0
    5.8228   -9.2453    0.9406 C   0  0  0  0  0  0  0  0  0  0  0  0
    7.9705   -6.9622    2.3640 C   0  0  0  0  0  0  0  0  0  0  0  0
    8.7348   -5.8479    2.0688 C   0  0  0  0  0  0  0  0  0  0  0  0
    8.2137   -4.8485    1.2671 C   0  0  0  0  0  0  0  0  0  0  0  0
    6.9289   -4.9678    0.7745 C   0  0  0  0  0  0  0  0  0  0  0  0
    3.6503   -6.1364    1.3703 C   0  0  0  0  0  0  0  0  0  0  0  0
    2.1519   -6.2166    0.4507 S   0  0  0  0  0  0  0  0  0  0  0  0
    3.0496   -6.0616   -1.0163 C   0  0  0  0  0  0  0  0  0  0  0  0
    2.7296   -5.6591   -2.3162 C   0  0  0  0  0  0  0  0  0  0  0  0
    1.6016   -5.2182   -2.9441 N   0  0  0  0  0  0  0  0  0  0  0  0
    1.9857   -4.5373   -4.0830 C   0  0  0  0  0  0  0  0  0  0  0  0
    1.3012   -3.6101   -4.9157 C   0  0  0  0  0  0  0  0  0  0  0  0
    0.0227   -3.0650   -4.8393 N   0  0  0  0  0  0  0  0  0  0  0  0
    0.0127   -1.9409   -5.6234 C   0  0  0  0  0  0  0  0  0  0  0  0
   -0.8211   -0.8298   -5.7873 C   0  0  0  0  0  0  0  0  0  0  0  0
   -2.2689   -0.2533   -5.0499 S   0  0  0  0  0  0  0  0  0  0  0  0
   -1.2543   -3.6846   -4.5477 C   0  0  0  0  0  0  0  0  0  0  0  0
   -1.4927   -4.9021   -5.4388 C   0  0  0  0  0  0  0  0  0  0  0  0
    0.3272   -5.3935   -2.2911 C   0  0  0  0  0  0  0  0  0  0  0  0
   -0.0255   -4.1858   -1.4281 C   0  0  0  0  0  0  0  0  0  0  0  0
    3.5412   -5.7322    2.7255 C   0  0  0  0  0  0  0  0  0  0  0  0
    2.3368   -5.4278    3.3394 C   0  0  0  0  0  0  0  0  0  0  0  0
    1.0833   -5.7988    2.8082 N   0  0  0  0  0  0  0  0  0  0  0  0
    0.5954   -6.9842    3.4300 C   0  0  0  0  0  0  0  0  0  0  0  0
    1.1882   -8.2033    3.1307 C   0  0  0  0  0  0  0  0  0  0  0  0
    0.7583   -9.3584    3.7575 C   0  0  0  0  0  0  0  0  0  0  0  0
   -0.2637   -9.3246    4.6960 C   0  0  0  0  0  0  0  0  0  0  0  0
   -0.7492  -10.5756    5.3622 C   0  0  0  0  0  0  0  0  0  0  0  0
   -0.8376   -8.0955    5.0035 C   0  0  0  0  0  0  0  0  0  0  0  0
   -0.4113   -6.9354    4.3891 C   0  0  0  0  0  0  0  0  0  0  0  0
    0.1884   -4.7795    2.4425 C   0  0  0  0  0  0  0  0  0  0  0  0
    0.6131   -3.4611    2.2997 C   0  0  0  0  0  0  0  0  0  0  0  0
   -0.2783   -2.4705    1.9344 C   0  0  0  0  0  0  0  0  0  0  0  0
   -1.6106   -2.7597    1.6778 C   0  0  0  0  0  0  0  0  0  0  0  0
   -2.6000   -1.6821    1.3521 C   0  0  0  0  0  0  0  0  0  0  0  0
   -2.0087   -4.0911    1.7406 C   0  0  0  0  0  0  0  0  0  0  0  0
   -1.1286   -5.0894    2.1063 C   0  0  0  0  0  0  0  0  0  0  0  0
    2.5233   -4.6628    4.5025 C   0  0  0  0  0  0  0  0  0  0  0  0
    1.4384   -3.7561    5.4788 S   0  0  0  0  0  0  0  0  0  0  0  0
    2.7921   -2.9468    6.2535 C   0  0  0  0  0  0  0  0  0  0  0  0
    4.0339   -3.4385    5.8148 C   0  0  0  0  0  0  0  0  0  0  0  0
    5.2497   -2.9306    6.1907 N   0  0  0  0  0  0  0  0  0  0  0  0
    5.3637   -1.6046    6.6722 C   0  0  0  0  0  0  0  0  0  0  0  0
    6.0530   -1.3517    7.8527 C   0  0  0  0  0  0  0  0  0  0  0  0
    6.0951   -0.0700    8.3639 C   0  0  0  0  0  0  0  0  0  0  0  0
    5.4575    0.9826    7.7154 C   0  0  0  0  0  0  0  0  0  0  0  0
    5.4592    2.3527    8.3195 C   0  0  0  0  0  0  0  0  0  0  0  0
    4.8160    0.7263    6.5099 C   0  0  0  0  0  0  0  0  0  0  0  0
    4.7740   -0.5500    5.9816 C   0  0  0  0  0  0  0  0  0  0  0  0
    6.4185   -3.6875    6.0183 C   0  0  0  0  0  0  0  0  0  0  0  0
    6.4258   -5.0565    6.2788 C   0  0  0  0  0  0  0  0  0  0  0  0
    7.5850   -5.7864    6.1133 C   0  0  0  0  0  0  0  0  0  0  0  0
    8.7647   -5.1792    5.6992 C   0  0  0  0  0  0  0  0  0  0  0  0
   10.0239   -5.9786    5.5657 C   0  0  0  0  0  0  0  0  0  0  0  0
    8.7497   -3.8127    5.4498 C   0  0  0  0  0  0  0  0  0  0  0  0
    7.5959   -3.0709    5.6044 C   0  0  0  0  0  0  0  0  0  0  0  0
    3.8566   -4.3997    4.7980 C   0  0  0  0  0  0  0  0  0  0  0  0
    4.9215   -5.1661    3.6523 S   0  0  0  0  0  0  0  0  0  0  0  0
    2.5780   -1.8673    7.1388 C   0  0  0  0  0  0  0  0  0  0  0  0
    1.6338   -0.8885    6.9607 C   0  0  0  0  0  0  0  0  0  0  0  0
    0.9386   -0.6279    5.6800 C   0  0  0  0  0  0  0  0  0  0  0  0
    1.0878   -1.1960    4.6183 O   0  0  0  0  0  0  0  0  0  0  0  0
    0.1423    0.5974    5.8993 C   0  0  0  0  0  0  0  0  0  0  0  0
   -0.7103    1.2156    5.0071 C   0  0  0  0  0  0  0  0  0  0  0  0
   -1.3355    2.3864    5.4271 C   0  0  0  0  0  0  0  0  0  0  0  0
   -2.2061    3.1463    4.6745 O   0  0  0  0  0  0  0  0  0  0  0  0
   -2.5775    2.8929    3.4032 C   0  0  0  0  0  0  0  0  0  0  0  0
   -2.2234    1.9515    2.7479 O   0  0  0  0  0  0  0  0  0  0  0  0
   -3.5142    3.9701    2.9295 C   0  0  0  0  0  0  0  0  0  0  0  0
   -1.0941    2.8925    6.7074 C   0  0  0  0  0  0  0  0  0  0  0  0
   -0.2303    2.2658    7.5890 C   0  0  0  0  0  0  0  0  0  0  0  0
    0.4058    1.1011    7.1817 C   0  0  0  0  0  0  0  0  0  0  0  0
    1.3678    0.2222    7.8462 C   0  0  0  0  0  0  0  0  0  0  0  0
    1.9484    0.4617    9.0665 C   0  0  0  0  0  0  0  0  0  0  0  0
    2.8815   -0.3739    9.7108 C   0  0  0  0  0  0  0  0  0  0  0  0
    3.6433   -0.9867   10.3152 N   0  0  0  0  0  0  0  0  0  0  0  0
    1.7167    1.6202    9.8342 C   0  0  0  0  0  0  0  0  0  0  0  0
    1.5944    2.5476   10.5008 N   0  0  0  0  0  0  0  0  0  0  0  0
   -5.1684    8.2222   -3.5726 H   0  0  0  0  0  0  0  0  0  0  0  0
   -4.7007   11.0185    0.9321 H   0  0  0  0  0  0  0  0  0  0  0  0
   -3.0687   11.6639    6.2333 H   0  0  0  0  0  0  0  0  0  0  0  0
   -3.2198   12.5786    4.7150 H   0  0  0  0  0  0  0  0  0  0  0  0
   -4.6706   12.1314    5.6062 H   0  0  0  0  0  0  0  0  0  0  0  0
   -4.9372    8.0981    4.0602 H   0  0  0  0  0  0  0  0  0  0  0  0
   -5.4665    6.3430    2.4350 H   0  0  0  0  0  0  0  0  0  0  0  0
   -5.9375    6.7945   -8.2644 H   0  0  0  0  0  0  0  0  0  0  0  0
   -4.6746    6.9651  -10.3639 H   0  0  0  0  0  0  0  0  0  0  0  0
   -0.9584    7.3037  -10.5277 H   0  0  0  0  0  0  0  0  0  0  0  0
   -2.0467    6.1297  -11.2745 H   0  0  0  0  0  0  0  0  0  0  0  0
   -2.4414    7.8431  -11.3271 H   0  0  0  0  0  0  0  0  0  0  0  0
   -1.0132    6.8328   -8.1795 H   0  0  0  0  0  0  0  0  0  0  0  0
   -2.2675    6.7028   -6.0777 H   0  0  0  0  0  0  0  0  0  0  0  0
   -7.2474    5.9544   -4.7761 H   0  0  0  0  0  0  0  0  0  0  0  0
   -9.2731    7.3127   -4.6384 H   0  0  0  0  0  0  0  0  0  0  0  0
   -9.5830   10.5000   -4.5720 H   0  0  0  0  0  0  0  0  0  0  0  0
   -9.7451   10.5340   -6.3252 H   0  0  0  0  0  0  0  0  0  0  0  0
  -10.5327    9.2564   -5.3840 H   0  0  0  0  0  0  0  0  0  0  0  0
   -7.2539   10.5524   -6.5464 H   0  0  0  0  0  0  0  0  0  0  0  0
   -5.2093    9.1968   -6.6825 H   0  0  0  0  0  0  0  0  0  0  0  0
   -5.4134    1.6426   -3.4461 H   0  0  0  0  0  0  0  0  0  0  0  0
   -7.2817    1.3959   -1.8834 H   0  0  0  0  0  0  0  0  0  0  0  0
   -8.1060    0.9947    0.3131 H   0  0  0  0  0  0  0  0  0  0  0  0
   -6.9487    0.4206    1.5253 H   0  0  0  0  0  0  0  0  0  0  0  0
   -7.3396    2.1346    1.4242 H   0  0  0  0  0  0  0  0  0  0  0  0
   -4.5564    1.5655    1.3958 H   0  0  0  0  0  0  0  0  0  0  0  0
   -2.6990    1.8903   -0.1494 H   0  0  0  0  0  0  0  0  0  0  0  0
   -2.5121   -0.3240   -1.4029 H   0  0  0  0  0  0  0  0  0  0  0  0
   -0.3972   -1.4534   -0.9704 H   0  0  0  0  0  0  0  0  0  0  0  0
    2.2103   -1.5600   -2.9004 H   0  0  0  0  0  0  0  0  0  0  0  0
    2.0263   -1.5255   -1.1444 H   0  0  0  0  0  0  0  0  0  0  0  0
    2.9028   -0.2320   -1.9769 H   0  0  0  0  0  0  0  0  0  0  0  0
    1.6364    1.3989   -3.4019 H   0  0  0  0  0  0  0  0  0  0  0  0
   -0.4615    2.6340   -3.6972 H   0  0  0  0  0  0  0  0  0  0  0  0
   -2.2769    1.9330   -8.8186 H   0  0  0  0  0  0  0  0  0  0  0  0
   -1.7382    3.5876  -10.5579 H   0  0  0  0  0  0  0  0  0  0  0  0
    0.2674    5.0194  -10.3057 H   0  0  0  0  0  0  0  0  0  0  0  0
    1.6443    4.8455   -8.2777 H   0  0  0  0  0  0  0  0  0  0  0  0
    2.3596    3.3131   -6.3867 H   0  0  0  0  0  0  0  0  0  0  0  0
    1.1107    2.3502   -5.5875 H   0  0  0  0  0  0  0  0  0  0  0  0
    1.1880    5.4047   -5.7750 H   0  0  0  0  0  0  0  0  0  0  0  0
    1.4645    4.4407   -4.3212 H   0  0  0  0  0  0  0  0  0  0  0  0
   -0.1385    4.4895   -5.0689 H   0  0  0  0  0  0  0  0  0  0  0  0
    6.3802   -8.8952    2.9901 H   0  0  0  0  0  0  0  0  0  0  0  0
    4.8831   -8.1025    2.5039 H   0  0  0  0  0  0  0  0  0  0  0  0
    5.2801  -10.1607    1.1658 H   0  0  0  0  0  0  0  0  0  0  0  0
    6.8238   -9.5076    0.6056 H   0  0  0  0  0  0  0  0  0  0  0  0
    5.3150   -8.7326    0.1270 H   0  0  0  0  0  0  0  0  0  0  0  0
    8.3869   -7.7495    2.9762 H   0  0  0  0  0  0  0  0  0  0  0  0
    9.7385   -5.7641    2.4567 H   0  0  0  0  0  0  0  0  0  0  0  0
    8.8054   -3.9788    1.0242 H   0  0  0  0  0  0  0  0  0  0  0  0
    6.5111   -4.1911    0.1511 H   0  0  0  0  0  0  0  0  0  0  0  0
   -1.3458   -3.9397   -3.4954 H   0  0  0  0  0  0  0  0  0  0  0  0
   -2.0140   -2.9276   -4.7576 H   0  0  0  0  0  0  0  0  0  0  0  0
   -0.7110   -5.6466   -5.3008 H   0  0  0  0  0  0  0  0  0  0  0  0
   -1.4953   -4.6062   -6.4856 H   0  0  0  0  0  0  0  0  0  0  0  0
   -2.4533   -5.3522   -5.2027 H   0  0  0  0  0  0  0  0  0  0  0  0
   -0.4388   -5.6098   -3.0345 H   0  0  0  0  0  0  0  0  0  0  0  0
    0.4194   -6.2763   -1.6519 H   0  0  0  0  0  0  0  0  0  0  0  0
    0.0479   -3.2714   -2.0096 H   0  0  0  0  0  0  0  0  0  0  0  0
    0.6607   -4.1131   -0.5881 H   0  0  0  0  0  0  0  0  0  0  0  0
   -1.0300   -4.2833   -1.0252 H   0  0  0  0  0  0  0  0  0  0  0  0
    1.9857   -8.2465    2.4050 H   0  0  0  0  0  0  0  0  0  0  0  0
    1.2265  -10.3005    3.5105 H   0  0  0  0  0  0  0  0  0  0  0  0
   -0.0518  -11.3952    5.2087 H   0  0  0  0  0  0  0  0  0  0  0  0
   -1.7160  -10.8675    4.9515 H   0  0  0  0  0  0  0  0  0  0  0  0
   -0.8770  -10.4169    6.4313 H   0  0  0  0  0  0  0  0  0  0  0  0
   -1.6219   -8.0459    5.7451 H   0  0  0  0  0  0  0  0  0  0  0  0
   -0.8508   -5.9843    4.6521 H   0  0  0  0  0  0  0  0  0  0  0  0
    1.6408   -3.1942    2.4903 H   0  0  0  0  0  0  0  0  0  0  0  0
    0.0727   -1.4518    1.8697 H   0  0  0  0  0  0  0  0  0  0  0  0
   -2.1174   -0.7109    1.2867 H   0  0  0  0  0  0  0  0  0  0  0  0
   -3.3633   -1.6295    2.1281 H   0  0  0  0  0  0  0  0  0  0  0  0
   -3.1064   -1.8901    0.4097 H   0  0  0  0  0  0  0  0  0  0  0  0
   -3.0326   -4.3510    1.5087 H   0  0  0  0  0  0  0  0  0  0  0  0
   -1.4633   -6.1154    2.1417 H   0  0  0  0  0  0  0  0  0  0  0  0
    6.5293   -2.1673    8.3756 H   0  0  0  0  0  0  0  0  0  0  0  0
    6.6096    0.1140    9.2947 H   0  0  0  0  0  0  0  0  0  0  0  0
    4.9886    3.0740    7.6562 H   0  0  0  0  0  0  0  0  0  0  0  0
    6.4770    2.6786    8.5276 H   0  0  0  0  0  0  0  0  0  0  0  0
    4.9154    2.3461    9.2644 H   0  0  0  0  0  0  0  0  0  0  0  0
    4.3385    1.5349    5.9746 H   0  0  0  0  0  0  0  0  0  0  0  0
    4.2659   -0.7371    5.0469 H   0  0  0  0  0  0  0  0  0  0  0  0
    5.5256   -5.5401    6.6285 H   0  0  0  0  0  0  0  0  0  0  0  0
    7.5767   -6.8462    6.3223 H   0  0  0  0  0  0  0  0  0  0  0  0
   10.4262   -6.2093    6.5527 H   0  0  0  0  0  0  0  0  0  0  0  0
    9.8300   -6.9207    5.0578 H   0  0  0  0  0  0  0  0  0  0  0  0
   10.7793   -5.4263    5.0127 H   0  0  0  0  0  0  0  0  0  0  0  0
    9.6545   -3.3190    5.1263 H   0  0  0  0  0  0  0  0  0  0  0  0
    7.5980   -2.0099    5.4025 H   0  0  0  0  0  0  0  0  0  0  0  0
    3.2520   -1.7892    7.9817 H   0  0  0  0  0  0  0  0  0  0  0  0
   -0.8732    0.7915    4.0300 H   0  0  0  0  0  0  0  0  0  0  0  0
   -3.4332    4.0740    1.8508 H   0  0  0  0  0  0  0  0  0  0  0  0
   -3.2937    4.9094    3.4278 H   0  0  0  0  0  0  0  0  0  0  0  0
   -4.5381    3.6799    3.1638 H   0  0  0  0  0  0  0  0  0  0  0  0
   -1.5997    3.8007    6.9960 H   0  0  0  0  0  0  0  0  0  0  0  0
   -0.0660    2.6903    8.5658 H   0  0  0  0  0  0  0  0  0  0  0  0
  1  2  2  0  0  0  0
  2  3  1  0  0  0  0
  3  4  2  0  0  0  0
  3  5  1  0  0  0  0
  5  6  2  0  0  0  0
  6  7  1  0  0  0  0
  7  8  1  0  0  0  0
  8  9  1  0  0  0  0
  9 10  2  0  0  0  0
  9 11  1  0  0  0  0
  7 12  2  0  0  0  0
 12 13  1  0  0  0  0
 13 14  2  0  0  0  0
 14 15  1  0  0  0  0
 15 16  2  0  0  0  0
 16 17  1  0  0  0  0
 17 18  3  0  0  0  0
 16 19  1  0  0  0  0
 19 20  3  0  0  0  0
  1 21  1  0  0  0  0
 21 22  2  0  0  0  0
 22 23  1  0  0  0  0
 23 24  1  0  0  0  0
 24 25  2  0  0  0  0
 25 26  1  0  0  0  0
 26 27  2  0  0  0  0
 27 28  1  0  0  0  0
 27 29  1  0  0  0  0
 29 30  2  0  0  0  0
 23 31  1  0  0  0  0
 31 32  2  0  0  0  0
 32 33  1  0  0  0  0
 33 34  2  0  0  0  0
 34 35  1  0  0  0  0
 34 36  1  0  0  0  0
 36 37  2  0  0  0  0
 22 38  1  0  0  0  0
 38 39  1  0  0  0  0
 39 40  1  0  0  0  0
 40 41  2  0  0  0  0
 41 42  1  0  0  0  0
 42 43  1  0  0  0  0
 43 44  2  0  0  0  0
 44 45  1  0  0  0  0
 45 46  2  0  0  0  0
 46 47  1  0  0  0  0
 46 48  1  0  0  0  0
 48 49  2  0  0  0  0
 42 50  1  0  0  0  0
 50 51  2  0  0  0  0
 51 52  1  0  0  0  0
 52 53  2  0  0  0  0
 53 54  1  0  0  0  0
 53 55  1  0  0  0  0
 55 56  2  0  0  0  0
 41 57  1  0  0  0  0
 57 58  1  0  0  0  0
 40 59  1  0  0  0  0
 59 60  2  0  0  0  0
 60 61  1  0  0  0  0
 61 62  2  0  0  0  0
 62 63  1  0  0  0  0
 63 64  2  0  0  0  0
 64 65  1  0  0  0  0
 65 66  2  0  0  0  0
 66 67  1  0  0  0  0
 67 68  1  0  0  0  0
 60 69  1  0  0  0  0
 69 70  1  0  0  0  0
 70 71  1  0  0  0  0
 71 72  1  0  0  0  0
 72 73  1  0  0  0  0
 73 74  1  0  0  0  0
 74 75  2  0  0  0  0
 75 76  1  0  0  0  0
 76 77  1  0  0  0  0
 74 78  1  0  0  0  0
 78 79  1  0  0  0  0
 79 80  1  0  0  0  0
 80 81  1  0  0  0  0
 81 82  1  0  0  0  0
 82 83  1  0  0  0  0
 83 84  2  0  0  0  0
 84 85  1  0  0  0  0
 85 86  1  0  0  0  0
 84 87  1  0  0  0  0
 87 88  2  0  0  0  0
 88 89  1  0  0  0  0
 89 90  2  0  0  0  0
 82 91  2  0  0  0  0
 91 92  1  0  0  0  0
 92 93  1  0  0  0  0
 93 94  1  0  0  0  0
 94 95  1  0  0  0  0
 95 96  1  0  0  0  0
 96 97  1  0  0  0  0
 97 98  1  0  0  0  0
 98 99  1  0  0  0  0
 99100  1  0  0  0  0
100101  1  0  0  0  0
 98102  1  0  0  0  0
102103  1  0  0  0  0
 95104  1  0  0  0  0
104105  1  0  0  0  0
 91106  1  0  0  0  0
106107  2  0  0  0  0
107108  1  0  0  0  0
108109  1  0  0  0  0
109110  2  0  0  0  0
110111  1  0  0  0  0
111112  2  0  0  0  0
112113  1  0  0  0  0
112114  1  0  0  0  0
114115  2  0  0  0  0
108116  1  0  0  0  0
116117  2  0  0  0  0
117118  1  0  0  0  0
118119  2  0  0  0  0
119120  1  0  0  0  0
119121  1  0  0  0  0
121122  2  0  0  0  0
107123  1  0  0  0  0
123124  1  0  0  0  0
124125  1  0  0  0  0
125126  2  0  0  0  0
126127  1  0  0  0  0
127128  1  0  0  0  0
128129  2  0  0  0  0
129130  1  0  0  0  0
130131  2  0  0  0  0
131132  1  0  0  0  0
131133  1  0  0  0  0
133134  2  0  0  0  0
127135  1  0  0  0  0
135136  2  0  0  0  0
136137  1  0  0  0  0
137138  2  0  0  0  0
138139  1  0  0  0  0
138140  1  0  0  0  0
140141  2  0  0  0  0
126142  1  0  0  0  0
142143  1  0  0  0  0
125144  1  0  0  0  0
144145  2  0  0  0  0
145146  1  0  0  0  0
146147  2  0  0  0  0
146148  1  0  0  0  0
148149  2  0  0  0  0
149150  1  0  0  0  0
150151  1  0  0  0  0
151152  1  0  0  0  0
152153  2  0  0  0  0
152154  1  0  0  0  0
150155  2  0  0  0  0
155156  1  0  0  0  0
156157  2  0  0  0  0
157158  1  0  0  0  0
158159  2  0  0  0  0
159160  1  0  0  0  0
160161  3  0  0  0  0
159162  1  0  0  0  0
162163  3  0  0  0  0
 15  2  1  0  0  0  0
 58 21  1  0  0  0  0
101 59  1  0  0  0  0
143106  1  0  0  0  0
158145  1  0  0  0  0
 14  5  1  0  0  0  0
 30 24  1  0  0  0  0
 37 31  1  0  0  0  0
 57 38  2  0  0  0  0
 66 61  1  0  0  0  0
100 69  2  0  0  0  0
115109  1  0  0  0  0
122116  1  0  0  0  0
142123  2  0  0  0  0
157148  1  0  0  0  0
 49 43  1  0  0  0  0
 56 50  1  0  0  0  0
 99 71  2  0  0  0  0
134128  1  0  0  0  0
141135  1  0  0  0  0
 97 72  2  0  0  0  0
 77 73  2  0  0  0  0
 96 78  2  0  0  0  0
 94 79  2  0  0  0  0
 93 81  2  0  0  0  0
 90 83  1  0  0  0  0
  1164  1  0  0  0  0
  6165  1  0  0  0  0
 11166  1  0  0  0  0
 11167  1  0  0  0  0
 11168  1  0  0  0  0
 12169  1  0  0  0  0
 13170  1  0  0  0  0
 25171  1  0  0  0  0
 26172  1  0  0  0  0
 28173  1  0  0  0  0
 28174  1  0  0  0  0
 28175  1  0  0  0  0
 29176  1  0  0  0  0
 30177  1  0  0  0  0
 32178  1  0  0  0  0
 33179  1  0  0  0  0
 35180  1  0  0  0  0
 35181  1  0  0  0  0
 35182  1  0  0  0  0
 36183  1  0  0  0  0
 37184  1  0  0  0  0
 44185  1  0  0  0  0
 45186  1  0  0  0  0
 47187  1  0  0  0  0
 47188  1  0  0  0  0
 47189  1  0  0  0  0
 48190  1  0  0  0  0
 49191  1  0  0  0  0
 51192  1  0  0  0  0
 52193  1  0  0  0  0
 54194  1  0  0  0  0
 54195  1  0  0  0  0
 54196  1  0  0  0  0
 55197  1  0  0  0  0
 56198  1  0  0  0  0
 62199  1  0  0  0  0
 63200  1  0  0  0  0
 64201  1  0  0  0  0
 65202  1  0  0  0  0
 67203  1  0  0  0  0
 67204  1  0  0  0  0
 68205  1  0  0  0  0
 68206  1  0  0  0  0
 68207  1  0  0  0  0
 85208  1  0  0  0  0
 85209  1  0  0  0  0
 86210  1  0  0  0  0
 86211  1  0  0  0  0
 86212  1  0  0  0  0
 87213  1  0  0  0  0
 88214  1  0  0  0  0
 89215  1  0  0  0  0
 90216  1  0  0  0  0
102217  1  0  0  0  0
102218  1  0  0  0  0
103219  1  0  0  0  0
103220  1  0  0  0  0
103221  1  0  0  0  0
104222  1  0  0  0  0
104223  1  0  0  0  0
105224  1  0  0  0  0
105225  1  0  0  0  0
105226  1  0  0  0  0
110227  1  0  0  0  0
111228  1  0  0  0  0
113229  1  0  0  0  0
113230  1  0  0  0  0
113231  1  0  0  0  0
114232  1  0  0  0  0
115233  1  0  0  0  0
117234  1  0  0  0  0
118235  1  0  0  0  0
120236  1  0  0  0  0
120237  1  0  0  0  0
120238  1  0  0  0  0
121239  1  0  0  0  0
122240  1  0  0  0  0
129241  1  0  0  0  0
130242  1  0  0  0  0
132243  1  0  0  0  0
132244  1  0  0  0  0
132245  1  0  0  0  0
133246  1  0  0  0  0
134247  1  0  0  0  0
136248  1  0  0  0  0
137249  1  0  0  0  0
139250  1  0  0  0  0
139251  1  0  0  0  0
139252  1  0  0  0  0
140253  1  0  0  0  0
141254  1  0  0  0  0
144255  1  0  0  0  0
149256  1  0  0  0  0
154257  1  0  0  0  0
154258  1  0  0  0  0
154259  1  0  0  0  0
155260  1  0  0  0  0
156261  1  0  0  0  0
M  END
