179

C         -3.63330       -9.35940      -10.18740
C         -4.44980       -9.46360      -11.27040
C         -5.61280       -8.60540      -11.62280
O         -6.26230       -7.87010      -10.91280
C         -5.81630       -8.80870      -13.07470
C         -6.71200       -8.15670      -13.89920
C         -6.72290       -8.51620      -15.24340
O         -7.59160       -7.97870      -16.17050
C         -8.00150       -6.68970      -16.12070
O         -7.62910       -5.88870      -15.31270
C         -8.96370       -6.42580      -17.24430
C         -5.86710       -9.50840      -15.72370
C         -4.97770      -10.16010      -14.88820
C         -4.94640       -9.80490      -13.54650
C         -4.14440      -10.29010      -12.43190
C         -3.33080      -11.38940      -12.44610
C         -3.08710      -12.17220      -13.59470
N         -2.85050      -12.84010      -14.49740
C         -2.68490      -11.92810      -11.31100
N         -2.16590      -12.44990      -10.43040
C         -3.80820       -8.60770       -8.97920
C         -5.05090       -8.32000       -8.40470
C         -5.17530       -7.59680       -7.23030
O         -6.37040       -7.28430       -6.68600
C         -7.56130       -7.54080       -7.41710
C         -8.70080       -6.86360       -6.67150
C         -4.01150       -7.14320       -6.55400
C         -2.76770       -7.44660       -7.11730
C         -2.67340       -8.16390       -8.28220
F         -1.45020       -8.41580       -8.78900
C         -4.06660       -6.38630       -5.33050
S         -2.61590       -5.56450       -4.77040
C         -3.44180       -4.95570       -3.38030
C         -2.89980       -4.13700       -2.38190
S         -1.25380       -3.54550       -2.38920
C         -1.57040       -2.70830       -0.91970
C         -0.88640       -1.88460       -0.01680
C          0.46660       -1.48470        0.00430
C          0.93000       -0.70310        1.11030
N          2.22290       -0.42770        1.03430
S          2.80570       -1.09890       -0.32400
N          1.42910       -1.76150       -0.86110
C         -0.00650       -0.28810        2.07930
C          0.15550        0.57270        3.16970
S          1.42260        1.46060        3.91910
C          0.25510        2.12910        5.03460
C          0.58810        3.06480        6.01550
C         -0.35780        3.61210        6.89560
C         -1.68620        3.14120        6.75040
N         -2.80060        3.43170        7.42250
N         -3.72670        2.70640        6.85590
C         -5.09780        2.76510        7.27200
C         -5.87840        3.75640        6.41380
N         -3.34130        1.95280        5.85410
C         -2.02980        2.18980        5.73870
C         -1.06100        1.66840        4.84100
C         -1.09980        0.76800        3.74770
N         -2.02980        0.03040        3.05950
C         -1.38580       -0.63620        2.02770
C         -1.81380       -1.53340        1.00510
N         -3.01400       -2.17030        0.72800
C         -2.86800       -2.87900       -0.43790
C         -3.65880       -3.70360       -1.27580
C         -5.00770       -4.13810       -1.23360
C         -5.55870       -4.96190       -2.26170
C         -4.77630       -5.38660       -3.36070
C         -5.11300       -6.18510       -4.46780
N         -6.83380       -5.20030       -1.94870
N         -7.01790       -4.56730       -0.82150
C         -8.29270       -4.53870       -0.16530
C         -9.10180       -3.32570       -0.61540
N         -5.98340       -3.91820       -0.34420
C         -4.11630       -2.45090        1.61980
C         -3.64890       -3.22510        2.85070
C         -3.43950        0.28840        3.24370
C         -4.02310        1.05150        2.05600
C          0.20760        4.56590        7.75620
C          1.55470        4.76160        7.53490
S          2.15880        3.74160        6.24950
C          2.46640        5.65550        8.18300
C          2.16700        6.43960        9.29210
F          0.95350        6.37860        9.86570
C          3.09240        7.32440        9.85560
F          2.69830        8.06080       10.90440
C          4.36780        7.50390        9.34630
C          4.73750        6.67370        8.25070
N          5.97860        6.73860        7.74970
C          6.31470        6.01520        6.70470
C          7.64040        6.27190        6.18450
S          8.00820        6.21940        4.48870
C          9.62280        6.77290        4.75390
C         10.60510        6.89350        3.64140
C         10.96330        5.51860        3.07330
C          9.82140        6.98680        6.08900
C          8.71050        6.72600        6.90780
F         10.99210        7.42830        6.58030
C          5.37370        5.09860        6.13410
N          4.16250        5.02960        6.64170
C          3.79750        5.78390        7.67800
C          5.66200        4.17210        5.06330
C          6.78660        3.42050        4.83960
C          6.60600        2.52820        3.77100
F          7.58090        1.69100        3.37060
C          5.37750        2.57240        3.16820
C          4.87210        1.74340        2.03960
C          4.07610        2.56540        1.03120
S          4.39720        3.75600        3.94710
C          5.33170        8.41590        9.91130
C          6.20820        9.08680        9.13050
C          6.06720        9.22540        7.64630
O          5.04900        9.15420        6.99440
C          7.39290        9.66880        7.17750
C          7.84670        9.81320        5.88260
C          9.15240       10.24530        5.66960
C          9.68430       10.42530        4.28390
C          9.96090       10.52670        6.77100
C          9.50680       10.40370        8.07340
C          8.20360        9.97440        8.28540
C          7.45330        9.73620        9.51350
C          7.85860       10.05360       10.78000
C          9.08120       10.69130       11.08160
N         10.05690       11.21390       11.38500
C          7.10010        9.82010       11.94740
N          6.54010        9.65460       12.93550
H         -2.67350       -9.86130      -10.25160
H         -7.36390       -7.39590      -13.50180
H         -8.46950       -6.61030      -18.19530
H         -9.30390       -5.39620      -17.19720
H         -9.80950       -7.10470      -17.16620
H         -5.91340       -9.75940      -16.77190
H         -4.32240      -10.91600      -15.28890
H         -5.92980       -8.69350       -8.89690
H         -7.73770       -8.62320       -7.47630
H         -7.47280       -7.13890       -8.43340
H         -8.51660       -5.79490       -6.60400
H         -9.63530       -7.03150       -7.19840
H         -8.78230       -7.26590       -5.66510
H         -1.86140       -7.11930       -6.63130
H         -5.10400        3.07540        8.31810
H         -5.51980        1.76220        7.17530
H         -6.91470        3.78910        6.73730
H         -5.45040        4.75130        6.50780
H         -5.84490        3.45630        5.36910
H         -6.09110       -6.60110       -4.60590
H         -8.81250       -5.46280       -0.42420
H         -8.11150       -4.49880        0.91090
H         -9.27130       -3.36610       -1.68850
H        -10.06250       -3.31340       -0.10880
H         -8.56720       -2.40910       -0.37820
H         -4.83100       -3.05560        1.05860
H         -4.62720       -1.52920        1.89540
H         -4.48900       -3.40530        3.51630
H         -3.23530       -4.18490        2.54940
H         -2.87920       -2.68160        3.39460
H         -3.97540       -0.64200        3.42730
H         -3.53410        0.89550        4.14660
H         -5.08750        1.21290        2.20580
H         -3.53650        2.01990        1.96400
H         -3.87680        0.51040        1.12360
H         -0.36970        5.09180        8.49320
H         10.18650        7.51140        2.84390
H         11.50340        7.38060        4.02540
H         11.40380        4.89170        3.84490
H         11.67900        5.62470        2.26270
H         10.07320        5.02450        2.69130
H          8.70430        6.84360        7.97480
H          7.68600        3.46480        5.42570
H          5.72280        1.26010        1.55430
H          4.21790        0.95850        2.43210
H          3.22170        3.02630        1.52090
H          3.71110        1.91900        0.23860
H          4.69370        3.34710        0.59490
H          5.36960        8.48200       10.99060
H          7.19210        9.58020        5.05560
H          9.70640       11.48610        4.03310
H          9.05670        9.91710        3.55650
H         10.70140       10.04670        4.20960
H         10.97730       10.85010        6.60100
H         10.16650       10.63200        8.89450
