
  xtb     02112207143D
 energy: -299.881242790783 gnorm: 0.000272589665 xtb: 6.4.1 (unknown)
169188  0     0  0            999 V2000
   -4.3651    3.6526   10.4601 C   0  0  0  0  0  0  0  0  0  0  0  0
   -4.2662    4.3570   11.6307 C   0  0  0  0  0  0  0  0  0  0  0  0
   -5.4579    5.1178   12.0866 C   0  0  0  0  0  0  0  0  0  0  0  0
   -6.4524    5.3640   11.4437 O   0  0  0  0  0  0  0  0  0  0  0  0
   -5.1754    5.4742   13.4954 C   0  0  0  0  0  0  0  0  0  0  0  0
   -6.0060    6.0912   14.4072 C   0  0  0  0  0  0  0  0  0  0  0  0
   -5.5047    6.3069   15.6878 C   0  0  0  0  0  0  0  0  0  0  0  0
   -6.2254    6.9624   16.6681 O   0  0  0  0  0  0  0  0  0  0  0  0
   -7.5447    6.7215   16.8474 C   0  0  0  0  0  0  0  0  0  0  0  0
   -8.1643    5.8847   16.2560 O   0  0  0  0  0  0  0  0  0  0  0  0
   -8.0919    7.6453   17.8987 C   0  0  0  0  0  0  0  0  0  0  0  0
   -4.2108    5.9166   16.0242 C   0  0  0  0  0  0  0  0  0  0  0  0
   -3.3812    5.3049   15.0984 C   0  0  0  0  0  0  0  0  0  0  0  0
   -3.8667    5.0785   13.8200 C   0  0  0  0  0  0  0  0  0  0  0  0
   -3.2397    4.5000   12.6298 C   0  0  0  0  0  0  0  0  0  0  0  0
   -1.8835    4.3698   12.4489 C   0  0  0  0  0  0  0  0  0  0  0  0
   -1.2754    4.0902   11.2110 C   0  0  0  0  0  0  0  0  0  0  0  0
   -0.7205    3.8894   10.2255 N   0  0  0  0  0  0  0  0  0  0  0  0
   -0.9277    4.5777   13.4619 C   0  0  0  0  0  0  0  0  0  0  0  0
   -0.1016    4.6980   14.2510 N   0  0  0  0  0  0  0  0  0  0  0  0
   -3.6065    2.5871    9.9545 C   0  0  0  0  0  0  0  0  0  0  0  0
   -3.8695    2.1532    8.2607 S   0  0  0  0  0  0  0  0  0  0  0  0
   -2.7277    0.8834    8.3938 C   0  0  0  0  0  0  0  0  0  0  0  0
   -2.1122   -0.1095    7.6428 C   0  0  0  0  0  0  0  0  0  0  0  0
   -1.2281   -0.7943    8.5082 C   0  0  0  0  0  0  0  0  0  0  0  0
   -1.2821   -0.2375    9.7568 N   0  0  0  0  0  0  0  0  0  0  0  0
   -0.5298   -0.6512   10.9130 C   0  0  0  0  0  0  0  0  0  0  0  0
   -1.3047   -1.6614   11.7563 C   0  0  0  0  0  0  0  0  0  0  0  0
   -2.1971    0.7836    9.7084 C   0  0  0  0  0  0  0  0  0  0  0  0
   -2.6959    1.7403   10.5795 C   0  0  0  0  0  0  0  0  0  0  0  0
   -0.5217   -1.8273    7.8843 C   0  0  0  0  0  0  0  0  0  0  0  0
   -0.8430   -1.9236    6.5458 C   0  0  0  0  0  0  0  0  0  0  0  0
   -2.0561   -0.7472    6.0454 S   0  0  0  0  0  0  0  0  0  0  0  0
   -0.3403   -2.8028    5.5452 C   0  0  0  0  0  0  0  0  0  0  0  0
    0.7820   -3.6166    5.5291 C   0  0  0  0  0  0  0  0  0  0  0  0
    1.8048   -3.7074    6.5746 C   0  0  0  0  0  0  0  0  0  0  0  0
    2.2386   -4.9528    7.0171 C   0  0  0  0  0  0  0  0  0  0  0  0
    3.2244   -5.0347    7.9833 C   0  0  0  0  0  0  0  0  0  0  0  0
    3.7884   -3.8843    8.5050 C   0  0  0  0  0  0  0  0  0  0  0  0
    3.3801   -2.6318    8.0602 C   0  0  0  0  0  0  0  0  0  0  0  0
    4.0318   -1.3821    8.5791 C   0  0  0  0  0  0  0  0  0  0  0  0
    5.2563   -1.0303    7.7322 C   0  0  0  0  0  0  0  0  0  0  0  0
    2.3922   -2.5563    7.0909 C   0  0  0  0  0  0  0  0  0  0  0  0
    0.8913   -4.3091    4.3053 C   0  0  0  0  0  0  0  0  0  0  0  0
    2.1104   -5.3753    3.6384 S   0  0  0  0  0  0  0  0  0  0  0  0
    1.2806   -5.3521    2.1138 C   0  0  0  0  0  0  0  0  0  0  0  0
    1.4450   -5.7992    0.7866 C   0  0  0  0  0  0  0  0  0  0  0  0
    2.3797   -6.6459    0.1472 C   0  0  0  0  0  0  0  0  0  0  0  0
    2.2846   -6.8576   -1.2764 C   0  0  0  0  0  0  0  0  0  0  0  0
    3.2017   -7.7009   -1.7205 N   0  0  0  0  0  0  0  0  0  0  0  0
    4.1083   -8.1867   -0.4701 S   0  0  0  0  0  0  0  0  0  0  0  0
    3.3682   -7.3360    0.6918 N   0  0  0  0  0  0  0  0  0  0  0  0
    1.3510   -6.1050   -2.0275 C   0  0  0  0  0  0  0  0  0  0  0  0
    1.2374   -5.8296   -3.4034 C   0  0  0  0  0  0  0  0  0  0  0  0
    2.0008   -6.2450   -4.9067 S   0  0  0  0  0  0  0  0  0  0  0  0
    1.1144   -4.9576   -5.6983 C   0  0  0  0  0  0  0  0  0  0  0  0
    1.2003   -4.3829   -6.9846 C   0  0  0  0  0  0  0  0  0  0  0  0
    2.1047   -4.8900   -8.0196 C   0  0  0  0  0  0  0  0  0  0  0  0
    2.1245   -6.2504   -8.3113 C   0  0  0  0  0  0  0  0  0  0  0  0
    2.9803   -6.7344   -9.2834 C   0  0  0  0  0  0  0  0  0  0  0  0
    3.8216   -5.8731   -9.9646 C   0  0  0  0  0  0  0  0  0  0  0  0
    3.8283   -4.5140   -9.6722 C   0  0  0  0  0  0  0  0  0  0  0  0
    4.7789   -3.5833  -10.3698 C   0  0  0  0  0  0  0  0  0  0  0  0
    6.1138   -3.5280   -9.6249 C   0  0  0  0  0  0  0  0  0  0  0  0
    2.9728   -4.0358   -8.6923 C   0  0  0  0  0  0  0  0  0  0  0  0
    0.3886   -3.2653   -7.0869 C   0  0  0  0  0  0  0  0  0  0  0  0
   -0.5076   -2.9483   -5.6098 S   0  0  0  0  0  0  0  0  0  0  0  0
    0.2496   -4.2871   -4.8330 C   0  0  0  0  0  0  0  0  0  0  0  0
    0.3046   -4.7956   -3.5319 C   0  0  0  0  0  0  0  0  0  0  0  0
   -0.2013   -4.4568   -2.3079 N   0  0  0  0  0  0  0  0  0  0  0  0
    0.4281   -5.2476   -1.3697 C   0  0  0  0  0  0  0  0  0  0  0  0
    0.3828   -5.2222    0.0423 C   0  0  0  0  0  0  0  0  0  0  0  0
   -0.4576   -4.5325    0.8970 N   0  0  0  0  0  0  0  0  0  0  0  0
    0.1106   -4.5879    2.1430 C   0  0  0  0  0  0  0  0  0  0  0  0
   -0.1167   -4.0031    3.3904 C   0  0  0  0  0  0  0  0  0  0  0  0
   -1.2591   -2.8947    4.0485 S   0  0  0  0  0  0  0  0  0  0  0  0
   -1.8874   -4.3561    0.7516 C   0  0  0  0  0  0  0  0  0  0  0  0
   -2.6603   -5.3698    1.5947 C   0  0  0  0  0  0  0  0  0  0  0  0
   -0.9352   -3.2224   -2.1380 C   0  0  0  0  0  0  0  0  0  0  0  0
   -2.3731   -3.3337   -2.6417 C   0  0  0  0  0  0  0  0  0  0  0  0
    0.2165   -2.3154   -8.1358 C   0  0  0  0  0  0  0  0  0  0  0  0
   -0.3489   -0.7174   -7.6573 S   0  0  0  0  0  0  0  0  0  0  0  0
   -0.2177   -0.1747   -9.2836 C   0  0  0  0  0  0  0  0  0  0  0  0
   -0.3709    0.9744  -10.0502 C   0  0  0  0  0  0  0  0  0  0  0  0
   -0.0122    0.6122  -11.3788 C   0  0  0  0  0  0  0  0  0  0  0  0
    0.3587   -0.7118  -11.4160 N   0  0  0  0  0  0  0  0  0  0  0  0
    0.7074   -1.4671  -12.5912 C   0  0  0  0  0  0  0  0  0  0  0  0
   -0.5289   -2.0545  -13.2689 C   0  0  0  0  0  0  0  0  0  0  0  0
    0.2266   -1.2036  -10.1439 C   0  0  0  0  0  0  0  0  0  0  0  0
    0.4623   -2.4176   -9.4897 C   0  0  0  0  0  0  0  0  0  0  0  0
   -0.0889    1.6748  -12.2566 C   0  0  0  0  0  0  0  0  0  0  0  0
   -0.4903    2.8597  -11.6212 C   0  0  0  0  0  0  0  0  0  0  0  0
   -0.7978    2.6294   -9.8974 S   0  0  0  0  0  0  0  0  0  0  0  0
   -0.5878    4.0689  -12.3171 C   0  0  0  0  0  0  0  0  0  0  0  0
   -0.8944    5.3354  -11.8747 C   0  0  0  0  0  0  0  0  0  0  0  0
   -1.2237    5.7067  -10.4957 C   0  0  0  0  0  0  0  0  0  0  0  0
   -1.3496    4.9733   -9.5326 O   0  0  0  0  0  0  0  0  0  0  0  0
   -1.3940    7.1740  -10.4968 C   0  0  0  0  0  0  0  0  0  0  0  0
   -1.6837    7.9966   -9.4283 C   0  0  0  0  0  0  0  0  0  0  0  0
   -1.7951    9.3601   -9.6837 C   0  0  0  0  0  0  0  0  0  0  0  0
   -2.1278   10.2822   -8.7098 O   0  0  0  0  0  0  0  0  0  0  0  0
   -1.6477   10.1875   -7.4486 C   0  0  0  0  0  0  0  0  0  0  0  0
   -0.8506    9.3705   -7.0867 O   0  0  0  0  0  0  0  0  0  0  0  0
   -2.2550   11.2633   -6.5923 C   0  0  0  0  0  0  0  0  0  0  0  0
   -1.6313    9.8580  -10.9746 C   0  0  0  0  0  0  0  0  0  0  0  0
   -1.3430    9.0207  -12.0401 C   0  0  0  0  0  0  0  0  0  0  0  0
   -1.2166    7.6599  -11.8021 C   0  0  0  0  0  0  0  0  0  0  0  0
   -0.9154    6.5336  -12.6870 C   0  0  0  0  0  0  0  0  0  0  0  0
   -0.7026    6.6332  -14.0397 C   0  0  0  0  0  0  0  0  0  0  0  0
   -0.4220    5.5639  -14.9138 C   0  0  0  0  0  0  0  0  0  0  0  0
   -0.1914    4.7540  -15.6964 N   0  0  0  0  0  0  0  0  0  0  0  0
   -0.7428    7.8458  -14.7583 C   0  0  0  0  0  0  0  0  0  0  0  0
   -0.7597    8.7938  -15.4063 N   0  0  0  0  0  0  0  0  0  0  0  0
   -5.2251    3.9317    9.8569 H   0  0  0  0  0  0  0  0  0  0  0  0
   -7.0034    6.3879   14.1255 H   0  0  0  0  0  0  0  0  0  0  0  0
   -8.2330    8.6304   17.4574 H   0  0  0  0  0  0  0  0  0  0  0  0
   -9.0482    7.2713   18.2506 H   0  0  0  0  0  0  0  0  0  0  0  0
   -7.3880    7.7375   18.7207 H   0  0  0  0  0  0  0  0  0  0  0  0
   -3.8616    6.1034   17.0278 H   0  0  0  0  0  0  0  0  0  0  0  0
   -2.3866    5.0067   15.3878 H   0  0  0  0  0  0  0  0  0  0  0  0
    0.4088   -1.0918   10.5669 H   0  0  0  0  0  0  0  0  0  0  0  0
   -0.2980    0.2385   11.5053 H   0  0  0  0  0  0  0  0  0  0  0  0
   -2.2428   -1.2298   12.0975 H   0  0  0  0  0  0  0  0  0  0  0  0
   -1.5256   -2.5508   11.1708 H   0  0  0  0  0  0  0  0  0  0  0  0
   -0.7172   -1.9502   12.6231 H   0  0  0  0  0  0  0  0  0  0  0  0
   -2.4614    1.8035   11.6265 H   0  0  0  0  0  0  0  0  0  0  0  0
    0.1798   -2.4811    8.3675 H   0  0  0  0  0  0  0  0  0  0  0  0
    1.7947   -5.8495    6.6119 H   0  0  0  0  0  0  0  0  0  0  0  0
    3.5550   -6.0024    8.3303 H   0  0  0  0  0  0  0  0  0  0  0  0
    4.5568   -3.9556    9.2613 H   0  0  0  0  0  0  0  0  0  0  0  0
    4.3419   -1.5288    9.6159 H   0  0  0  0  0  0  0  0  0  0  0  0
    3.3226   -0.5521    8.5470 H   0  0  0  0  0  0  0  0  0  0  0  0
    5.9804   -1.8415    7.7583 H   0  0  0  0  0  0  0  0  0  0  0  0
    5.7311   -0.1271    8.1080 H   0  0  0  0  0  0  0  0  0  0  0  0
    4.9650   -0.8656    6.6974 H   0  0  0  0  0  0  0  0  0  0  0  0
    2.0760   -1.5904    6.7231 H   0  0  0  0  0  0  0  0  0  0  0  0
    1.4613   -6.9203   -7.7853 H   0  0  0  0  0  0  0  0  0  0  0  0
    2.9891   -7.7898   -9.5119 H   0  0  0  0  0  0  0  0  0  0  0  0
    4.4832   -6.2567  -10.7279 H   0  0  0  0  0  0  0  0  0  0  0  0
    4.3497   -2.5798  -10.4136 H   0  0  0  0  0  0  0  0  0  0  0  0
    4.9514   -3.9279  -11.3918 H   0  0  0  0  0  0  0  0  0  0  0  0
    6.8020   -2.8519  -10.1268 H   0  0  0  0  0  0  0  0  0  0  0  0
    6.5649   -4.5166   -9.5832 H   0  0  0  0  0  0  0  0  0  0  0  0
    5.9629   -3.1783   -8.6061 H   0  0  0  0  0  0  0  0  0  0  0  0
    2.9823   -2.9848   -8.4409 H   0  0  0  0  0  0  0  0  0  0  0  0
   -2.1562   -3.3401    1.0592 H   0  0  0  0  0  0  0  0  0  0  0  0
   -2.1492   -4.5063   -0.2918 H   0  0  0  0  0  0  0  0  0  0  0  0
   -2.4741   -5.2198    2.6543 H   0  0  0  0  0  0  0  0  0  0  0  0
   -2.3667   -6.3830    1.3281 H   0  0  0  0  0  0  0  0  0  0  0  0
   -3.7254   -5.2546    1.4134 H   0  0  0  0  0  0  0  0  0  0  0  0
   -0.8969   -2.9261   -1.0905 H   0  0  0  0  0  0  0  0  0  0  0  0
   -0.4240   -2.4488   -2.7225 H   0  0  0  0  0  0  0  0  0  0  0  0
   -2.3814   -3.5051   -3.7145 H   0  0  0  0  0  0  0  0  0  0  0  0
   -2.9058   -4.1539   -2.1658 H   0  0  0  0  0  0  0  0  0  0  0  0
   -2.9032   -2.4080   -2.4381 H   0  0  0  0  0  0  0  0  0  0  0  0
    1.2332   -0.8016  -13.2812 H   0  0  0  0  0  0  0  0  0  0  0  0
    1.3887   -2.2681  -12.2911 H   0  0  0  0  0  0  0  0  0  0  0  0
   -1.2084   -1.2597  -13.5671 H   0  0  0  0  0  0  0  0  0  0  0  0
   -1.0522   -2.7202  -12.5865 H   0  0  0  0  0  0  0  0  0  0  0  0
   -0.2385   -2.6163  -14.1521 H   0  0  0  0  0  0  0  0  0  0  0  0
    0.7900   -3.3270   -9.9582 H   0  0  0  0  0  0  0  0  0  0  0  0
    0.1343    1.6423  -13.3082 H   0  0  0  0  0  0  0  0  0  0  0  0
   -0.3555    3.9704  -13.3707 H   0  0  0  0  0  0  0  0  0  0  0  0
   -1.8088    7.5840   -8.4403 H   0  0  0  0  0  0  0  0  0  0  0  0
   -1.6807   11.3675   -5.6771 H   0  0  0  0  0  0  0  0  0  0  0  0
   -3.2759   10.9780   -6.3448 H   0  0  0  0  0  0  0  0  0  0  0  0
   -2.2859   12.2031   -7.1361 H   0  0  0  0  0  0  0  0  0  0  0  0
   -1.7343   10.9204  -11.1316 H   0  0  0  0  0  0  0  0  0  0  0  0
   -1.2187    9.4397  -13.0249 H   0  0  0  0  0  0  0  0  0  0  0  0
  1  2  2  0  0  0  0
  2  3  1  0  0  0  0
  3  4  2  0  0  0  0
  3  5  1  0  0  0  0
  5  6  2  0  0  0  0
  6  7  1  0  0  0  0
  7  8  1  0  0  0  0
  8  9  1  0  0  0  0
  9 10  2  0  0  0  0
  9 11  1  0  0  0  0
  7 12  2  0  0  0  0
 12 13  1  0  0  0  0
 13 14  2  0  0  0  0
 14 15  1  0  0  0  0
 15 16  2  0  0  0  0
 16 17  1  0  0  0  0
 17 18  3  0  0  0  0
 16 19  1  0  0  0  0
 19 20  3  0  0  0  0
  1 21  1  0  0  0  0
 21 22  1  0  0  0  0
 22 23  1  0  0  0  0
 23 24  1  0  0  0  0
 24 25  2  0  0  0  0
 25 26  1  0  0  0  0
 26 27  1  0  0  0  0
 27 28  1  0  0  0  0
 26 29  1  0  0  0  0
 29 30  1  0  0  0  0
 25 31  1  0  0  0  0
 31 32  2  0  0  0  0
 32 33  1  0  0  0  0
 32 34  1  0  0  0  0
 34 35  2  0  0  0  0
 35 36  1  0  0  0  0
 36 37  2  0  0  0  0
 37 38  1  0  0  0  0
 38 39  2  0  0  0  0
 39 40  1  0  0  0  0
 40 41  1  0  0  0  0
 41 42  1  0  0  0  0
 40 43  2  0  0  0  0
 35 44  1  0  0  0  0
 44 45  1  0  0  0  0
 45 46  1  0  0  0  0
 46 47  1  0  0  0  0
 47 48  1  0  0  0  0
 48 49  1  0  0  0  0
 49 50  2  0  0  0  0
 50 51  1  0  0  0  0
 51 52  1  0  0  0  0
 49 53  1  0  0  0  0
 53 54  1  0  0  0  0
 54 55  1  0  0  0  0
 55 56  1  0  0  0  0
 56 57  1  0  0  0  0
 57 58  1  0  0  0  0
 58 59  2  0  0  0  0
 59 60  1  0  0  0  0
 60 61  2  0  0  0  0
 61 62  1  0  0  0  0
 62 63  1  0  0  0  0
 63 64  1  0  0  0  0
 62 65  2  0  0  0  0
 57 66  2  0  0  0  0
 66 67  1  0  0  0  0
 67 68  1  0  0  0  0
 68 69  1  0  0  0  0
 69 70  1  0  0  0  0
 70 71  1  0  0  0  0
 71 72  1  0  0  0  0
 72 73  1  0  0  0  0
 73 74  1  0  0  0  0
 74 75  1  0  0  0  0
 75 76  1  0  0  0  0
 73 77  1  0  0  0  0
 77 78  1  0  0  0  0
 70 79  1  0  0  0  0
 79 80  1  0  0  0  0
 66 81  1  0  0  0  0
 81 82  1  0  0  0  0
 82 83  1  0  0  0  0
 83 84  1  0  0  0  0
 84 85  2  0  0  0  0
 85 86  1  0  0  0  0
 86 87  1  0  0  0  0
 87 88  1  0  0  0  0
 86 89  1  0  0  0  0
 89 90  1  0  0  0  0
 85 91  1  0  0  0  0
 91 92  2  0  0  0  0
 92 93  1  0  0  0  0
 92 94  1  0  0  0  0
 94 95  2  0  0  0  0
 95 96  1  0  0  0  0
 96 97  2  0  0  0  0
 96 98  1  0  0  0  0
 98 99  2  0  0  0  0
 99100  1  0  0  0  0
100101  1  0  0  0  0
101102  1  0  0  0  0
102103  2  0  0  0  0
102104  1  0  0  0  0
100105  2  0  0  0  0
105106  1  0  0  0  0
106107  2  0  0  0  0
107108  1  0  0  0  0
108109  2  0  0  0  0
109110  1  0  0  0  0
110111  3  0  0  0  0
109112  1  0  0  0  0
112113  3  0  0  0  0
 15  2  1  0  0  0  0
 30 21  2  0  0  0  0
 76 34  1  0  0  0  0
 90 81  2  0  0  0  0
108 95  1  0  0  0  0
 14  5  1  0  0  0  0
 29 23  2  0  0  0  0
 43 36  1  0  0  0  0
 75 44  2  0  0  0  0
 89 83  2  0  0  0  0
107 98  1  0  0  0  0
 33 24  1  0  0  0  0
 74 46  2  0  0  0  0
 93 84  1  0  0  0  0
 72 47  2  0  0  0  0
 52 48  2  0  0  0  0
 71 53  2  0  0  0  0
 69 54  2  0  0  0  0
 68 56  2  0  0  0  0
 65 58  1  0  0  0  0
  1114  1  0  0  0  0
  6115  1  0  0  0  0
 11116  1  0  0  0  0
 11117  1  0  0  0  0
 11118  1  0  0  0  0
 12119  1  0  0  0  0
 13120  1  0  0  0  0
 27121  1  0  0  0  0
 27122  1  0  0  0  0
 28123  1  0  0  0  0
 28124  1  0  0  0  0
 28125  1  0  0  0  0
 30126  1  0  0  0  0
 31127  1  0  0  0  0
 37128  1  0  0  0  0
 38129  1  0  0  0  0
 39130  1  0  0  0  0
 41131  1  0  0  0  0
 41132  1  0  0  0  0
 42133  1  0  0  0  0
 42134  1  0  0  0  0
 42135  1  0  0  0  0
 43136  1  0  0  0  0
 59137  1  0  0  0  0
 60138  1  0  0  0  0
 61139  1  0  0  0  0
 63140  1  0  0  0  0
 63141  1  0  0  0  0
 64142  1  0  0  0  0
 64143  1  0  0  0  0
 64144  1  0  0  0  0
 65145  1  0  0  0  0
 77146  1  0  0  0  0
 77147  1  0  0  0  0
 78148  1  0  0  0  0
 78149  1  0  0  0  0
 78150  1  0  0  0  0
 79151  1  0  0  0  0
 79152  1  0  0  0  0
 80153  1  0  0  0  0
 80154  1  0  0  0  0
 80155  1  0  0  0  0
 87156  1  0  0  0  0
 87157  1  0  0  0  0
 88158  1  0  0  0  0
 88159  1  0  0  0  0
 88160  1  0  0  0  0
 90161  1  0  0  0  0
 91162  1  0  0  0  0
 94163  1  0  0  0  0
 99164  1  0  0  0  0
104165  1  0  0  0  0
104166  1  0  0  0  0
104167  1  0  0  0  0
105168  1  0  0  0  0
106169  1  0  0  0  0
M  END
