
  xtb     02032214043D
 energy: -353.332968387767 gnorm: 0.000859803712 xtb: 6.4.1 (unknown)
220240  0     0  0            999 V2000
   -2.2024   -2.5193    9.1486 C   0  0  0  0  0  0  0  0  0  0  0  0
   -1.8208   -1.2255    9.3265 C   0  0  0  0  0  0  0  0  0  0  0  0
   -1.1732   -0.3487    8.3166 C   0  0  0  0  0  0  0  0  0  0  0  0
   -1.0300   -0.5392    7.1266 O   0  0  0  0  0  0  0  0  0  0  0  0
   -0.6378    0.7973    9.0790 C   0  0  0  0  0  0  0  0  0  0  0  0
    0.0899    1.8674    8.6072 C   0  0  0  0  0  0  0  0  0  0  0  0
    0.5093    2.8296    9.5250 C   0  0  0  0  0  0  0  0  0  0  0  0
    1.2842    3.8445    9.0081 O   0  0  0  0  0  0  0  0  0  0  0  0
    1.1806    5.1262    9.4250 C   0  0  0  0  0  0  0  0  0  0  0  0
    0.4424    5.5004   10.2910 O   0  0  0  0  0  0  0  0  0  0  0  0
    2.1052    5.9896    8.6142 C   0  0  0  0  0  0  0  0  0  0  0  0
    0.1971    2.7124   10.8764 C   0  0  0  0  0  0  0  0  0  0  0  0
   -0.5475    1.6366   11.3392 C   0  0  0  0  0  0  0  0  0  0  0  0
   -0.9688    0.6679   10.4403 C   0  0  0  0  0  0  0  0  0  0  0  0
   -1.7462   -0.5514   10.6173 C   0  0  0  0  0  0  0  0  0  0  0  0
   -2.3597   -0.9480   11.7745 C   0  0  0  0  0  0  0  0  0  0  0  0
   -2.2578   -0.2561   13.0006 C   0  0  0  0  0  0  0  0  0  0  0  0
   -2.2081    0.2491   14.0299 N   0  0  0  0  0  0  0  0  0  0  0  0
   -3.1984   -2.0757   11.9071 C   0  0  0  0  0  0  0  0  0  0  0  0
   -3.9090   -2.9578   12.0960 N   0  0  0  0  0  0  0  0  0  0  0  0
   -2.3544   -3.2386    7.9151 C   0  0  0  0  0  0  0  0  0  0  0  0
   -2.8025   -2.6345    6.7317 C   0  0  0  0  0  0  0  0  0  0  0  0
   -2.9014   -3.3576    5.5670 C   0  0  0  0  0  0  0  0  0  0  0  0
   -3.4337   -2.7855    3.8436 Si  0  0  0  0  0  4  0  0  0  0  0  0
   -2.2111   -1.5558    3.0381 C   0  0  0  0  0  0  0  0  0  0  0  0
   -0.7900   -2.1138    2.9937 C   0  0  0  0  0  0  0  0  0  0  0  0
   -5.2633   -2.2533    3.7448 C   0  0  0  0  0  0  0  0  0  0  0  0
   -5.4804   -0.8142    4.1989 C   0  0  0  0  0  0  0  0  0  0  0  0
   -3.0720   -4.5258    3.2018 C   0  0  0  0  0  0  0  0  0  0  0  0
   -2.5896   -5.3506    4.2339 C   0  0  0  0  0  0  0  0  0  0  0  0
   -2.5461   -4.7214    5.5471 C   0  0  0  0  0  0  0  0  0  0  0  0
   -2.1667   -5.3451    6.7341 C   0  0  0  0  0  0  0  0  0  0  0  0
   -2.0900   -4.6169    7.9007 C   0  0  0  0  0  0  0  0  0  0  0  0
   -2.1268   -6.6273    3.9257 C   0  0  0  0  0  0  0  0  0  0  0  0
   -2.0464   -7.0393    2.6097 C   0  0  0  0  0  0  0  0  0  0  0  0
   -2.4623   -6.2001    1.5735 C   0  0  0  0  0  0  0  0  0  0  0  0
   -3.0271   -4.9620    1.8999 C   0  0  0  0  0  0  0  0  0  0  0  0
   -2.1437   -6.4616    0.1867 C   0  0  0  0  0  0  0  0  0  0  0  0
   -0.9652   -6.9745   -0.2920 C   0  0  0  0  0  0  0  0  0  0  0  0
   -0.7782   -6.6829   -1.6507 C   0  0  0  0  0  0  0  0  0  0  0  0
    0.6306   -6.6928   -2.6765 S   0  0  0  0  0  0  0  0  0  0  0  0
   -0.2120   -5.6890   -3.8149 C   0  0  0  0  0  0  0  0  0  0  0  0
    0.2019   -4.7681   -4.8328 C   0  0  0  0  0  0  0  0  0  0  0  0
    1.4793   -4.3093   -5.1327 C   0  0  0  0  0  0  0  0  0  0  0  0
    1.5676   -3.1574   -5.8816 C   0  0  0  0  0  0  0  0  0  0  0  0
    2.7055   -2.1504   -5.8952 C   0  0  0  0  0  0  0  0  0  0  0  0
    2.5750   -1.5922   -4.4694 C   0  0  0  0  0  0  0  0  0  0  0  0
    3.1831   -2.2476   -3.4022 C   0  0  0  0  0  0  0  0  0  0  0  0
    2.9168   -1.8790   -2.0994 C   0  0  0  0  0  0  0  0  0  0  0  0
    2.0322   -0.8379   -1.8231 C   0  0  0  0  0  0  0  0  0  0  0  0
    1.6682   -0.4982   -0.1293 S   0  0  0  0  0  0  0  0  0  0  0  0
    0.6979    1.0601   -0.1831 C   0  0  0  0  0  0  0  0  0  0  0  0
    0.2657    1.4320    1.2224 C   0  0  0  0  0  0  0  0  0  0  0  0
    1.4571   -0.1512   -2.8802 C   0  0  0  0  0  0  0  0  0  0  0  0
    1.7233   -0.5344   -4.1806 C   0  0  0  0  0  0  0  0  0  0  0  0
    4.0854   -2.6347   -6.2333 C   0  0  0  0  0  0  0  0  0  0  0  0
    5.1927   -1.8764   -5.8757 C   0  0  0  0  0  0  0  0  0  0  0  0
    6.4696   -2.2810   -6.2148 C   0  0  0  0  0  0  0  0  0  0  0  0
    6.6574   -3.4666   -6.9119 C   0  0  0  0  0  0  0  0  0  0  0  0
    8.2390   -4.0802   -7.4125 S   0  0  0  0  0  0  0  0  0  0  0  0
    9.4185   -3.2877   -6.2636 C   0  0  0  0  0  0  0  0  0  0  0  0
    9.2212   -3.7465   -4.8317 C   0  0  0  0  0  0  0  0  0  0  0  0
    5.5502   -4.2217   -7.2876 C   0  0  0  0  0  0  0  0  0  0  0  0
    4.2770   -3.8046   -6.9582 C   0  0  0  0  0  0  0  0  0  0  0  0
    2.1749   -1.1293   -6.8608 C   0  0  0  0  0  0  0  0  0  0  0  0
    0.8550   -1.4025   -7.1664 C   0  0  0  0  0  0  0  0  0  0  0  0
    0.4243   -2.5950   -6.4968 C   0  0  0  0  0  0  0  0  0  0  0  0
   -0.8546   -3.0408   -6.1764 C   0  0  0  0  0  0  0  0  0  0  0  0
   -0.9489   -4.0699   -5.2653 C   0  0  0  0  0  0  0  0  0  0  0  0
   -2.1415   -4.4238   -4.3925 C   0  0  0  0  0  0  0  0  0  0  0  0
   -2.4036   -3.1792   -3.5478 C   0  0  0  0  0  0  0  0  0  0  0  0
   -3.5253   -2.3825   -3.7172 C   0  0  0  0  0  0  0  0  0  0  0  0
   -3.7375   -1.2745   -2.9140 C   0  0  0  0  0  0  0  0  0  0  0  0
   -2.8314   -0.9551   -1.9144 C   0  0  0  0  0  0  0  0  0  0  0  0
   -3.0166    0.4320   -0.8256 S   0  0  0  0  0  0  0  0  0  0  0  0
   -4.8259    0.5923   -0.6388 C   0  0  0  0  0  0  0  0  0  0  0  0
   -5.4377   -0.6376    0.0017 C   0  0  0  0  0  0  0  0  0  0  0  0
   -1.6832   -1.7247   -1.7645 C   0  0  0  0  0  0  0  0  0  0  0  0
   -1.4678   -2.8101   -2.5838 C   0  0  0  0  0  0  0  0  0  0  0  0
   -3.3598   -4.9648   -5.0963 C   0  0  0  0  0  0  0  0  0  0  0  0
   -3.3538   -5.2397   -6.4581 C   0  0  0  0  0  0  0  0  0  0  0  0
   -4.4717   -5.7676   -7.0715 C   0  0  0  0  0  0  0  0  0  0  0  0
   -5.6171   -6.0475   -6.3327 C   0  0  0  0  0  0  0  0  0  0  0  0
   -6.9732   -6.7539   -7.2207 S   0  0  0  0  0  0  0  0  0  0  0  0
   -8.4263   -6.4585   -6.1536 C   0  0  0  0  0  0  0  0  0  0  0  0
   -8.7630   -4.9843   -6.0378 C   0  0  0  0  0  0  0  0  0  0  0  0
   -5.6202   -5.8019   -4.9662 C   0  0  0  0  0  0  0  0  0  0  0  0
   -4.5014   -5.2624   -4.3614 C   0  0  0  0  0  0  0  0  0  0  0  0
   -1.5338   -5.4657   -3.4868 C   0  0  0  0  0  0  0  0  0  0  0  0
   -1.8485   -5.9987   -2.2344 C   0  0  0  0  0  0  0  0  0  0  0  0
   -3.1070   -5.7276   -1.0849 S   0  0  0  0  0  0  0  0  0  0  0  0
    0.0538   -0.1088   -8.0034 S   0  0  0  0  0  0  0  0  0  0  0  0
    1.4839    0.8727   -7.8275 C   0  0  0  0  0  0  0  0  0  0  0  0
    1.7138    2.2536   -7.9231 C   0  0  0  0  0  0  0  0  0  0  0  0
    2.9313    2.6107   -7.4048 C   0  0  0  0  0  0  0  0  0  0  0  0
    3.8635    1.2105   -6.8810 S   0  0  0  0  0  0  0  0  0  0  0  0
    2.5346    0.1690   -7.2304 C   0  0  0  0  0  0  0  0  0  0  0  0
    3.3595    3.8940   -6.8872 C   0  0  0  0  0  0  0  0  0  0  0  0
    2.3930    4.7156   -6.2935 C   0  0  0  0  0  0  0  0  0  0  0  0
    2.7593    5.6925   -5.3981 C   0  0  0  0  0  0  0  0  0  0  0  0
    1.6614    6.6024   -4.1538 Si  0  0  0  0  0  4  0  0  0  0  0  0
    0.4181    5.4110   -3.3303 C   0  0  0  0  0  0  0  0  0  0  0  0
    0.1000    5.7630   -1.8808 C   0  0  0  0  0  0  0  0  0  0  0  0
    0.8353    8.1829   -4.8417 C   0  0  0  0  0  0  0  0  0  0  0  0
    1.8296    9.1125   -5.5311 C   0  0  0  0  0  0  0  0  0  0  0  0
    3.2258    7.0369   -3.1813 C   0  0  0  0  0  0  0  0  0  0  0  0
    4.3768    6.7138   -3.9283 C   0  0  0  0  0  0  0  0  0  0  0  0
    4.1212    5.9160   -5.1197 C   0  0  0  0  0  0  0  0  0  0  0  0
    5.0868    5.2228   -5.8458 C   0  0  0  0  0  0  0  0  0  0  0  0
    4.7077    4.2052   -6.6985 C   0  0  0  0  0  0  0  0  0  0  0  0
    5.6314    7.0552   -3.4260 C   0  0  0  0  0  0  0  0  0  0  0  0
    5.7494    7.5543   -2.1455 C   0  0  0  0  0  0  0  0  0  0  0  0
    4.6212    7.6893   -1.3265 C   0  0  0  0  0  0  0  0  0  0  0  0
    3.3535    7.5084   -1.8991 C   0  0  0  0  0  0  0  0  0  0  0  0
    4.7754    7.9266    0.0847 C   0  0  0  0  0  0  0  0  0  0  0  0
    4.1012    7.2242    1.0360 C   0  0  0  0  0  0  0  0  0  0  0  0
    3.3920    5.9445    0.7722 C   0  0  0  0  0  0  0  0  0  0  0  0
    3.0348    5.4661   -0.2821 O   0  0  0  0  0  0  0  0  0  0  0  0
    3.2564    5.3006    2.0939 C   0  0  0  0  0  0  0  0  0  0  0  0
    2.7736    4.0402    2.3651 C   0  0  0  0  0  0  0  0  0  0  0  0
    2.7292    3.6326    3.6956 C   0  0  0  0  0  0  0  0  0  0  0  0
    2.3105    2.3394    3.9305 O   0  0  0  0  0  0  0  0  0  0  0  0
    1.4945    2.0318    4.9659 C   0  0  0  0  0  0  0  0  0  0  0  0
    1.0137    2.8566    5.6936 O   0  0  0  0  0  0  0  0  0  0  0  0
    1.2990    0.5505    5.0504 C   0  0  0  0  0  0  0  0  0  0  0  0
    3.1558    4.4834    4.7125 C   0  0  0  0  0  0  0  0  0  0  0  0
    3.6459    5.7499    4.4262 C   0  0  0  0  0  0  0  0  0  0  0  0
    3.7079    6.1659    3.1038 C   0  0  0  0  0  0  0  0  0  0  0  0
    4.1980    7.3907    2.4786 C   0  0  0  0  0  0  0  0  0  0  0  0
    4.6159    8.5171    3.1336 C   0  0  0  0  0  0  0  0  0  0  0  0
    5.0263    9.7041    2.4898 C   0  0  0  0  0  0  0  0  0  0  0  0
    5.3531   10.7017    2.0255 N   0  0  0  0  0  0  0  0  0  0  0  0
    4.6573    8.6342    4.5386 C   0  0  0  0  0  0  0  0  0  0  0  0
    4.7072    8.7719    5.6771 N   0  0  0  0  0  0  0  0  0  0  0  0
   -2.3720   -3.1137   10.0395 H   0  0  0  0  0  0  0  0  0  0  0  0
    0.3251    1.9873    7.5618 H   0  0  0  0  0  0  0  0  0  0  0  0
    1.7699    5.9857    7.5789 H   0  0  0  0  0  0  0  0  0  0  0  0
    2.0955    7.0041    8.9993 H   0  0  0  0  0  0  0  0  0  0  0  0
    3.1131    5.5839    8.6470 H   0  0  0  0  0  0  0  0  0  0  0  0
    0.5298    3.4661   11.5717 H   0  0  0  0  0  0  0  0  0  0  0  0
   -0.7752    1.5673   12.3903 H   0  0  0  0  0  0  0  0  0  0  0  0
   -3.0960   -1.5978    6.7428 H   0  0  0  0  0  0  0  0  0  0  0  0
   -2.2077   -0.6163    3.5919 H   0  0  0  0  0  0  0  0  0  0  0  0
   -2.5347   -1.3223    2.0218 H   0  0  0  0  0  0  0  0  0  0  0  0
   -0.7683   -3.0667    2.4697 H   0  0  0  0  0  0  0  0  0  0  0  0
   -0.4144   -2.2713    4.0018 H   0  0  0  0  0  0  0  0  0  0  0  0
   -0.1173   -1.4331    2.4758 H   0  0  0  0  0  0  0  0  0  0  0  0
   -5.6271   -2.3673    2.7232 H   0  0  0  0  0  0  0  0  0  0  0  0
   -5.8684   -2.9173    4.3629 H   0  0  0  0  0  0  0  0  0  0  0  0
   -5.1642   -0.6873    5.2308 H   0  0  0  0  0  0  0  0  0  0  0  0
   -6.5322   -0.5418    4.1308 H   0  0  0  0  0  0  0  0  0  0  0  0
   -4.9093   -0.1236    3.5832 H   0  0  0  0  0  0  0  0  0  0  0  0
   -1.9309   -6.3988    6.7492 H   0  0  0  0  0  0  0  0  0  0  0  0
   -1.7838   -5.1014    8.8170 H   0  0  0  0  0  0  0  0  0  0  0  0
   -1.7822   -7.2900    4.7057 H   0  0  0  0  0  0  0  0  0  0  0  0
   -1.6410   -8.0120    2.3731 H   0  0  0  0  0  0  0  0  0  0  0  0
   -3.3621   -4.3103    1.1053 H   0  0  0  0  0  0  0  0  0  0  0  0
   -0.2255   -7.4436    0.3304 H   0  0  0  0  0  0  0  0  0  0  0  0
    2.3474   -4.7719   -4.6889 H   0  0  0  0  0  0  0  0  0  0  0  0
    3.8653   -3.0629   -3.5928 H   0  0  0  0  0  0  0  0  0  0  0  0
    3.3799   -2.4075   -1.2797 H   0  0  0  0  0  0  0  0  0  0  0  0
    1.3398    1.8266   -0.6193 H   0  0  0  0  0  0  0  0  0  0  0  0
   -0.1794    0.9009   -0.8097 H   0  0  0  0  0  0  0  0  0  0  0  0
    1.1202    1.4596    1.8941 H   0  0  0  0  0  0  0  0  0  0  0  0
   -0.4527    0.7092    1.6003 H   0  0  0  0  0  0  0  0  0  0  0  0
   -0.2088    2.4111    1.2102 H   0  0  0  0  0  0  0  0  0  0  0  0
    0.7814    0.6718   -2.7156 H   0  0  0  0  0  0  0  0  0  0  0  0
    1.2271    0.0113   -4.9665 H   0  0  0  0  0  0  0  0  0  0  0  0
    5.0555   -0.9557   -5.3270 H   0  0  0  0  0  0  0  0  0  0  0  0
    7.3053   -1.6588   -5.9360 H   0  0  0  0  0  0  0  0  0  0  0  0
   10.3925   -3.5976   -6.6421 H   0  0  0  0  0  0  0  0  0  0  0  0
    9.3342   -2.2064   -6.3674 H   0  0  0  0  0  0  0  0  0  0  0  0
    8.2314   -3.4751   -4.4700 H   0  0  0  0  0  0  0  0  0  0  0  0
    9.9662   -3.2826   -4.1879 H   0  0  0  0  0  0  0  0  0  0  0  0
    9.3269   -4.8268   -4.7660 H   0  0  0  0  0  0  0  0  0  0  0  0
    5.7016   -5.1353   -7.8420 H   0  0  0  0  0  0  0  0  0  0  0  0
    3.4240   -4.3941   -7.2605 H   0  0  0  0  0  0  0  0  0  0  0  0
   -1.7280   -2.5183   -6.5372 H   0  0  0  0  0  0  0  0  0  0  0  0
   -4.2488   -2.6218   -4.4826 H   0  0  0  0  0  0  0  0  0  0  0  0
   -4.6164   -0.6701   -3.0795 H   0  0  0  0  0  0  0  0  0  0  0  0
   -4.9464    1.4687   -0.0021 H   0  0  0  0  0  0  0  0  0  0  0  0
   -5.2599    0.8086   -1.6145 H   0  0  0  0  0  0  0  0  0  0  0  0
   -5.2743   -1.5178   -0.6181 H   0  0  0  0  0  0  0  0  0  0  0  0
   -4.9905   -0.8136    0.9774 H   0  0  0  0  0  0  0  0  0  0  0  0
   -6.5092   -0.4954    0.1286 H   0  0  0  0  0  0  0  0  0  0  0  0
   -0.9675   -1.4766   -0.9965 H   0  0  0  0  0  0  0  0  0  0  0  0
   -0.5594   -3.3793   -2.4575 H   0  0  0  0  0  0  0  0  0  0  0  0
   -2.4705   -5.0397   -7.0453 H   0  0  0  0  0  0  0  0  0  0  0  0
   -4.4676   -5.9739   -8.1308 H   0  0  0  0  0  0  0  0  0  0  0  0
   -8.2467   -6.9207   -5.1835 H   0  0  0  0  0  0  0  0  0  0  0  0
   -9.2271   -7.0028   -6.6538 H   0  0  0  0  0  0  0  0  0  0  0  0
   -8.9533   -4.5649   -7.0229 H   0  0  0  0  0  0  0  0  0  0  0  0
   -7.9424   -4.4334   -5.5825 H   0  0  0  0  0  0  0  0  0  0  0  0
   -9.6528   -4.8541   -5.4246 H   0  0  0  0  0  0  0  0  0  0  0  0
   -6.4799   -6.0345   -4.3578 H   0  0  0  0  0  0  0  0  0  0  0  0
   -4.5172   -5.0734   -3.2976 H   0  0  0  0  0  0  0  0  0  0  0  0
    1.0003    2.9568   -8.3123 H   0  0  0  0  0  0  0  0  0  0  0  0
    1.3464    4.5031   -6.4533 H   0  0  0  0  0  0  0  0  0  0  0  0
   -0.5071    5.4044   -3.9090 H   0  0  0  0  0  0  0  0  0  0  0  0
    0.8161    4.3962   -3.3641 H   0  0  0  0  0  0  0  0  0  0  0  0
   -0.6469    5.0814   -1.4765 H   0  0  0  0  0  0  0  0  0  0  0  0
    0.9977    5.6850   -1.2738 H   0  0  0  0  0  0  0  0  0  0  0  0
   -0.2881    6.7762   -1.8032 H   0  0  0  0  0  0  0  0  0  0  0  0
    0.3453    8.7218   -4.0299 H   0  0  0  0  0  0  0  0  0  0  0  0
    0.0515    7.9088   -5.5486 H   0  0  0  0  0  0  0  0  0  0  0  0
    2.3097    8.6063   -6.3652 H   0  0  0  0  0  0  0  0  0  0  0  0
    2.6047    9.4275   -4.8363 H   0  0  0  0  0  0  0  0  0  0  0  0
    1.3289   10.0008   -5.9111 H   0  0  0  0  0  0  0  0  0  0  0  0
    6.1378    5.4149   -5.6878 H   0  0  0  0  0  0  0  0  0  0  0  0
    5.4595    3.5996   -7.1845 H   0  0  0  0  0  0  0  0  0  0  0  0
    6.5210    6.8960   -4.0172 H   0  0  0  0  0  0  0  0  0  0  0  0
    6.7275    7.7602   -1.7343 H   0  0  0  0  0  0  0  0  0  0  0  0
    2.4761    7.7449   -1.3172 H   0  0  0  0  0  0  0  0  0  0  0  0
    5.5390    8.6328    0.3892 H   0  0  0  0  0  0  0  0  0  0  0  0
    2.4486    3.3892    1.5703 H   0  0  0  0  0  0  0  0  0  0  0  0
    0.3605    0.3126    5.5462 H   0  0  0  0  0  0  0  0  0  0  0  0
    2.1124    0.1338    5.6439 H   0  0  0  0  0  0  0  0  0  0  0  0
    1.3378    0.1035    4.0619 H   0  0  0  0  0  0  0  0  0  0  0  0
    3.1119    4.1493    5.7372 H   0  0  0  0  0  0  0  0  0  0  0  0
    3.9843    6.3806    5.2322 H   0  0  0  0  0  0  0  0  0  0  0  0
  1  2  2  0  0  0  0
  2  3  1  0  0  0  0
  3  4  2  0  0  0  0
  3  5  1  0  0  0  0
  5  6  2  0  0  0  0
  6  7  1  0  0  0  0
  7  8  1  0  0  0  0
  8  9  1  0  0  0  0
  9 10  2  0  0  0  0
  9 11  1  0  0  0  0
  7 12  2  0  0  0  0
 12 13  1  0  0  0  0
 13 14  2  0  0  0  0
 14 15  1  0  0  0  0
 15 16  2  0  0  0  0
 16 17  1  0  0  0  0
 17 18  3  0  0  0  0
 16 19  1  0  0  0  0
 19 20  3  0  0  0  0
  1 21  1  0  0  0  0
 21 22  2  0  0  0  0
 22 23  1  0  0  0  0
 23 24  1  0  0  0  0
 24 25  1  0  0  0  0
 25 26  1  0  0  0  0
 24 27  1  0  0  0  0
 27 28  1  0  0  0  0
 24 29  1  0  0  0  0
 29 30  2  0  0  0  0
 30 31  1  0  0  0  0
 31 32  1  0  0  0  0
 32 33  2  0  0  0  0
 30 34  1  0  0  0  0
 34 35  2  0  0  0  0
 35 36  1  0  0  0  0
 36 37  2  0  0  0  0
 36 38  1  0  0  0  0
 38 39  2  0  0  0  0
 39 40  1  0  0  0  0
 40 41  1  0  0  0  0
 41 42  1  0  0  0  0
 42 43  1  0  0  0  0
 43 44  2  0  0  0  0
 44 45  1  0  0  0  0
 45 46  1  0  0  0  0
 46 47  1  0  0  0  0
 47 48  2  0  0  0  0
 48 49  1  0  0  0  0
 49 50  2  0  0  0  0
 50 51  1  0  0  0  0
 51 52  1  0  0  0  0
 52 53  1  0  0  0  0
 50 54  1  0  0  0  0
 54 55  2  0  0  0  0
 46 56  1  0  0  0  0
 56 57  2  0  0  0  0
 57 58  1  0  0  0  0
 58 59  2  0  0  0  0
 59 60  1  0  0  0  0
 60 61  1  0  0  0  0
 61 62  1  0  0  0  0
 59 63  1  0  0  0  0
 63 64  2  0  0  0  0
 46 65  1  0  0  0  0
 65 66  2  0  0  0  0
 66 67  1  0  0  0  0
 67 68  1  0  0  0  0
 68 69  2  0  0  0  0
 69 70  1  0  0  0  0
 70 71  1  0  0  0  0
 71 72  2  0  0  0  0
 72 73  1  0  0  0  0
 73 74  2  0  0  0  0
 74 75  1  0  0  0  0
 75 76  1  0  0  0  0
 76 77  1  0  0  0  0
 74 78  1  0  0  0  0
 78 79  2  0  0  0  0
 70 80  1  0  0  0  0
 80 81  2  0  0  0  0
 81 82  1  0  0  0  0
 82 83  2  0  0  0  0
 83 84  1  0  0  0  0
 84 85  1  0  0  0  0
 85 86  1  0  0  0  0
 83 87  1  0  0  0  0
 87 88  2  0  0  0  0
 70 89  1  0  0  0  0
 89 90  1  0  0  0  0
 90 91  1  0  0  0  0
 66 92  1  0  0  0  0
 92 93  1  0  0  0  0
 93 94  1  0  0  0  0
 94 95  2  0  0  0  0
 95 96  1  0  0  0  0
 96 97  1  0  0  0  0
 95 98  1  0  0  0  0
 98 99  2  0  0  0  0
 99100  1  0  0  0  0
100101  1  0  0  0  0
101102  1  0  0  0  0
102103  1  0  0  0  0
101104  1  0  0  0  0
104105  1  0  0  0  0
101106  1  0  0  0  0
106107  2  0  0  0  0
107108  1  0  0  0  0
108109  1  0  0  0  0
109110  2  0  0  0  0
107111  1  0  0  0  0
111112  2  0  0  0  0
112113  1  0  0  0  0
113114  2  0  0  0  0
113115  1  0  0  0  0
115116  2  0  0  0  0
116117  1  0  0  0  0
117118  2  0  0  0  0
117119  1  0  0  0  0
119120  2  0  0  0  0
120121  1  0  0  0  0
121122  1  0  0  0  0
122123  1  0  0  0  0
123124  2  0  0  0  0
123125  1  0  0  0  0
121126  2  0  0  0  0
126127  1  0  0  0  0
127128  2  0  0  0  0
128129  1  0  0  0  0
129130  2  0  0  0  0
130131  1  0  0  0  0
131132  3  0  0  0  0
130133  1  0  0  0  0
133134  3  0  0  0  0
 15  2  1  0  0  0  0
 33 21  1  0  0  0  0
 91 38  1  0  0  0  0
 97 93  2  0  0  0  0
110 98  1  0  0  0  0
129116  1  0  0  0  0
 14  5  1  0  0  0  0
 31 23  2  0  0  0  0
 90 40  2  0  0  0  0
108100  2  0  0  0  0
128119  1  0  0  0  0
 37 29  1  0  0  0  0
 89 42  2  0  0  0  0
114106  1  0  0  0  0
 69 43  1  0  0  0  0
 79 71  1  0  0  0  0
 88 80  1  0  0  0  0
 67 45  2  0  0  0  0
 55 47  1  0  0  0  0
 64 56  1  0  0  0  0
 97 65  1  0  0  0  0
  1135  1  0  0  0  0
  6136  1  0  0  0  0
 11137  1  0  0  0  0
 11138  1  0  0  0  0
 11139  1  0  0  0  0
 12140  1  0  0  0  0
 13141  1  0  0  0  0
 22142  1  0  0  0  0
 25143  1  0  0  0  0
 25144  1  0  0  0  0
 26145  1  0  0  0  0
 26146  1  0  0  0  0
 26147  1  0  0  0  0
 27148  1  0  0  0  0
 27149  1  0  0  0  0
 28150  1  0  0  0  0
 28151  1  0  0  0  0
 28152  1  0  0  0  0
 32153  1  0  0  0  0
 33154  1  0  0  0  0
 34155  1  0  0  0  0
 35156  1  0  0  0  0
 37157  1  0  0  0  0
 39158  1  0  0  0  0
 44159  1  0  0  0  0
 48160  1  0  0  0  0
 49161  1  0  0  0  0
 52162  1  0  0  0  0
 52163  1  0  0  0  0
 53164  1  0  0  0  0
 53165  1  0  0  0  0
 53166  1  0  0  0  0
 54167  1  0  0  0  0
 55168  1  0  0  0  0
 57169  1  0  0  0  0
 58170  1  0  0  0  0
 61171  1  0  0  0  0
 61172  1  0  0  0  0
 62173  1  0  0  0  0
 62174  1  0  0  0  0
 62175  1  0  0  0  0
 63176  1  0  0  0  0
 64177  1  0  0  0  0
 68178  1  0  0  0  0
 72179  1  0  0  0  0
 73180  1  0  0  0  0
 76181  1  0  0  0  0
 76182  1  0  0  0  0
 77183  1  0  0  0  0
 77184  1  0  0  0  0
 77185  1  0  0  0  0
 78186  1  0  0  0  0
 79187  1  0  0  0  0
 81188  1  0  0  0  0
 82189  1  0  0  0  0
 85190  1  0  0  0  0
 85191  1  0  0  0  0
 86192  1  0  0  0  0
 86193  1  0  0  0  0
 86194  1  0  0  0  0
 87195  1  0  0  0  0
 88196  1  0  0  0  0
 94197  1  0  0  0  0
 99198  1  0  0  0  0
102199  1  0  0  0  0
102200  1  0  0  0  0
103201  1  0  0  0  0
103202  1  0  0  0  0
103203  1  0  0  0  0
104204  1  0  0  0  0
104205  1  0  0  0  0
105206  1  0  0  0  0
105207  1  0  0  0  0
105208  1  0  0  0  0
109209  1  0  0  0  0
110210  1  0  0  0  0
111211  1  0  0  0  0
112212  1  0  0  0  0
114213  1  0  0  0  0
115214  1  0  0  0  0
120215  1  0  0  0  0
125216  1  0  0  0  0
125217  1  0  0  0  0
125218  1  0  0  0  0
126219  1  0  0  0  0
127220  1  0  0  0  0
M  END
