181

C         10.06140       -7.08060       -0.61040
C         10.14120       -7.16170       -1.96400
C          8.98930       -6.93120       -2.88140
O          7.84460       -6.65920       -2.58940
C          9.49180       -7.25560       -4.22920
C          8.82900       -7.19040       -5.42070
C          9.49950       -7.56970       -6.60500
C          8.87000       -7.51450       -7.86400
C          9.53660       -7.89550       -8.99680
C         10.86260       -8.34720       -8.92000
C         11.50310       -8.41150       -7.71260
C         10.84670       -8.02620       -6.52590
C         11.50560       -8.08850       -5.27670
C         10.84120       -7.70270       -4.14230
C         11.26400       -7.63860       -2.74880
C         12.52930       -7.88370       -2.28350
C         13.60020       -8.31400       -3.09380
N         14.50810       -8.67070       -3.69960
C         12.94520       -7.70980       -0.94670
N         13.36690       -7.56610        0.11160
C          9.03110       -6.35760        0.07540
C          8.48390       -6.80620        1.26930
F          8.87930       -7.99180        1.75900
C          7.47980       -6.11950        1.95150
F          6.94370       -6.72670        3.02300
C          6.99180       -4.89470        1.50520
C          7.51710       -4.42820        0.26120
N          6.99310       -3.32140       -0.27980
C          7.46740       -2.84610       -1.40210
C          6.79230       -1.62290       -1.94080
C          7.35580       -0.36640       -1.27210
C          8.61580       -3.44790       -1.99530
N          9.11270       -4.55080       -1.50040
C          8.55090       -5.11040       -0.41900
C          9.30030       -2.84510       -3.18560
C         10.52880       -3.63270       -3.62020
C          5.97270       -4.13540        2.16330
C          5.64860       -4.07950        3.51390
C          6.47890       -4.61180        4.59210
C          5.90620       -5.25330        5.68620
C          6.71580       -5.75880        6.68470
C          8.09190       -5.63390        6.60250
C          8.67960       -4.97710        5.52870
C         10.17250       -4.87030        5.39930
C         10.68720       -5.82510        4.31990
C          7.86150       -4.45860        4.53780
C          4.48060       -3.32600        3.72230
S          3.57730       -2.91480        5.16370
C          2.46170       -2.02990        4.17950
C          1.25770       -1.32160        4.30730
C          0.42910       -1.10790        5.43010
C         -0.83770       -0.46330        5.24240
N         -1.53490       -0.37940        6.36480
S         -0.66720       -1.04880        7.55720
N          0.62950       -1.47460        6.68620
C         -1.17170        0.02300        3.96010
C         -2.29060        0.74340        3.51470
S         -3.80060        1.33330        4.12040
C         -4.14560        2.00830        2.54480
C         -5.23600        2.73960        2.02890
C         -6.37390        3.20330        2.81900
C         -6.91210        2.40070        3.82110
C         -7.98080        2.85670        4.56890
C         -8.53280        4.10200        4.31760
C         -8.00030        4.92300        3.33170
C         -8.59430        6.27130        3.03610
C         -9.23930        6.30590        1.64940
C         -6.91040        4.46990        2.60440
C         -5.03520        3.05320        0.69750
S         -3.49410        2.49210        0.08770
C         -3.12320        1.78810        1.61890
C         -2.06310        1.05930        2.17420
N         -0.86050        0.54770        1.76640
C         -0.29320       -0.11220        2.84690
C          0.89190       -0.88040        3.00190
N          1.84890       -1.33600        2.10980
C          2.78480       -2.03860        2.82020
C          3.93670       -2.78740        2.55160
S          4.91140       -3.15560        1.17060
C          1.80010       -1.48370        0.67320
C          0.62830       -2.36160        0.24030
C         -0.24800        1.05820        0.55990
C          0.94560        1.95650        0.87470
C         -5.96260        3.70410       -0.19450
C         -5.57060        4.68020       -1.09500
F         -4.27350        5.02590       -1.18270
C         -6.48630        5.36810       -1.89740
F         -6.00690        6.28050       -2.75240
C         -7.84050        5.08410       -1.86710
C         -8.25890        4.00300       -1.04170
N         -9.55080        3.63980       -1.05150
C         -9.94340        2.62970       -0.31400
C        -11.40670        2.31480       -0.39510
C        -12.21690        3.37680        0.35260
C         -9.00620        1.90900        0.48130
N         -7.74800        2.27540        0.52120
C         -7.33870        3.32540       -0.20750
C         -9.35110        0.68640        1.27730
C        -10.18140        1.00260        2.52180
C         -8.81810        5.79400       -2.65320
C         -8.85630        7.14060       -2.78700
C         -8.11450        8.08660       -1.90040
O         -7.36800        7.80690       -0.98880
C         -8.57990        9.42890       -2.28300
C         -8.20480       10.63560       -1.76630
C         -8.78060       11.81650       -2.28510
C         -8.42700       13.09010       -1.79780
C         -8.99970       14.22040       -2.31450
C         -9.95040       14.12680       -3.34210
C        -10.31590       12.90510       -3.83780
C         -9.74630       11.72010       -3.32860
C        -10.12060       10.45620       -3.83840
C         -9.54440        9.32300       -3.32600
C         -9.72880        7.91580       -3.65450
C        -10.53090        7.42030       -4.64720
C        -11.33570        8.21920       -5.48680
N        -12.01470        8.81250       -6.19730
C        -10.66130        6.05540       -4.98100
N        -10.81900        4.97000       -5.32090
H         10.79910       -7.57030        0.01250
H          7.80470       -6.84970       -5.45910
H          7.84820       -7.16760       -7.91660
H          9.04590       -7.85210       -9.95770
H         11.37410       -8.64450       -9.82320
H         12.52420       -8.75790       -7.64850
H         12.52250       -8.44660       -5.24890
H          5.72920       -1.69690       -1.70730
H          6.91770       -1.55990       -3.02140
H          7.20630       -0.42310       -0.19700
H          6.84870        0.51760       -1.64980
H          8.42070       -0.26380       -1.46780
H          8.58370       -2.79930       -4.01100
H          9.58330       -1.81690       -2.94390
H         10.24170       -4.63190       -3.93590
H         11.02110       -3.13160       -4.45010
H         11.23030       -3.72540       -2.79580
H          4.83540       -5.37740        5.73570
H          6.27120       -6.26520        7.52850
H          8.71700       -6.04860        7.38010
H         10.64420       -5.11430        6.35260
H         10.44890       -3.84650        5.13450
H         10.28670       -5.55220        3.34530
H         10.38160       -6.84530        4.54030
H         11.77260       -5.79140        4.26540
H          8.30390       -3.92460        3.70710
H         -6.50540        1.41790        4.00090
H         -8.39070        2.23490        5.35190
H         -9.37860        4.44260        4.89830
H         -9.34510        6.51190        3.79160
H         -7.81260        7.03330        3.07940
H         -9.95150        5.49030        1.53780
H         -8.48610        6.21470        0.87040
H         -9.76450        7.24700        1.50160
H         -6.46440        5.12200        1.86760
H          2.73680       -1.96550        0.38220
H          1.77550       -0.50880        0.18640
H          0.60500       -2.44300       -0.84310
H         -0.31890       -1.95320        0.58460
H          0.73980       -3.35860        0.65970
H         -1.01380        1.64660        0.04870
H          0.02650        0.24240       -0.10940
H          1.39580        2.31170       -0.04830
H          1.69760        1.42580        1.45400
H          0.61840        2.81740        1.45300
H        -11.61790        1.32470        0.00490
H        -11.69660        2.33830       -1.44730
H        -11.94470        3.40400        1.40600
H        -12.02360        4.35570       -0.07870
H        -13.27960        3.16220        0.27330
H         -8.40800        0.23340        1.58550
H         -9.88820       -0.02370        0.64380
H        -10.29790        0.10250        3.12050
H        -11.17010        1.36880        2.26140
H         -9.67740        1.75560        3.12200
H         -9.58240        5.17160       -3.09850
H         -7.47180       10.68790       -0.97500
H         -7.69420       13.15590       -1.00690
H         -8.72380       15.19270       -1.93450
H        -10.39160       15.02860       -3.73940
H        -11.04660       12.82790       -4.62970
H        -10.85930       10.41640       -4.62320
