190

C        -11.20730       -8.39270        1.28620
C        -11.08440       -9.06000        2.46380
C         -9.93780       -8.89250        3.39940
O         -8.92540       -8.24660        3.23120
C        -10.34870       -9.56280        4.64550
C         -9.66360       -9.65820        5.82200
C        -10.26060      -10.32430        6.91570
C         -9.60150      -10.45440        8.15380
C        -10.20300      -11.09490        9.20290
C        -11.48940      -11.63540        9.05860
C        -12.15640      -11.52720        7.86870
C        -11.56700      -10.87310        6.76770
C        -12.25360      -10.75640        5.53710
C        -11.65260      -10.11290        4.48760
C        -12.10690       -9.84520        3.12900
C        -13.25220      -10.32870        2.55330
C        -13.61150      -10.13940        1.20210
N        -13.95640      -10.04850        0.11080
C        -14.20440      -11.11670        3.23190
N        -15.01550      -11.75480        3.73520
C        -10.11270       -7.75750        0.61420
C        -10.24240       -6.52450       -0.01140
F        -11.43920       -5.91700       -0.00750
C         -9.16530       -5.83230       -0.56780
F         -9.42550       -4.60960       -1.06920
C         -7.86030       -6.32560       -0.59900
C         -7.71860       -7.65080       -0.08340
C         -8.82600       -8.34600        0.51720
N         -8.50130       -9.57560        0.89950
S         -6.94930       -9.82440        0.58440
N         -6.61730       -8.39700       -0.08220
C         -6.74360       -5.56790       -1.05260
S         -6.90350       -3.85780       -1.46480
C         -5.20810       -3.74880       -1.71350
C         -4.20320       -2.83240       -2.00360
S         -4.01500       -1.13440       -2.29540
C         -2.30230       -1.37800       -2.36760
C         -1.18740       -0.48820       -2.44200
C         -0.02170       -1.27640       -2.32450
C         -0.37420       -2.76150       -2.28850
C          0.09210       -3.37430       -3.59840
C          1.44790       -3.53610       -3.85050
C          1.90630       -4.06260       -5.04460
C          1.00380       -4.44060       -6.03370
O          1.31880       -4.99580       -7.23370
C          2.67180       -5.11440       -7.62480
C          3.26960       -3.78780       -8.08440
C         -0.35880       -4.26410       -5.79200
C         -0.80380       -3.73600       -4.59840
C          0.20510       -3.42390       -1.05380
C          0.84280       -4.65430       -1.07900
C          1.32910       -5.23800        0.08070
C          1.17820       -4.59600        1.30390
O          1.62220       -5.05150        2.50430
C          2.21540       -6.33080        2.59980
C          1.18950       -7.46010        2.56230
C          0.52810       -3.35910        1.33330
C          0.05080       -2.78780        0.17610
C         -1.88360       -2.68940       -2.20270
C         -2.97100       -3.54220       -1.98260
N         -3.21290       -4.85740       -1.68550
C         -4.56620       -4.99670       -1.51730
C         -5.43420       -6.01480       -1.14510
C         -2.26490       -5.93660       -1.57990
C         -2.09230       -6.67510       -2.90550
C          1.21100       -0.68690       -2.17700
C          1.25160        0.70470       -2.15440
C          2.31970        1.59910       -1.83860
C          1.88020        2.91200       -1.80620
C          0.42930        2.97840       -2.23260
C          0.09340        1.49240       -2.33130
C         -1.13970        0.90310       -2.47650
C         -0.41440        3.65230       -1.16710
C         -1.00560        4.89980       -1.34120
C         -1.74680        5.47500       -0.33020
C         -1.91550        4.82370        0.89260
O         -2.66680        5.47620        1.81320
C         -2.90250        4.86650        3.06810
C         -3.79410        5.79830        3.87290
C         -1.31190        3.58350        1.07770
C         -0.57190        3.01570        0.05650
C          0.26480        3.57160       -3.62110
C          1.35640        3.87430       -4.41940
C          1.20040        4.38530       -5.69840
C         -0.07160        4.60080       -6.21400
O         -0.36250        5.12480       -7.43350
C          0.67560        5.39410       -8.35410
C          1.19960        4.13290       -9.03450
C         -1.17500        4.27640       -5.42070
C         -1.00800        3.76720       -4.15320
C          2.89530        3.77330       -1.36800
C          4.09470        3.06490       -1.08980
S          3.97120        1.36010       -1.37040
C          5.01360        3.99370       -0.61120
S          6.61330        4.10910        0.01730
C          6.38020        5.83220        0.30470
C          5.13570        6.28010       -0.09240
C          4.35610        5.24510       -0.60810
N          3.07410        5.09820       -1.06670
C          2.12590        6.17490       -1.20150
C          2.20660        6.83930       -2.57380
C          7.39640        6.58270        0.94280
C          8.60610        6.13070        1.42920
C          9.35990        7.12730        2.05140
Cl        10.79900        6.76350        2.88680
C          8.75550        8.38140        2.05270
S          7.18880        8.27340        1.28180
C          9.12740        9.60180        2.65420
C         10.39680       10.07120        2.84600
C         11.58470        9.63940        2.06210
O         11.60860        8.80350        1.18610
C         12.67280       10.53950        2.48160
C         14.00430       10.55440        2.05670
O         14.38490        9.62350        1.16770
C         15.72210        9.59540        0.72890
C         14.83910       11.53650        2.60430
C         14.35150       12.45280        3.51870
C         13.02900       12.43980        3.94020
C         12.19020       11.47110        3.41580
C         10.77690       11.19560        3.66810
C          9.98740       11.83570        4.58910
C          8.65040       11.49480        4.88180
N          7.56720       11.27000        5.19130
C         10.41060       12.91450        5.39200
N         10.68200       13.79920        6.07200
H        -12.18290       -8.27110        0.83170
H         -8.67690       -9.22950        5.91740
H         -8.61130      -10.03510        8.25890
H         -9.69160      -11.18770       10.14940
H        -11.94990      -12.13800        9.89600
H        -13.14680      -11.94240        7.75280
H        -13.24540      -11.17290        5.45900
H          2.17050       -3.25410       -3.10020
H          2.97020       -4.17170       -5.18450
H          3.27150       -5.55550       -6.81890
H          2.64960       -5.81980       -8.46020
H          2.68390       -3.38650       -8.90760
H          4.29110       -3.94330       -8.42020
H          3.26890       -3.05970       -7.27680
H         -1.05620       -4.55050       -6.56340
H         -1.86480       -3.59910       -4.45370
H          0.97210       -5.18020       -2.01400
H          1.82440       -6.19320        0.00470
H          2.97470       -6.46530        1.81940
H          2.71970       -6.32210        3.57010
H          1.69080       -8.41420        2.69980
H          0.46390       -7.32390        3.36020
H          0.65750       -7.47340        1.61400
H          0.41360       -2.86570        2.28520
H         -0.45040       -1.83190        0.22020
H         -5.16690       -7.03210       -0.93160
H         -1.30970       -5.52450       -1.24940
H         -2.63310       -6.62610       -0.81490
H         -3.04920       -7.05870       -3.25180
H         -1.40900       -7.50970       -2.77520
H         -1.68590       -6.00830       -3.66230
H          2.11230       -1.25830       -2.02060
H         -2.04990        1.47640       -2.55340
H         -0.89670        5.42840       -2.27660
H         -2.21130        6.43880       -0.46570
H         -3.39670        3.89530        2.92760
H         -1.95030        4.70470        3.59250
H         -4.73440        5.95410        3.35130
H         -3.99430        5.36660        4.84920
H         -3.30560        6.76040        4.00060
H         -1.41090        3.04950        2.00940
H         -0.10980        2.05210        0.21710
H          2.35890        3.70730       -4.05350
H          2.08550        4.61040       -6.27260
H          1.49110        5.94510       -7.86910
H          0.21350        6.05050       -9.09680
H          0.38230        3.61870       -9.53380
H          1.95220        4.39990       -9.77130
H          1.63950        3.45270       -8.30910
H         -2.16070        4.43610       -5.82810
H         -1.87980        3.52720       -3.56500
H          4.83480        7.30660        0.01390
H          1.12370        5.77570       -1.03440
H          2.34360        6.90740       -0.41940
H          1.51120        7.67270       -2.61830
H          1.94750        6.12830       -3.35480
H          3.21190        7.21250       -2.75650
H          8.92410        5.10680        1.35250
H          8.29670       10.22400        2.96580
H         15.78170        8.76060        0.03290
H         16.41450        9.42450        1.55950
H         15.99410       10.51980        0.20960
H         15.87700       11.59060        2.31610
H         15.02210       13.20000        3.91600
H         12.68050       13.17000        4.65050
