221

C         -8.85700       -0.66740        3.95940
C        -10.01260       -0.28380        3.32270
C        -11.21170        0.05160        4.12230
O        -11.27660        0.18640        5.32580
C        -12.32040        0.11510        3.14770
C        -13.65490        0.27730        3.37310
C        -14.54450        0.27950        2.27380
C        -15.93530        0.41740        2.44680
C        -16.78010        0.40990        1.36970
C        -16.26930        0.26690        0.07160
C        -14.92240        0.13320       -0.13040
C        -14.02500        0.13490        0.95610
C        -12.63330       -0.01470        0.75280
C        -11.79670       -0.04090        1.83330
C        -10.34960       -0.20440        1.93190
C         -9.45090       -0.08130        0.89310
C         -9.81260       -0.06740       -0.46410
N        -10.04550       -0.10640       -1.58930
C         -8.07600        0.11490        1.09300
N         -6.95060        0.32160        1.21050
C         -7.78360       -1.44430        3.50770
C         -7.64170       -2.36840        2.45090
N         -8.63800       -2.85660        1.64410
C         -9.97340       -3.00380        2.05210
C        -10.32410       -3.21890        3.38250
C        -11.65270       -3.32570        3.74310
C        -12.66670       -3.24420        2.79590
C        -14.10470       -3.34190        3.19810
C        -12.30700       -3.08790        1.46250
C        -10.98460       -2.96100        1.09130
C         -8.27870       -3.47460        0.41740
C         -8.72010       -4.76300        0.13790
C         -8.37880       -5.36800       -1.05570
C         -7.59500       -4.70890       -1.99400
C         -7.20010       -5.37080       -3.27740
C         -7.16880       -3.41660       -1.70920
C         -7.50260       -2.80000       -0.51990
C         -6.29750       -2.79580        2.35210
S         -5.45020       -3.88410        1.30460
C         -3.93590       -3.54530        2.11860
C         -4.10260       -2.68610        3.19430
N         -3.09540       -2.30150        4.06190
C         -2.08880       -3.20420        4.42570
C         -2.36260       -4.56480        4.55150
C         -1.35280       -5.45280        4.85930
C         -0.04570       -5.02010        5.04890
C          1.05130       -6.00270        5.32220
C          0.21370       -3.65880        4.95510
C         -0.78800       -2.75860        4.64790
C         -3.11020       -0.98980        4.56450
C         -2.76440       -0.73300        5.88780
C         -2.80000        0.55890        6.37350
C         -3.18810        1.62080        5.56540
C         -3.25970        3.01590        6.10660
C         -3.53220        1.35430        4.24570
C         -3.48940        0.06940        3.74350
C         -5.44800       -2.27010        3.31520
S         -6.28130       -1.25250        4.42210
C         -2.66050       -3.97330        1.61290
C         -2.13800       -5.21850        1.34420
C         -2.83710       -6.49910        1.46890
C         -2.23650       -7.53950        2.17330
C         -2.88570       -8.75230        2.29860
C         -4.13210       -8.94030        1.72660
C         -4.73320       -7.92220        0.99820
C         -6.10460       -8.09910        0.41360
C         -7.16160       -7.68990        1.44070
C         -4.07080       -6.71110        0.86650
C         -0.77730       -5.13140        0.96900
S          0.40630       -6.33510        0.51690
C          1.55570       -5.07200        0.21980
C          2.88840       -4.91090       -0.21210
C          3.94910       -5.80740       -0.47590
C          5.26090       -5.28470       -0.77740
N          6.16070       -6.24340       -0.92660
S          5.43250       -7.67440       -0.71940
N          3.93660       -7.12980       -0.42530
C          5.43050       -3.89140       -0.94630
C          6.50460       -3.08300       -1.37330
S          8.18350       -3.22000       -1.78210
C          8.22590       -1.50610       -2.13210
C          9.24330       -0.63470       -2.59000
C         10.57700       -1.11170       -2.96190
C         11.17850       -0.69660       -4.14820
C         12.41430       -1.19900       -4.50480
C         13.05640       -2.12080       -3.69460
C         12.46900       -2.54940       -2.51190
C         13.12260       -3.59270       -1.65270
C         12.54290       -4.97320       -1.96760
C         11.22940       -2.03810       -2.15670
C          8.77740        0.65630       -2.71870
S          7.07300        0.79640       -2.30820
C          6.99390       -0.88630       -1.94210
C          6.01110       -1.78330       -1.50860
N          4.68160       -1.73760       -1.16740
C          4.32470       -3.01990       -0.79060
C          3.11290       -3.51280       -0.26610
N          1.99170       -2.84130        0.18370
C          1.04620       -3.79490        0.46910
C         -0.28230       -3.83180        0.91010
S         -1.48270       -2.68150        1.36090
C          1.97630       -1.56320        0.86570
C          2.01020       -1.75100        2.38130
C          3.80560       -0.75850       -1.77980
C          3.87260       -0.83280       -3.30520
C          9.47450        1.88380       -3.04190
C          8.76170        2.92830       -3.62470
C          9.40920        4.12760       -3.86240
N          8.92480        5.28620       -4.41060
C          7.55830        5.54870       -4.78050
C          6.79010        6.22670       -3.64740
C          9.92050        6.23080       -4.37230
C         11.10290        5.65110       -3.83930
C         10.77540        4.30060       -3.51610
C         11.47820        3.24580       -2.93770
C         10.83040        2.05670       -2.70260
C         12.25880        6.42290       -3.72870
C         12.21180        7.74220       -4.10540
C         11.01910        8.33750       -4.57620
C          9.87330        7.55730       -4.75040
C         11.03430        9.73760       -4.88220
C         10.00970       10.63150       -4.78380
C          8.74280       10.44740       -4.02720
O          8.28060        9.43150       -3.54960
C          8.16140       11.79590       -3.89780
C          7.02560       12.16640       -3.23740
C          6.63950       13.52530       -3.24110
C          5.47560       13.96730       -2.58190
C          5.12200       15.28920       -2.59770
C          5.91650       16.22680       -3.27430
C          7.05350       15.83020       -3.92390
C          7.44730       14.47660       -3.92830
C          8.61980       14.06250       -4.60100
C          8.97190       12.73870       -4.58950
C         10.09570       12.02760       -5.18380
C         11.01890       12.56930       -6.03950
C         12.04160       11.85110       -6.69420
N         12.88570       11.33880       -7.28090
C         11.04290       13.92850       -6.41460
N         11.11910       15.02380       -6.75090
H         -8.79110       -0.35390        4.99770
H        -14.03250        0.39980        4.37750
H        -16.32330        0.52850        3.44900
H        -17.84530        0.51520        1.51240
H        -16.94820        0.26390       -0.76820
H        -14.52340        0.02440       -1.12860
H        -12.26540       -0.12780       -0.25520
H         -9.55660       -3.30470        4.13650
H        -11.90460       -3.47090        4.78310
H        -14.74090       -2.82220        2.48510
H        -14.25620       -2.91300        4.18570
H        -14.41510       -4.38680        3.23270
H        -13.07550       -3.04050        0.70500
H        -10.72760       -2.80940        0.05300
H         -9.32900       -5.28570        0.86100
H         -8.72570       -6.37080       -1.25790
H         -7.36760       -4.70270       -4.11990
H         -7.76490       -6.28600       -3.43570
H         -6.13890       -5.62030       -3.25760
H         -6.56900       -2.88180       -2.43020
H         -7.15980       -1.79770       -0.31600
H         -3.37020       -4.92600        4.40660
H         -1.58790       -6.50250        4.95720
H          1.91240       -5.51190        5.76930
H          0.70780       -6.79080        5.98920
H          1.37330       -6.46990        4.39030
H          1.21890       -3.29570        5.11610
H         -0.56810       -1.70430        4.56580
H         -2.47360       -1.55070        6.53090
H         -2.53160        0.74340        7.40390
H         -2.60000        3.13670        6.96250
H         -2.98680        3.74170        5.34360
H         -4.27760        3.23690        6.42960
H         -3.83530        2.16400        3.59830
H         -3.74990       -0.11710        2.71210
H         -1.26810       -7.38850        2.62460
H         -2.41780       -9.55670        2.84710
H         -4.63750       -9.88930        1.83530
H         -6.21280       -7.47650       -0.47660
H         -6.25830       -9.14220        0.13030
H         -7.04210       -6.63990        1.69860
H         -7.05890       -8.28290        2.34690
H         -8.16160       -7.83840        1.04040
H         -4.51010       -5.93100        0.26270
H         10.67100        0.01110       -4.78680
H         12.87840       -0.87550       -5.42510
H         14.02090       -2.51220       -3.98470
H         12.95150       -3.36420       -0.59860
H         14.19970       -3.60160       -1.83100
H         11.47000       -4.98260       -1.78950
H         13.00690       -5.73270       -1.34260
H         12.71790       -5.22680       -3.01080
H         10.76940       -2.35700       -1.23260
H          1.06710       -1.02480        0.57920
H          2.85190       -0.98860        0.56950
H          2.90560       -2.29790        2.66990
H          2.01940       -0.78020        2.86920
H          1.13890       -2.30310        2.72120
H          2.78030       -0.95600       -1.47290
H          4.10530        0.23920       -1.44280
H          3.16180       -0.13220       -3.73480
H          3.62240       -1.83670       -3.64180
H          4.86620       -0.58190       -3.66540
H          7.71950        2.79220       -3.87330
H          7.08720        4.59900       -5.04500
H          7.55620        6.18740       -5.66860
H          7.24250        7.18540       -3.40580
H          6.80320        5.60000       -2.75840
H          5.75770        6.39110       -3.94460
H         12.51400        3.36850       -2.66060
H         11.35530        1.24400       -2.22620
H         13.17070        5.98780       -3.34920
H         13.09230        8.36040       -4.01110
H          8.98780        7.98320       -5.18860
H         12.00430       10.12800       -5.16960
H          6.42780       11.43080       -2.71960
H          4.86770       13.24070       -2.06260
H          4.22840       15.61970       -2.08930
H          5.62290       17.26590       -3.27770
H          7.66830       16.54820       -4.44670
H          9.21480       14.80770       -5.10480
