
  xtb     02282208293D
 energy: -361.377462432732 gnorm: 0.000605276114 xtb: 6.4.1 (unknown)
221245  0     0  0            999 V2000
   -8.8570   -0.6674    3.9594 C   0  0  0  0  0  0  0  0  0  0  0  0
  -10.0126   -0.2838    3.3227 C   0  0  0  0  0  0  0  0  0  0  0  0
  -11.2117    0.0516    4.1223 C   0  0  0  0  0  0  0  0  0  0  0  0
  -11.2766    0.1864    5.3258 O   0  0  0  0  0  0  0  0  0  0  0  0
  -12.3204    0.1151    3.1477 C   0  0  0  0  0  0  0  0  0  0  0  0
  -13.6549    0.2773    3.3731 C   0  0  0  0  0  0  0  0  0  0  0  0
  -14.5445    0.2795    2.2738 C   0  0  0  0  0  0  0  0  0  0  0  0
  -15.9353    0.4174    2.4468 C   0  0  0  0  0  0  0  0  0  0  0  0
  -16.7801    0.4099    1.3697 C   0  0  0  0  0  0  0  0  0  0  0  0
  -16.2693    0.2669    0.0716 C   0  0  0  0  0  0  0  0  0  0  0  0
  -14.9224    0.1332   -0.1304 C   0  0  0  0  0  0  0  0  0  0  0  0
  -14.0250    0.1349    0.9561 C   0  0  0  0  0  0  0  0  0  0  0  0
  -12.6333   -0.0147    0.7528 C   0  0  0  0  0  0  0  0  0  0  0  0
  -11.7967   -0.0409    1.8333 C   0  0  0  0  0  0  0  0  0  0  0  0
  -10.3496   -0.2044    1.9319 C   0  0  0  0  0  0  0  0  0  0  0  0
   -9.4509   -0.0813    0.8931 C   0  0  0  0  0  0  0  0  0  0  0  0
   -9.8126   -0.0674   -0.4641 C   0  0  0  0  0  0  0  0  0  0  0  0
  -10.0455   -0.1064   -1.5893 N   0  0  0  0  0  0  0  0  0  0  0  0
   -8.0760    0.1149    1.0930 C   0  0  0  0  0  0  0  0  0  0  0  0
   -6.9506    0.3216    1.2105 N   0  0  0  0  0  0  0  0  0  0  0  0
   -7.7836   -1.4443    3.5077 C   0  0  0  0  0  0  0  0  0  0  0  0
   -7.6417   -2.3684    2.4509 C   0  0  0  0  0  0  0  0  0  0  0  0
   -8.6380   -2.8566    1.6441 N   0  0  0  0  0  0  0  0  0  0  0  0
   -9.9734   -3.0038    2.0521 C   0  0  0  0  0  0  0  0  0  0  0  0
  -10.3241   -3.2189    3.3825 C   0  0  0  0  0  0  0  0  0  0  0  0
  -11.6527   -3.3257    3.7431 C   0  0  0  0  0  0  0  0  0  0  0  0
  -12.6667   -3.2442    2.7959 C   0  0  0  0  0  0  0  0  0  0  0  0
  -14.1047   -3.3419    3.1981 C   0  0  0  0  0  0  0  0  0  0  0  0
  -12.3070   -3.0879    1.4625 C   0  0  0  0  0  0  0  0  0  0  0  0
  -10.9846   -2.9610    1.0913 C   0  0  0  0  0  0  0  0  0  0  0  0
   -8.2787   -3.4746    0.4174 C   0  0  0  0  0  0  0  0  0  0  0  0
   -8.7201   -4.7630    0.1379 C   0  0  0  0  0  0  0  0  0  0  0  0
   -8.3788   -5.3680   -1.0557 C   0  0  0  0  0  0  0  0  0  0  0  0
   -7.5950   -4.7089   -1.9940 C   0  0  0  0  0  0  0  0  0  0  0  0
   -7.2001   -5.3708   -3.2774 C   0  0  0  0  0  0  0  0  0  0  0  0
   -7.1688   -3.4166   -1.7092 C   0  0  0  0  0  0  0  0  0  0  0  0
   -7.5026   -2.8000   -0.5199 C   0  0  0  0  0  0  0  0  0  0  0  0
   -6.2975   -2.7958    2.3521 C   0  0  0  0  0  0  0  0  0  0  0  0
   -5.4502   -3.8841    1.3046 S   0  0  0  0  0  0  0  0  0  0  0  0
   -3.9359   -3.5453    2.1186 C   0  0  0  0  0  0  0  0  0  0  0  0
   -4.1026   -2.6861    3.1943 C   0  0  0  0  0  0  0  0  0  0  0  0
   -3.0954   -2.3015    4.0619 N   0  0  0  0  0  0  0  0  0  0  0  0
   -2.0888   -3.2042    4.4257 C   0  0  0  0  0  0  0  0  0  0  0  0
   -2.3626   -4.5648    4.5515 C   0  0  0  0  0  0  0  0  0  0  0  0
   -1.3528   -5.4528    4.8593 C   0  0  0  0  0  0  0  0  0  0  0  0
   -0.0457   -5.0201    5.0489 C   0  0  0  0  0  0  0  0  0  0  0  0
    1.0513   -6.0027    5.3222 C   0  0  0  0  0  0  0  0  0  0  0  0
    0.2137   -3.6588    4.9551 C   0  0  0  0  0  0  0  0  0  0  0  0
   -0.7880   -2.7586    4.6479 C   0  0  0  0  0  0  0  0  0  0  0  0
   -3.1102   -0.9898    4.5645 C   0  0  0  0  0  0  0  0  0  0  0  0
   -2.7644   -0.7330    5.8878 C   0  0  0  0  0  0  0  0  0  0  0  0
   -2.8000    0.5589    6.3735 C   0  0  0  0  0  0  0  0  0  0  0  0
   -3.1881    1.6208    5.5654 C   0  0  0  0  0  0  0  0  0  0  0  0
   -3.2597    3.0159    6.1066 C   0  0  0  0  0  0  0  0  0  0  0  0
   -3.5322    1.3543    4.2457 C   0  0  0  0  0  0  0  0  0  0  0  0
   -3.4894    0.0694    3.7435 C   0  0  0  0  0  0  0  0  0  0  0  0
   -5.4480   -2.2701    3.3152 C   0  0  0  0  0  0  0  0  0  0  0  0
   -6.2813   -1.2525    4.4221 S   0  0  0  0  0  0  0  0  0  0  0  0
   -2.6605   -3.9733    1.6129 C   0  0  0  0  0  0  0  0  0  0  0  0
   -2.1380   -5.2185    1.3442 C   0  0  0  0  0  0  0  0  0  0  0  0
   -2.8371   -6.4991    1.4689 C   0  0  0  0  0  0  0  0  0  0  0  0
   -2.2365   -7.5395    2.1733 C   0  0  0  0  0  0  0  0  0  0  0  0
   -2.8857   -8.7523    2.2986 C   0  0  0  0  0  0  0  0  0  0  0  0
   -4.1321   -8.9403    1.7266 C   0  0  0  0  0  0  0  0  0  0  0  0
   -4.7332   -7.9222    0.9982 C   0  0  0  0  0  0  0  0  0  0  0  0
   -6.1046   -8.0991    0.4136 C   0  0  0  0  0  0  0  0  0  0  0  0
   -7.1616   -7.6899    1.4407 C   0  0  0  0  0  0  0  0  0  0  0  0
   -4.0708   -6.7111    0.8665 C   0  0  0  0  0  0  0  0  0  0  0  0
   -0.7773   -5.1314    0.9690 C   0  0  0  0  0  0  0  0  0  0  0  0
    0.4063   -6.3351    0.5169 S   0  0  0  0  0  0  0  0  0  0  0  0
    1.5557   -5.0720    0.2198 C   0  0  0  0  0  0  0  0  0  0  0  0
    2.8884   -4.9109   -0.2121 C   0  0  0  0  0  0  0  0  0  0  0  0
    3.9491   -5.8074   -0.4759 C   0  0  0  0  0  0  0  0  0  0  0  0
    5.2609   -5.2847   -0.7774 C   0  0  0  0  0  0  0  0  0  0  0  0
    6.1607   -6.2434   -0.9266 N   0  0  0  0  0  0  0  0  0  0  0  0
    5.4325   -7.6744   -0.7194 S   0  0  0  0  0  0  0  0  0  0  0  0
    3.9366   -7.1298   -0.4253 N   0  0  0  0  0  0  0  0  0  0  0  0
    5.4305   -3.8914   -0.9463 C   0  0  0  0  0  0  0  0  0  0  0  0
    6.5046   -3.0830   -1.3733 C   0  0  0  0  0  0  0  0  0  0  0  0
    8.1835   -3.2200   -1.7821 S   0  0  0  0  0  0  0  0  0  0  0  0
    8.2259   -1.5061   -2.1321 C   0  0  0  0  0  0  0  0  0  0  0  0
    9.2433   -0.6347   -2.5900 C   0  0  0  0  0  0  0  0  0  0  0  0
   10.5770   -1.1117   -2.9619 C   0  0  0  0  0  0  0  0  0  0  0  0
   11.1785   -0.6966   -4.1482 C   0  0  0  0  0  0  0  0  0  0  0  0
   12.4143   -1.1990   -4.5048 C   0  0  0  0  0  0  0  0  0  0  0  0
   13.0564   -2.1208   -3.6946 C   0  0  0  0  0  0  0  0  0  0  0  0
   12.4690   -2.5494   -2.5119 C   0  0  0  0  0  0  0  0  0  0  0  0
   13.1226   -3.5927   -1.6527 C   0  0  0  0  0  0  0  0  0  0  0  0
   12.5429   -4.9732   -1.9676 C   0  0  0  0  0  0  0  0  0  0  0  0
   11.2294   -2.0381   -2.1567 C   0  0  0  0  0  0  0  0  0  0  0  0
    8.7774    0.6563   -2.7187 C   0  0  0  0  0  0  0  0  0  0  0  0
    7.0730    0.7964   -2.3082 S   0  0  0  0  0  0  0  0  0  0  0  0
    6.9939   -0.8863   -1.9421 C   0  0  0  0  0  0  0  0  0  0  0  0
    6.0111   -1.7833   -1.5086 C   0  0  0  0  0  0  0  0  0  0  0  0
    4.6816   -1.7376   -1.1674 N   0  0  0  0  0  0  0  0  0  0  0  0
    4.3247   -3.0199   -0.7906 C   0  0  0  0  0  0  0  0  0  0  0  0
    3.1129   -3.5128   -0.2661 C   0  0  0  0  0  0  0  0  0  0  0  0
    1.9917   -2.8413    0.1837 N   0  0  0  0  0  0  0  0  0  0  0  0
    1.0462   -3.7949    0.4691 C   0  0  0  0  0  0  0  0  0  0  0  0
   -0.2823   -3.8318    0.9101 C   0  0  0  0  0  0  0  0  0  0  0  0
   -1.4827   -2.6815    1.3609 S   0  0  0  0  0  0  0  0  0  0  0  0
    1.9763   -1.5632    0.8657 C   0  0  0  0  0  0  0  0  0  0  0  0
    2.0102   -1.7510    2.3813 C   0  0  0  0  0  0  0  0  0  0  0  0
    3.8056   -0.7585   -1.7798 C   0  0  0  0  0  0  0  0  0  0  0  0
    3.8726   -0.8328   -3.3052 C   0  0  0  0  0  0  0  0  0  0  0  0
    9.4745    1.8838   -3.0419 C   0  0  0  0  0  0  0  0  0  0  0  0
    8.7617    2.9283   -3.6247 C   0  0  0  0  0  0  0  0  0  0  0  0
    9.4092    4.1276   -3.8624 C   0  0  0  0  0  0  0  0  0  0  0  0
    8.9248    5.2862   -4.4106 N   0  0  0  0  0  0  0  0  0  0  0  0
    7.5583    5.5487   -4.7805 C   0  0  0  0  0  0  0  0  0  0  0  0
    6.7901    6.2267   -3.6474 C   0  0  0  0  0  0  0  0  0  0  0  0
    9.9205    6.2308   -4.3723 C   0  0  0  0  0  0  0  0  0  0  0  0
   11.1029    5.6511   -3.8393 C   0  0  0  0  0  0  0  0  0  0  0  0
   10.7754    4.3006   -3.5161 C   0  0  0  0  0  0  0  0  0  0  0  0
   11.4782    3.2458   -2.9377 C   0  0  0  0  0  0  0  0  0  0  0  0
   10.8304    2.0567   -2.7026 C   0  0  0  0  0  0  0  0  0  0  0  0
   12.2588    6.4229   -3.7287 C   0  0  0  0  0  0  0  0  0  0  0  0
   12.2118    7.7422   -4.1054 C   0  0  0  0  0  0  0  0  0  0  0  0
   11.0191    8.3375   -4.5762 C   0  0  0  0  0  0  0  0  0  0  0  0
    9.8733    7.5573   -4.7504 C   0  0  0  0  0  0  0  0  0  0  0  0
   11.0343    9.7376   -4.8822 C   0  0  0  0  0  0  0  0  0  0  0  0
   10.0097   10.6315   -4.7838 C   0  0  0  0  0  0  0  0  0  0  0  0
    8.7428   10.4474   -4.0272 C   0  0  0  0  0  0  0  0  0  0  0  0
    8.2806    9.4315   -3.5496 O   0  0  0  0  0  0  0  0  0  0  0  0
    8.1614   11.7959   -3.8978 C   0  0  0  0  0  0  0  0  0  0  0  0
    7.0256   12.1664   -3.2374 C   0  0  0  0  0  0  0  0  0  0  0  0
    6.6395   13.5253   -3.2411 C   0  0  0  0  0  0  0  0  0  0  0  0
    5.4756   13.9673   -2.5819 C   0  0  0  0  0  0  0  0  0  0  0  0
    5.1220   15.2892   -2.5977 C   0  0  0  0  0  0  0  0  0  0  0  0
    5.9165   16.2268   -3.2743 C   0  0  0  0  0  0  0  0  0  0  0  0
    7.0535   15.8302   -3.9239 C   0  0  0  0  0  0  0  0  0  0  0  0
    7.4473   14.4766   -3.9283 C   0  0  0  0  0  0  0  0  0  0  0  0
    8.6198   14.0625   -4.6010 C   0  0  0  0  0  0  0  0  0  0  0  0
    8.9719   12.7387   -4.5895 C   0  0  0  0  0  0  0  0  0  0  0  0
   10.0957   12.0276   -5.1838 C   0  0  0  0  0  0  0  0  0  0  0  0
   11.0189   12.5693   -6.0395 C   0  0  0  0  0  0  0  0  0  0  0  0
   12.0416   11.8511   -6.6942 C   0  0  0  0  0  0  0  0  0  0  0  0
   12.8857   11.3388   -7.2809 N   0  0  0  0  0  0  0  0  0  0  0  0
   11.0429   13.9285   -6.4146 C   0  0  0  0  0  0  0  0  0  0  0  0
   11.1191   15.0238   -6.7509 N   0  0  0  0  0  0  0  0  0  0  0  0
   -8.7911   -0.3539    4.9977 H   0  0  0  0  0  0  0  0  0  0  0  0
  -14.0325    0.3998    4.3775 H   0  0  0  0  0  0  0  0  0  0  0  0
  -16.3233    0.5285    3.4490 H   0  0  0  0  0  0  0  0  0  0  0  0
  -17.8453    0.5152    1.5124 H   0  0  0  0  0  0  0  0  0  0  0  0
  -16.9482    0.2639   -0.7682 H   0  0  0  0  0  0  0  0  0  0  0  0
  -14.5234    0.0244   -1.1286 H   0  0  0  0  0  0  0  0  0  0  0  0
  -12.2654   -0.1278   -0.2552 H   0  0  0  0  0  0  0  0  0  0  0  0
   -9.5566   -3.3047    4.1365 H   0  0  0  0  0  0  0  0  0  0  0  0
  -11.9046   -3.4709    4.7831 H   0  0  0  0  0  0  0  0  0  0  0  0
  -14.7409   -2.8222    2.4851 H   0  0  0  0  0  0  0  0  0  0  0  0
  -14.2562   -2.9130    4.1857 H   0  0  0  0  0  0  0  0  0  0  0  0
  -14.4151   -4.3868    3.2327 H   0  0  0  0  0  0  0  0  0  0  0  0
  -13.0755   -3.0405    0.7050 H   0  0  0  0  0  0  0  0  0  0  0  0
  -10.7276   -2.8094    0.0530 H   0  0  0  0  0  0  0  0  0  0  0  0
   -9.3290   -5.2857    0.8610 H   0  0  0  0  0  0  0  0  0  0  0  0
   -8.7257   -6.3708   -1.2579 H   0  0  0  0  0  0  0  0  0  0  0  0
   -7.3676   -4.7027   -4.1199 H   0  0  0  0  0  0  0  0  0  0  0  0
   -7.7649   -6.2860   -3.4357 H   0  0  0  0  0  0  0  0  0  0  0  0
   -6.1389   -5.6203   -3.2576 H   0  0  0  0  0  0  0  0  0  0  0  0
   -6.5690   -2.8818   -2.4302 H   0  0  0  0  0  0  0  0  0  0  0  0
   -7.1598   -1.7977   -0.3160 H   0  0  0  0  0  0  0  0  0  0  0  0
   -3.3702   -4.9260    4.4066 H   0  0  0  0  0  0  0  0  0  0  0  0
   -1.5879   -6.5025    4.9572 H   0  0  0  0  0  0  0  0  0  0  0  0
    1.9124   -5.5119    5.7693 H   0  0  0  0  0  0  0  0  0  0  0  0
    0.7078   -6.7908    5.9892 H   0  0  0  0  0  0  0  0  0  0  0  0
    1.3733   -6.4699    4.3903 H   0  0  0  0  0  0  0  0  0  0  0  0
    1.2189   -3.2957    5.1161 H   0  0  0  0  0  0  0  0  0  0  0  0
   -0.5681   -1.7043    4.5658 H   0  0  0  0  0  0  0  0  0  0  0  0
   -2.4736   -1.5507    6.5309 H   0  0  0  0  0  0  0  0  0  0  0  0
   -2.5316    0.7434    7.4039 H   0  0  0  0  0  0  0  0  0  0  0  0
   -2.6000    3.1367    6.9625 H   0  0  0  0  0  0  0  0  0  0  0  0
   -2.9868    3.7417    5.3436 H   0  0  0  0  0  0  0  0  0  0  0  0
   -4.2776    3.2369    6.4296 H   0  0  0  0  0  0  0  0  0  0  0  0
   -3.8353    2.1640    3.5983 H   0  0  0  0  0  0  0  0  0  0  0  0
   -3.7499   -0.1171    2.7121 H   0  0  0  0  0  0  0  0  0  0  0  0
   -1.2681   -7.3885    2.6246 H   0  0  0  0  0  0  0  0  0  0  0  0
   -2.4178   -9.5567    2.8471 H   0  0  0  0  0  0  0  0  0  0  0  0
   -4.6375   -9.8893    1.8353 H   0  0  0  0  0  0  0  0  0  0  0  0
   -6.2128   -7.4765   -0.4766 H   0  0  0  0  0  0  0  0  0  0  0  0
   -6.2583   -9.1422    0.1303 H   0  0  0  0  0  0  0  0  0  0  0  0
   -7.0421   -6.6399    1.6986 H   0  0  0  0  0  0  0  0  0  0  0  0
   -7.0589   -8.2829    2.3469 H   0  0  0  0  0  0  0  0  0  0  0  0
   -8.1616   -7.8384    1.0404 H   0  0  0  0  0  0  0  0  0  0  0  0
   -4.5101   -5.9310    0.2627 H   0  0  0  0  0  0  0  0  0  0  0  0
   10.6710    0.0111   -4.7868 H   0  0  0  0  0  0  0  0  0  0  0  0
   12.8784   -0.8755   -5.4251 H   0  0  0  0  0  0  0  0  0  0  0  0
   14.0209   -2.5122   -3.9847 H   0  0  0  0  0  0  0  0  0  0  0  0
   12.9515   -3.3642   -0.5986 H   0  0  0  0  0  0  0  0  0  0  0  0
   14.1997   -3.6016   -1.8310 H   0  0  0  0  0  0  0  0  0  0  0  0
   11.4700   -4.9826   -1.7895 H   0  0  0  0  0  0  0  0  0  0  0  0
   13.0069   -5.7327   -1.3426 H   0  0  0  0  0  0  0  0  0  0  0  0
   12.7179   -5.2268   -3.0108 H   0  0  0  0  0  0  0  0  0  0  0  0
   10.7694   -2.3570   -1.2326 H   0  0  0  0  0  0  0  0  0  0  0  0
    1.0671   -1.0248    0.5792 H   0  0  0  0  0  0  0  0  0  0  0  0
    2.8519   -0.9886    0.5695 H   0  0  0  0  0  0  0  0  0  0  0  0
    2.9056   -2.2979    2.6699 H   0  0  0  0  0  0  0  0  0  0  0  0
    2.0194   -0.7802    2.8692 H   0  0  0  0  0  0  0  0  0  0  0  0
    1.1389   -2.3031    2.7212 H   0  0  0  0  0  0  0  0  0  0  0  0
    2.7803   -0.9560   -1.4729 H   0  0  0  0  0  0  0  0  0  0  0  0
    4.1053    0.2392   -1.4428 H   0  0  0  0  0  0  0  0  0  0  0  0
    3.1618   -0.1322   -3.7348 H   0  0  0  0  0  0  0  0  0  0  0  0
    3.6224   -1.8367   -3.6418 H   0  0  0  0  0  0  0  0  0  0  0  0
    4.8662   -0.5819   -3.6654 H   0  0  0  0  0  0  0  0  0  0  0  0
    7.7195    2.7922   -3.8733 H   0  0  0  0  0  0  0  0  0  0  0  0
    7.0872    4.5990   -5.0450 H   0  0  0  0  0  0  0  0  0  0  0  0
    7.5562    6.1874   -5.6686 H   0  0  0  0  0  0  0  0  0  0  0  0
    7.2425    7.1854   -3.4058 H   0  0  0  0  0  0  0  0  0  0  0  0
    6.8032    5.6000   -2.7584 H   0  0  0  0  0  0  0  0  0  0  0  0
    5.7577    6.3911   -3.9446 H   0  0  0  0  0  0  0  0  0  0  0  0
   12.5140    3.3685   -2.6606 H   0  0  0  0  0  0  0  0  0  0  0  0
   11.3553    1.2440   -2.2262 H   0  0  0  0  0  0  0  0  0  0  0  0
   13.1707    5.9878   -3.3492 H   0  0  0  0  0  0  0  0  0  0  0  0
   13.0923    8.3604   -4.0111 H   0  0  0  0  0  0  0  0  0  0  0  0
    8.9878    7.9832   -5.1886 H   0  0  0  0  0  0  0  0  0  0  0  0
   12.0043   10.1280   -5.1696 H   0  0  0  0  0  0  0  0  0  0  0  0
    6.4278   11.4308   -2.7196 H   0  0  0  0  0  0  0  0  0  0  0  0
    4.8677   13.2407   -2.0626 H   0  0  0  0  0  0  0  0  0  0  0  0
    4.2284   15.6197   -2.0893 H   0  0  0  0  0  0  0  0  0  0  0  0
    5.6229   17.2659   -3.2777 H   0  0  0  0  0  0  0  0  0  0  0  0
    7.6683   16.5482   -4.4467 H   0  0  0  0  0  0  0  0  0  0  0  0
    9.2148   14.8077   -5.1048 H   0  0  0  0  0  0  0  0  0  0  0  0
  1  2  2  0  0  0  0
  2  3  1  0  0  0  0
  3  4  2  0  0  0  0
  3  5  1  0  0  0  0
  5  6  2  0  0  0  0
  6  7  1  0  0  0  0
  7  8  2  0  0  0  0
  8  9  1  0  0  0  0
  9 10  2  0  0  0  0
 10 11  1  0  0  0  0
 11 12  2  0  0  0  0
 12 13  1  0  0  0  0
 13 14  2  0  0  0  0
 14 15  1  0  0  0  0
 15 16  2  0  0  0  0
 16 17  1  0  0  0  0
 17 18  3  0  0  0  0
 16 19  1  0  0  0  0
 19 20  3  0  0  0  0
  1 21  1  0  0  0  0
 21 22  2  0  0  0  0
 22 23  1  0  0  0  0
 23 24  1  0  0  0  0
 24 25  2  0  0  0  0
 25 26  1  0  0  0  0
 26 27  2  0  0  0  0
 27 28  1  0  0  0  0
 27 29  1  0  0  0  0
 29 30  2  0  0  0  0
 23 31  1  0  0  0  0
 31 32  2  0  0  0  0
 32 33  1  0  0  0  0
 33 34  2  0  0  0  0
 34 35  1  0  0  0  0
 34 36  1  0  0  0  0
 36 37  2  0  0  0  0
 22 38  1  0  0  0  0
 38 39  1  0  0  0  0
 39 40  1  0  0  0  0
 40 41  2  0  0  0  0
 41 42  1  0  0  0  0
 42 43  1  0  0  0  0
 43 44  2  0  0  0  0
 44 45  1  0  0  0  0
 45 46  2  0  0  0  0
 46 47  1  0  0  0  0
 46 48  1  0  0  0  0
 48 49  2  0  0  0  0
 42 50  1  0  0  0  0
 50 51  2  0  0  0  0
 51 52  1  0  0  0  0
 52 53  2  0  0  0  0
 53 54  1  0  0  0  0
 53 55  1  0  0  0  0
 55 56  2  0  0  0  0
 41 57  1  0  0  0  0
 57 58  1  0  0  0  0
 40 59  1  0  0  0  0
 59 60  2  0  0  0  0
 60 61  1  0  0  0  0
 61 62  2  0  0  0  0
 62 63  1  0  0  0  0
 63 64  2  0  0  0  0
 64 65  1  0  0  0  0
 65 66  1  0  0  0  0
 66 67  1  0  0  0  0
 65 68  2  0  0  0  0
 60 69  1  0  0  0  0
 69 70  1  0  0  0  0
 70 71  1  0  0  0  0
 71 72  1  0  0  0  0
 72 73  1  0  0  0  0
 73 74  1  0  0  0  0
 74 75  2  0  0  0  0
 75 76  1  0  0  0  0
 76 77  1  0  0  0  0
 74 78  1  0  0  0  0
 78 79  1  0  0  0  0
 79 80  1  0  0  0  0
 80 81  1  0  0  0  0
 81 82  1  0  0  0  0
 82 83  1  0  0  0  0
 83 84  2  0  0  0  0
 84 85  1  0  0  0  0
 85 86  2  0  0  0  0
 86 87  1  0  0  0  0
 87 88  1  0  0  0  0
 88 89  1  0  0  0  0
 87 90  2  0  0  0  0
 82 91  2  0  0  0  0
 91 92  1  0  0  0  0
 92 93  1  0  0  0  0
 93 94  1  0  0  0  0
 94 95  1  0  0  0  0
 95 96  1  0  0  0  0
 96 97  1  0  0  0  0
 97 98  1  0  0  0  0
 98 99  1  0  0  0  0
 99100  1  0  0  0  0
100101  1  0  0  0  0
 98102  1  0  0  0  0
102103  1  0  0  0  0
 95104  1  0  0  0  0
104105  1  0  0  0  0
 91106  1  0  0  0  0
106107  2  0  0  0  0
107108  1  0  0  0  0
108109  1  0  0  0  0
109110  1  0  0  0  0
110111  1  0  0  0  0
109112  1  0  0  0  0
112113  2  0  0  0  0
113114  1  0  0  0  0
114115  1  0  0  0  0
115116  2  0  0  0  0
113117  1  0  0  0  0
117118  2  0  0  0  0
118119  1  0  0  0  0
119120  2  0  0  0  0
119121  1  0  0  0  0
121122  2  0  0  0  0
122123  1  0  0  0  0
123124  2  0  0  0  0
123125  1  0  0  0  0
125126  2  0  0  0  0
126127  1  0  0  0  0
127128  2  0  0  0  0
128129  1  0  0  0  0
129130  2  0  0  0  0
130131  1  0  0  0  0
131132  2  0  0  0  0
132133  1  0  0  0  0
133134  2  0  0  0  0
134135  1  0  0  0  0
135136  2  0  0  0  0
136137  1  0  0  0  0
137138  3  0  0  0  0
136139  1  0  0  0  0
139140  3  0  0  0  0
 15  2  1  0  0  0  0
 58 21  1  0  0  0  0
101 59  1  0  0  0  0
116106  1  0  0  0  0
135122  1  0  0  0  0
 14  5  1  0  0  0  0
 30 24  1  0  0  0  0
 37 31  1  0  0  0  0
 57 38  2  0  0  0  0
 68 61  1  0  0  0  0
100 69  2  0  0  0  0
114108  2  0  0  0  0
134125  1  0  0  0  0
 12  7  1  0  0  0  0
 49 43  1  0  0  0  0
 56 50  1  0  0  0  0
 99 71  2  0  0  0  0
120112  1  0  0  0  0
132127  1  0  0  0  0
 97 72  2  0  0  0  0
 77 73  2  0  0  0  0
 96 78  2  0  0  0  0
 94 79  2  0  0  0  0
 93 81  2  0  0  0  0
 90 83  1  0  0  0  0
  1141  1  0  0  0  0
  6142  1  0  0  0  0
  8143  1  0  0  0  0
  9144  1  0  0  0  0
 10145  1  0  0  0  0
 11146  1  0  0  0  0
 13147  1  0  0  0  0
 25148  1  0  0  0  0
 26149  1  0  0  0  0
 28150  1  0  0  0  0
 28151  1  0  0  0  0
 28152  1  0  0  0  0
 29153  1  0  0  0  0
 30154  1  0  0  0  0
 32155  1  0  0  0  0
 33156  1  0  0  0  0
 35157  1  0  0  0  0
 35158  1  0  0  0  0
 35159  1  0  0  0  0
 36160  1  0  0  0  0
 37161  1  0  0  0  0
 44162  1  0  0  0  0
 45163  1  0  0  0  0
 47164  1  0  0  0  0
 47165  1  0  0  0  0
 47166  1  0  0  0  0
 48167  1  0  0  0  0
 49168  1  0  0  0  0
 51169  1  0  0  0  0
 52170  1  0  0  0  0
 54171  1  0  0  0  0
 54172  1  0  0  0  0
 54173  1  0  0  0  0
 55174  1  0  0  0  0
 56175  1  0  0  0  0
 62176  1  0  0  0  0
 63177  1  0  0  0  0
 64178  1  0  0  0  0
 66179  1  0  0  0  0
 66180  1  0  0  0  0
 67181  1  0  0  0  0
 67182  1  0  0  0  0
 67183  1  0  0  0  0
 68184  1  0  0  0  0
 84185  1  0  0  0  0
 85186  1  0  0  0  0
 86187  1  0  0  0  0
 88188  1  0  0  0  0
 88189  1  0  0  0  0
 89190  1  0  0  0  0
 89191  1  0  0  0  0
 89192  1  0  0  0  0
 90193  1  0  0  0  0
102194  1  0  0  0  0
102195  1  0  0  0  0
103196  1  0  0  0  0
103197  1  0  0  0  0
103198  1  0  0  0  0
104199  1  0  0  0  0
104200  1  0  0  0  0
105201  1  0  0  0  0
105202  1  0  0  0  0
105203  1  0  0  0  0
107204  1  0  0  0  0
110205  1  0  0  0  0
110206  1  0  0  0  0
111207  1  0  0  0  0
111208  1  0  0  0  0
111209  1  0  0  0  0
115210  1  0  0  0  0
116211  1  0  0  0  0
117212  1  0  0  0  0
118213  1  0  0  0  0
120214  1  0  0  0  0
121215  1  0  0  0  0
126216  1  0  0  0  0
128217  1  0  0  0  0
129218  1  0  0  0  0
130219  1  0  0  0  0
131220  1  0  0  0  0
133221  1  0  0  0  0
M  END
