186

C          9.83670        3.23580        8.37340
C         10.89380        3.59000        7.57120
C         10.81660        3.80200        6.12310
O          9.82380        3.72720        5.41710
C         12.18130        4.12460        5.67990
C         12.63240        4.39360        4.42080
C         14.00410        4.67450        4.22730
C         14.53060        4.95720        2.95210
C         15.86310        5.22440        2.78870
C         16.72630        5.22080        3.89390
C         16.24590        4.95030        5.14660
C         14.87980        4.67070        5.35040
C         14.38060        4.38920        6.64410
C         13.04880        4.11890        6.80980
C         12.26270        3.79420        7.99770
C         12.76240        3.70340        9.27340
C         12.02110        3.38940       10.43020
N         11.49330        3.14770       11.42220
C         14.11530        3.91520        9.60890
N         15.20050        4.06730        9.95300
C          8.49930        2.98670        8.04030
C          7.56210        2.59010        8.99530
C          6.30300        2.35580        8.47700
Cl         4.99390        1.87650        9.48330
C          6.21650        2.57260        7.10010
S          7.75300        3.07690        6.46300
C          5.11250        2.41280        6.23030
S          5.25810        3.01540        4.57620
C          3.68510        2.41940        4.20940
C          2.77020        2.31120        3.16580
S          2.60120        2.75440        1.49810
C          1.05170        1.97600        1.48690
C          0.09420        1.69690        0.46390
C         -0.91310        0.89590        1.04710
C         -0.67600        0.73550        2.54780
C         -0.57300       -0.73390        2.91680
C         -1.25750       -1.30710        3.98150
C         -1.11500       -2.64800        4.27020
C         -0.27740       -3.46200        3.50700
O         -0.20590       -4.76080        3.90160
C          0.50530       -5.69870        3.11880
C         -0.24820       -6.09950        1.85390
C          0.42130       -2.88930        2.44820
C          0.26990       -1.54390        2.16710
C         -1.76970        1.47640        3.29880
C         -3.08580        1.03870        3.22990
C         -4.10540        1.69360        3.89640
C         -3.82930        2.82570        4.65630
O         -4.73580        3.56720        5.34530
C         -6.08460        3.14910        5.41560
C         -6.29390        2.00350        6.40190
C         -2.51050        3.27620        4.72000
C         -1.50240        2.61510        4.05110
C          0.67000        1.40960        2.69080
C          1.64930        1.60150        3.67160
N          1.85260        1.31100        4.99340
C          3.09400        1.78600        5.32860
C          3.89720        1.79370        6.46600
C          1.01030        0.52170        5.85450
C          1.50770       -0.91850        5.94900
C         -1.88440        0.31960        0.26310
C         -1.85730        0.60350       -1.09970
C         -2.63530        0.08140       -2.17850
C         -2.22790        0.61100       -3.39150
C         -1.13840        1.63720       -3.16480
C         -0.90420        1.47750       -1.66490
C          0.09480        2.01770       -0.89080
C         -1.63240        3.05730       -3.38280
C         -0.75210        4.12650       -3.28500
C         -1.17830        5.43310       -3.44040
C         -2.51900        5.70550       -3.69380
O         -3.06010        6.93530       -3.89680
C         -2.26890        8.09360       -3.72070
C         -2.04360        8.43320       -2.25030
C         -3.41100        4.63560       -3.77240
C         -2.97480        3.33700       -3.61400
C          0.10440        1.28300       -3.95800
C          0.80940        0.13800       -3.61330
C          1.93580       -0.25650       -4.31260
C          2.38350        0.49820       -5.39250
O          3.47250        0.21590       -6.15070
C          4.25890       -0.91590       -5.83240
C          5.41560       -0.96500       -6.81780
C          1.67110        1.64320       -5.75110
C          0.54890        2.02650       -5.04680
C         -2.93670        0.03830       -4.45590
C         -3.87380       -0.92640       -3.99930
S         -3.88500       -1.11520       -2.27740
C         -4.49760       -1.45380       -5.12630
S         -5.66420       -2.62770       -5.60280
C         -5.38370       -2.23110       -7.29500
C         -4.44000       -1.23400       -7.46410
C         -3.93190       -0.79540       -6.24240
N         -2.98220        0.09890       -5.82410
C         -2.22020        0.95020       -6.70170
C         -2.95850        2.24740       -7.02450
C         -6.08000       -2.92970       -8.31160
C         -6.06560       -2.68640       -9.67280
C         -6.83490       -3.59810      -10.39100
Cl        -6.99840       -3.53660      -12.09180
C         -7.48540       -4.55180       -9.61380
S         -7.07900       -4.29790       -7.93510
C         -8.22900       -5.64930      -10.09320
C         -9.01670       -6.52680       -9.41330
C         -9.27840       -7.87850       -9.99090
O         -9.08780       -8.21410      -11.13620
C         -9.74910       -8.68690       -8.85190
C        -10.00840      -10.05990       -8.79580
O         -9.83670      -10.77150       -9.92040
C        -10.08830      -12.15660       -9.90670
C        -10.42440      -10.58200       -7.56480
C        -10.56240       -9.76640       -6.45570
C        -10.31070       -8.40210       -6.50950
C         -9.90670       -7.86790       -7.71950
C         -9.60710       -6.48740       -8.09850
C        -10.06890       -5.36840       -7.45530
C        -10.73240       -5.38880       -6.21330
N        -11.26730       -5.34860       -5.19800
C        -10.03330       -4.08330       -8.03540
N        -10.07730       -3.03480       -8.50110
H         10.04230        3.10570        9.42890
H         11.95180        4.39110        3.58220
H         13.86050        4.95840        2.10460
H         16.25860        5.43980        1.80720
H         17.77490        5.43340        3.74840
H         16.90690        4.94640        6.00090
H         15.07160        4.39420        7.47190
H          7.80850        2.47670       10.03630
H         -1.91540       -0.70890        4.59380
H         -1.64810       -3.09500        5.09420
H          0.61660       -6.56640        3.77490
H          1.50650       -5.32180        2.87560
H         -1.22430       -6.49820        2.11840
H          0.31200       -6.86200        1.31970
H         -0.39380       -5.24350        1.19940
H          1.08870       -3.47390        1.83480
H          0.81940       -1.11610        1.34060
H         -3.33020        0.15880        2.65610
H         -5.10880        1.30860        3.80680
H         -6.62380        4.03610        5.75950
H         -6.46050        2.88270        4.42020
H         -5.94320        2.29860        7.38770
H         -5.74430        1.11770        6.09290
H         -7.35110        1.76010        6.46130
H         -2.29900        4.15820        5.30330
H         -0.49680        3.00030        4.12060
H          3.63200        1.35660        7.40920
H          1.00640        0.98330        6.84670
H         -0.00340        0.54710        5.45180
H          0.84720       -1.49870        6.58640
H          1.52440       -1.37520        4.96250
H          2.51220       -0.94600        6.36460
H         -2.62170       -0.36170        0.65690
H          0.87900        2.63280       -1.30300
H          0.29390        3.94500       -3.09080
H         -0.45010        6.22480       -3.36130
H         -2.84600        8.88890       -4.20070
H         -1.31340        7.99490       -4.25070
H         -3.00120        8.56160       -1.75210
H         -1.47680        9.35670       -2.17030
H         -1.49930        7.63860       -1.74570
H         -4.45140        4.84970       -3.95970
H         -3.69630        2.53530       -3.66460
H          0.47430       -0.45920       -2.77750
H          2.45420       -1.15110       -4.00570
H          3.65330       -1.82980       -5.91160
H          4.63880       -0.83350       -4.80470
H          5.03530       -1.03980       -7.83280
H          6.04470       -1.82500       -6.60740
H          6.00980       -0.05900       -6.73710
H          2.02030        2.22130       -6.59200
H          0.02260        2.92090       -5.34650
H         -4.14180       -0.86680       -8.42800
H         -2.02850        0.39140       -7.62250
H         -1.26350        1.16750       -6.22360
H         -3.10350        2.83690       -6.12250
H         -2.37870        2.83280       -7.73270
H         -3.93060        2.03190       -7.46200
H         -5.52490       -1.88000      -10.13080
H         -8.07030       -5.88840      -11.14120
H         -9.42980      -12.67780       -9.20440
H        -11.13230      -12.37320       -9.65960
H         -9.87920      -12.49910      -10.91850
H        -10.64160      -11.63390       -7.46710
H        -10.87700      -10.20700       -5.52150
H        -10.41870       -7.79100       -5.62900
