192

C          1.60640      -11.05960        6.46640
C          1.08070      -12.24050        6.92220
C          0.34400      -13.27560        6.16020
O          0.23820      -13.40510        4.95690
C         -0.27170      -14.15280        7.17220
C         -1.11630      -15.20700        6.97870
C         -1.61240      -15.90630        8.10190
C         -2.49360      -16.99690        7.96710
C         -2.96640      -17.65490        9.07010
C         -2.57710      -17.25160       10.35590
C         -1.72170      -16.19640       10.52110
C         -1.21660      -15.49570        9.40710
C         -0.33420      -14.40320        9.57430
C          0.13390      -13.73960        8.47150
C          1.03160      -12.59900        8.32990
C          1.74110      -12.02530        9.35460
C          2.69480      -10.99380        9.22760
N          3.50160      -10.17580        9.21880
C          1.64340      -12.42970       10.70210
N          1.60770      -12.70200       11.81730
C          1.71420      -10.53130        5.16760
C          1.49290      -11.05710        3.90550
C          1.70760      -10.14150        2.88370
Cl         1.49060      -10.58670        1.24020
C          2.10120       -8.87110        3.30990
S          2.22960       -8.85900        5.03770
C          2.32930       -7.68410        2.57340
S          2.78090       -6.22270        3.45850
C          2.73320       -5.31050        2.00040
C          2.86120       -4.01140        1.51900
S          3.18010       -2.40800        2.09650
C          2.92280       -1.81800        0.48630
C          2.79710       -0.50970       -0.07400
C          2.38940       -0.67370       -1.41720
C          2.38930       -2.15080       -1.80480
C          3.54320       -2.40990       -2.76080
C          3.59220       -1.75870       -3.99190
C          4.63170       -1.97310       -4.86770
C          5.67160       -2.84870       -4.54510
O          6.65040       -2.96360       -5.48040
C          7.71590       -3.87110       -5.28250
C          7.31780       -5.31690       -5.56520
C          5.63050       -3.49920       -3.31840
C          4.57900       -3.27430       -2.44410
C          1.03740       -2.55240       -2.36500
C         -0.09710       -2.25310       -1.62230
C         -1.36210       -2.59520       -2.06490
C         -1.51700       -3.25500       -3.28070
O         -2.70070       -3.64350       -3.81730
C         -3.89930       -3.35540       -3.12350
C         -5.05420       -3.87730       -3.96320
C         -0.37870       -3.56090       -4.02760
C          0.87750       -3.21680       -3.57510
C          2.62900       -2.78960       -0.45550
C          2.59400       -4.06160        0.12500
N          2.34730       -5.35610       -0.24610
C          2.40280       -6.12260        0.88940
C          2.18460       -7.45890        1.21520
C          1.93890       -5.83070       -1.54380
C          0.43050       -6.05590       -1.60620
C          1.95770        0.40580       -2.15040
C          1.98810        1.65220       -1.52980
C          1.45520        2.91090       -1.94340
C          1.62500        3.87240       -0.95880
C          2.41180        3.29270        0.19660
C          2.49280        1.82720       -0.22280
C          2.88750        0.74390        0.52510
C          3.83220        3.82860        0.24820
C          4.33030        4.67360       -0.73740
C          5.63110        5.12840       -0.69000
C          6.48700        4.74480        0.34290
O          7.73420        5.28230        0.29940
C          8.71440        4.87250        1.23190
C          9.29730        3.50040        0.90700
C          6.00130        3.88060        1.31920
C          4.69410        3.43200        1.26180
C          1.64190        3.44040        1.49510
C          0.43820        2.75260        1.63380
C         -0.31210        2.86290        2.78170
C          0.11370        3.67260        3.83850
O         -0.71530        3.71300        4.91350
C         -0.33370        4.42070        6.07650
C          0.70520        3.67250        6.90670
C          1.30620        4.37250        3.69950
C          2.05330        4.25620        2.53730
C          0.99210        5.07020       -1.30900
C          0.34390        4.96930       -2.57110
S          0.53960        3.41990       -3.32270
C         -0.30970        6.17570       -2.79530
S         -1.36230        6.95910       -3.91160
C         -1.44140        8.36790       -2.85560
C         -0.66810        8.22600       -1.71170
C         -0.03610        6.98960       -1.66870
N          0.75050        6.30800       -0.77600
C          1.24570        6.85560        0.46090
C          2.53580        7.64710        0.25730
C         -2.30230        9.44480       -3.20870
C         -2.46020       10.62290       -2.47690
F         -1.70380       10.85180       -1.38380
C         -3.40180       11.60340       -2.79660
F         -3.48420       12.66960       -1.98350
C         -4.30630       11.49090       -3.84630
C         -4.11530       10.35910       -4.67960
C         -3.13040        9.36360       -4.36540
N         -3.09700        8.39590       -5.27390
S         -4.18030        8.71620       -6.41870
N         -4.73940       10.09760       -5.82340
C         -5.33140       12.46350       -4.07970
C         -6.59080       12.14960       -4.48420
C         -7.19500       10.79480       -4.34930
O         -6.66770        9.78080       -3.94440
C         -8.62250       10.96860       -4.66930
C         -9.61250       10.02910       -4.66590
C        -10.93480       10.41960       -4.97480
C        -11.99660        9.49400       -4.99010
C        -13.27170        9.89670       -5.28110
C        -13.54020       11.24260       -5.57130
C        -12.53080       12.16650       -5.56650
C        -11.20580       11.78650       -5.27110
C        -10.15970       12.73780       -5.26460
C         -8.88320       12.33520       -4.97280
C         -7.62940       13.07450       -4.89650
C         -7.44870       14.38720       -5.24560
C         -6.20430       15.05170       -5.25730
N         -5.22690       15.65180       -5.31300
C         -8.48610       15.23950       -5.67630
N         -9.28780       15.98230       -6.02840
H          1.96730      -10.37630        7.22670
H         -1.40610      -15.50140        5.98090
H         -2.78970      -17.30290        6.97420
H         -3.64270      -18.48930        8.95780
H         -2.95870      -17.78160       11.21590
H         -1.41830      -15.88260       11.50920
H         -0.05810      -14.11500       10.57600
H          1.17330      -12.07070        3.74400
H          2.80300       -1.08120       -4.27430
H          4.66720       -1.46710       -5.81940
H          8.12880       -3.76910       -4.27130
H          8.47880       -3.55160       -5.99790
H          8.18330       -5.96380       -5.45100
H          6.53740       -5.64680       -4.88370
H          6.94400       -5.40320       -6.58230
H          6.41010       -4.18100       -3.01710
H          4.58720       -3.79310       -1.49730
H          0.00780       -1.73960       -0.67700
H         -2.21510       -2.34150       -1.45570
H         -3.99760       -2.27130       -2.97490
H         -3.89230       -3.84650       -2.14020
H         -5.05430       -3.39180       -4.93510
H         -5.99660       -3.67520       -3.46240
H         -4.95050       -4.94860       -4.11160
H         -0.50660       -4.07200       -4.96850
H          1.73770       -3.46660       -4.17810
H          1.91920       -8.22730        0.51560
H          2.46640       -6.76790       -1.74840
H          2.23890       -5.08830       -2.28510
H          0.12900       -6.81650       -0.89010
H          0.14540       -6.37800       -2.60330
H         -0.09510       -5.13200       -1.37850
H          1.54710        0.30720       -3.14310
H          3.19770        0.83300        1.55430
H          3.70160        4.97780       -1.56070
H          6.01340        5.78990       -1.45140
H          9.49490        5.63450        1.15390
H          8.31270        4.89570        2.25260
H          8.53020        2.73090        0.94930
H         10.08160        3.25790        1.61880
H          9.71910        3.50840       -0.09480
H          6.62520        3.54640        2.13310
H          4.34400        2.76270        2.03260
H          0.09180        2.12090        0.82880
H         -1.24240        2.32890        2.89130
H          0.02040        5.42680        5.81950
H         -1.26130        4.51990        6.64700
H          0.91540        4.22790        7.81640
H          0.32460        2.68960        7.17260
H          1.62990        3.54250        6.34980
H          1.67210        5.01920        4.48140
H          2.97660        4.81240        2.46100
H         -0.58870        8.97780       -0.95040
H          1.41120        6.03240        1.15800
H          0.46950        7.50840        0.87060
H          3.33020        6.99530       -0.09830
H          2.38150        8.44210       -0.46860
H          2.84690        8.09120        1.19860
H         -5.07050       13.49360       -3.87000
H         -9.38890        8.99910       -4.43060
H        -11.78360        8.45910       -4.76480
H        -14.08020        9.18090       -5.28840
H        -14.55180       11.54400       -5.79870
H        -12.73260       13.20380       -5.79040
H        -10.39800       13.76660       -5.48380
