167

C          5.25360       10.06680       -7.00730
C          5.01270       10.99100       -6.03990
C          4.41080       10.74080       -4.70010
O          3.74890        9.79480       -4.32700
C          4.83210       11.88010       -3.86660
C          4.62500       12.07140       -2.53070
C          5.12700       13.24030       -1.91700
C          4.94850       13.48950       -0.54200
C          5.45000       14.62500        0.03380
C          6.14990       15.56210       -0.74090
C          6.33950       15.35070       -2.07950
C          5.83750       14.19150       -2.70530
C          6.03230       13.96820       -4.08770
C          5.53490       12.82850       -4.66220
C          5.58030       12.33280       -6.02980
C          5.99170       13.03570       -7.12940
C          6.51070       14.34610       -7.07410
N          6.94180       15.40980       -7.08470
C          5.89180       12.56980       -8.45840
N          5.80260       12.26900       -9.56270
C          4.73400        8.73020       -7.08390
C          3.45060        8.38330       -6.64810
C          3.01050        7.07410       -6.65590
O          1.80680        6.67070       -6.18720
C          0.98470        7.57260       -5.46500
C          0.07900        8.39080       -6.37960
C          3.84240        6.04580       -7.16650
C          5.10870        6.39340       -7.64060
C          5.52650        7.70290       -7.61130
F          6.77490        7.98880       -8.03630
C          3.41850        4.66700       -7.09600
C          3.72440        3.60020       -7.91550
C          4.36000        3.68400       -9.26880
C          3.43420        3.12030      -10.34830
C          3.26050        2.38730       -7.36500
S          3.39590        0.71470       -7.87010
C          2.56330        0.22820       -6.43220
C          2.15500       -0.94260       -5.77290
C          2.37200       -2.30520       -6.07380
C          1.94950       -3.30170       -5.13120
N          2.26710       -4.52830       -5.51460
S          3.02660       -4.43860       -6.94240
N          2.98210       -2.83060       -7.12450
C          1.23290       -2.89690       -3.98400
C          0.61420       -3.64100       -2.96660
S          0.41190       -5.28340       -2.46680
C         -0.60030       -4.74870       -1.12750
C         -1.30110       -5.39990       -0.08410
O         -1.41990       -6.71760        0.13480
C         -0.44330       -7.58590       -0.41700
C          0.93900       -7.36790        0.18660
C         -2.01260       -4.49320        0.69780
S         -1.80820       -2.84200        0.14080
C         -0.76410       -3.36110       -1.11830
C         -0.06790       -2.73280       -2.15650
N          0.12540       -1.45610       -2.60940
C          0.93670       -1.52700       -3.72980
C          1.49940       -0.53560       -4.57570
N          1.54510        0.84700       -4.50360
C          2.19180        1.30060       -5.61980
C          2.59870        2.53360       -6.14580
S          2.48500        4.19100       -5.68640
C          1.38320        1.73030       -3.37070
C          2.30870        1.34360       -2.22010
C         -0.77000       -0.40620       -2.17480
C         -1.72160        0.01530       -3.29120
C         -2.86720       -4.69970        1.83610
C         -3.98670       -3.88490        2.01300
F         -4.35820       -3.03680        1.03440
C         -4.78520       -3.90330        3.15320
F         -5.87510       -3.12640        3.16250
C         -4.52450       -4.76410        4.20710
C         -3.47560       -5.70530        4.00550
N         -3.29740       -6.63840        4.94090
C         -2.30720       -7.50110        4.83260
C         -2.31420       -8.52880        5.83300
S         -3.47230       -8.29600        7.11240
C         -3.04370       -9.78750        7.85070
C         -3.70670      -10.29470        9.08470
C         -4.46900       -9.20410        9.82520
C         -2.06340      -10.40630        7.11660
C         -1.63900       -9.71630        5.97420
F         -1.53990      -11.59600        7.47070
C         -1.36130       -7.34860        3.76910
N         -1.54550       -6.46200        2.82330
C         -2.62170       -5.65750        2.86570
C         -0.15780       -8.17430        3.73470
C          0.15350       -9.17680        2.86890
C          1.37800       -9.79470        3.20480
F          1.88160      -10.81380        2.48530
C          2.00720       -9.28440        4.29980
C          3.27410       -9.73900        4.93720
C          3.00590      -10.38510        6.29760
S          1.06390       -7.98740        4.95810
C         -5.25860       -4.80270        5.44110
C         -5.71840       -3.71580        6.10870
C         -5.33180       -2.30570        5.80740
O         -4.47950       -1.92650        5.03540
C         -6.11260       -1.47590        6.73930
C         -6.17460       -0.11480        6.81580
C         -7.00860        0.48300        7.78650
C         -7.12380        1.88190        7.90540
C         -7.93920        2.43850        8.85290
C         -8.67520        1.62010        9.72300
C         -8.58580        0.25780        9.63380
C         -7.75600       -0.34940        8.66890
C         -7.66240       -1.75650        8.57250
C         -6.85170       -2.31660        7.61960
C         -6.56550       -3.70850        7.29080
C         -7.01540       -4.79910        7.98710
C         -7.83820       -4.71910        9.13110
N         -8.50350       -4.72730       10.06680
C         -6.70980       -6.14760        7.71040
N         -6.51680       -7.27310        7.58400
H          5.97990       10.31540       -7.77330
H          4.08700       11.33770       -1.94850
H          4.40880       12.76400        0.04920
H          5.31060       14.80720        1.08900
H          6.53880       16.45300       -0.27110
H          6.87680       16.07000       -2.68000
H          6.58100       14.70140       -4.65760
H          2.80600        9.17260       -6.30750
H          0.37450        6.92690       -4.82630
H          1.59780        8.21800       -4.82720
H          0.65800        9.02350       -7.04750
H         -0.53310        7.72600       -6.98420
H         -0.57160        9.01910       -5.77780
H          5.79510        5.63560       -7.98060
H          4.58400        4.72190       -9.51100
H          5.29290        3.11380       -9.26410
H          2.48680        3.65500      -10.34820
H          3.89630        3.23550      -11.32540
H          3.23810        2.06470      -10.18280
H         -0.41070       -7.48870       -1.50880
H         -0.81610       -8.58260       -0.17050
H          1.39530       -6.45860       -0.19420
H          0.85130       -7.28770        1.26660
H          1.58170       -8.20730       -0.06150
H          1.64590        2.73130       -3.72140
H          0.34030        1.76600       -3.05470
H          2.12200        0.32570       -1.88640
H          3.34550        1.41020       -2.54150
H          2.16200        2.02120       -1.38330
H         -1.35130       -0.81730       -1.34620
H         -0.20870        0.44120       -1.78070
H         -2.32920       -0.83260       -3.59830
H         -1.17800        0.37630       -4.16110
H         -2.38190        0.80160       -2.93580
H         -4.39950      -11.09510        8.80340
H         -2.94740      -10.74280        9.73260
H         -4.95140       -9.61590       10.70760
H         -5.23190       -8.77150        9.18130
H         -3.79300       -8.41120       10.13720
H         -0.90080      -10.10470        5.29900
H         -0.46620       -9.48290        2.04790
H          3.75490      -10.45880        4.27160
H          3.94570       -8.88690        5.06800
H          2.35340      -11.24810        6.18770
H          3.93970      -10.71220        6.74690
H          2.52750       -9.67230        6.96580
H         -5.37940       -5.79340        5.85920
H         -5.60030        0.49780        6.13680
H         -6.55460        2.50640        7.23230
H         -8.02190        3.51180        8.93730
H         -9.31400        2.07550       10.46490
H         -9.15020       -0.37610       10.30180
H         -8.24060       -2.35720        9.25640
