
  xtb     02032222353D
 energy: -337.082339965753 gnorm: 0.000445122929 xtb: 6.4.1 (unknown)
192213  0     0  0            999 V2000
    1.6064  -11.0596    6.4664 C   0  0  0  0  0  0  0  0  0  0  0  0
    1.0807  -12.2405    6.9222 C   0  0  0  0  0  0  0  0  0  0  0  0
    0.3440  -13.2756    6.1602 C   0  0  0  0  0  0  0  0  0  0  0  0
    0.2382  -13.4051    4.9569 O   0  0  0  0  0  0  0  0  0  0  0  0
   -0.2717  -14.1528    7.1722 C   0  0  0  0  0  0  0  0  0  0  0  0
   -1.1163  -15.2070    6.9787 C   0  0  0  0  0  0  0  0  0  0  0  0
   -1.6124  -15.9063    8.1019 C   0  0  0  0  0  0  0  0  0  0  0  0
   -2.4936  -16.9969    7.9671 C   0  0  0  0  0  0  0  0  0  0  0  0
   -2.9664  -17.6549    9.0701 C   0  0  0  0  0  0  0  0  0  0  0  0
   -2.5771  -17.2516   10.3559 C   0  0  0  0  0  0  0  0  0  0  0  0
   -1.7217  -16.1964   10.5211 C   0  0  0  0  0  0  0  0  0  0  0  0
   -1.2166  -15.4957    9.4071 C   0  0  0  0  0  0  0  0  0  0  0  0
   -0.3342  -14.4032    9.5743 C   0  0  0  0  0  0  0  0  0  0  0  0
    0.1339  -13.7396    8.4715 C   0  0  0  0  0  0  0  0  0  0  0  0
    1.0316  -12.5990    8.3299 C   0  0  0  0  0  0  0  0  0  0  0  0
    1.7411  -12.0253    9.3546 C   0  0  0  0  0  0  0  0  0  0  0  0
    2.6948  -10.9938    9.2276 C   0  0  0  0  0  0  0  0  0  0  0  0
    3.5016  -10.1758    9.2188 N   0  0  0  0  0  0  0  0  0  0  0  0
    1.6434  -12.4297   10.7021 C   0  0  0  0  0  0  0  0  0  0  0  0
    1.6077  -12.7020   11.8173 N   0  0  0  0  0  0  0  0  0  0  0  0
    1.7142  -10.5313    5.1676 C   0  0  0  0  0  0  0  0  0  0  0  0
    1.4929  -11.0571    3.9055 C   0  0  0  0  0  0  0  0  0  0  0  0
    1.7076  -10.1415    2.8837 C   0  0  0  0  0  0  0  0  0  0  0  0
    1.4906  -10.5867    1.2402 Cl  0  0  0  0  0  0  0  0  0  0  0  0
    2.1012   -8.8711    3.3099 C   0  0  0  0  0  0  0  0  0  0  0  0
    2.2296   -8.8590    5.0377 S   0  0  0  0  0  0  0  0  0  0  0  0
    2.3293   -7.6841    2.5734 C   0  0  0  0  0  0  0  0  0  0  0  0
    2.7809   -6.2227    3.4585 S   0  0  0  0  0  0  0  0  0  0  0  0
    2.7332   -5.3105    2.0004 C   0  0  0  0  0  0  0  0  0  0  0  0
    2.8612   -4.0114    1.5190 C   0  0  0  0  0  0  0  0  0  0  0  0
    3.1801   -2.4080    2.0965 S   0  0  0  0  0  0  0  0  0  0  0  0
    2.9228   -1.8180    0.4863 C   0  0  0  0  0  0  0  0  0  0  0  0
    2.7971   -0.5097   -0.0740 C   0  0  0  0  0  0  0  0  0  0  0  0
    2.3894   -0.6737   -1.4172 C   0  0  0  0  0  0  0  0  0  0  0  0
    2.3893   -2.1508   -1.8048 C   0  0  0  0  0  0  0  0  0  0  0  0
    3.5432   -2.4099   -2.7608 C   0  0  0  0  0  0  0  0  0  0  0  0
    3.5922   -1.7587   -3.9919 C   0  0  0  0  0  0  0  0  0  0  0  0
    4.6317   -1.9731   -4.8677 C   0  0  0  0  0  0  0  0  0  0  0  0
    5.6716   -2.8487   -4.5451 C   0  0  0  0  0  0  0  0  0  0  0  0
    6.6504   -2.9636   -5.4804 O   0  0  0  0  0  0  0  0  0  0  0  0
    7.7159   -3.8711   -5.2825 C   0  0  0  0  0  0  0  0  0  0  0  0
    7.3178   -5.3169   -5.5652 C   0  0  0  0  0  0  0  0  0  0  0  0
    5.6305   -3.4992   -3.3184 C   0  0  0  0  0  0  0  0  0  0  0  0
    4.5790   -3.2743   -2.4441 C   0  0  0  0  0  0  0  0  0  0  0  0
    1.0374   -2.5524   -2.3650 C   0  0  0  0  0  0  0  0  0  0  0  0
   -0.0971   -2.2531   -1.6223 C   0  0  0  0  0  0  0  0  0  0  0  0
   -1.3621   -2.5952   -2.0649 C   0  0  0  0  0  0  0  0  0  0  0  0
   -1.5170   -3.2550   -3.2807 C   0  0  0  0  0  0  0  0  0  0  0  0
   -2.7007   -3.6435   -3.8173 O   0  0  0  0  0  0  0  0  0  0  0  0
   -3.8993   -3.3554   -3.1235 C   0  0  0  0  0  0  0  0  0  0  0  0
   -5.0542   -3.8773   -3.9632 C   0  0  0  0  0  0  0  0  0  0  0  0
   -0.3787   -3.5609   -4.0276 C   0  0  0  0  0  0  0  0  0  0  0  0
    0.8775   -3.2168   -3.5751 C   0  0  0  0  0  0  0  0  0  0  0  0
    2.6290   -2.7896   -0.4555 C   0  0  0  0  0  0  0  0  0  0  0  0
    2.5940   -4.0616    0.1250 C   0  0  0  0  0  0  0  0  0  0  0  0
    2.3473   -5.3561   -0.2461 N   0  0  0  0  0  0  0  0  0  0  0  0
    2.4028   -6.1226    0.8894 C   0  0  0  0  0  0  0  0  0  0  0  0
    2.1846   -7.4589    1.2152 C   0  0  0  0  0  0  0  0  0  0  0  0
    1.9389   -5.8307   -1.5438 C   0  0  0  0  0  0  0  0  0  0  0  0
    0.4305   -6.0559   -1.6062 C   0  0  0  0  0  0  0  0  0  0  0  0
    1.9577    0.4058   -2.1504 C   0  0  0  0  0  0  0  0  0  0  0  0
    1.9881    1.6522   -1.5298 C   0  0  0  0  0  0  0  0  0  0  0  0
    1.4552    2.9109   -1.9434 C   0  0  0  0  0  0  0  0  0  0  0  0
    1.6250    3.8724   -0.9588 C   0  0  0  0  0  0  0  0  0  0  0  0
    2.4118    3.2927    0.1966 C   0  0  0  0  0  0  0  0  0  0  0  0
    2.4928    1.8272   -0.2228 C   0  0  0  0  0  0  0  0  0  0  0  0
    2.8875    0.7439    0.5251 C   0  0  0  0  0  0  0  0  0  0  0  0
    3.8322    3.8286    0.2482 C   0  0  0  0  0  0  0  0  0  0  0  0
    4.3303    4.6736   -0.7374 C   0  0  0  0  0  0  0  0  0  0  0  0
    5.6311    5.1284   -0.6900 C   0  0  0  0  0  0  0  0  0  0  0  0
    6.4870    4.7448    0.3429 C   0  0  0  0  0  0  0  0  0  0  0  0
    7.7342    5.2823    0.2994 O   0  0  0  0  0  0  0  0  0  0  0  0
    8.7144    4.8725    1.2319 C   0  0  0  0  0  0  0  0  0  0  0  0
    9.2973    3.5004    0.9070 C   0  0  0  0  0  0  0  0  0  0  0  0
    6.0013    3.8806    1.3192 C   0  0  0  0  0  0  0  0  0  0  0  0
    4.6941    3.4320    1.2618 C   0  0  0  0  0  0  0  0  0  0  0  0
    1.6419    3.4404    1.4951 C   0  0  0  0  0  0  0  0  0  0  0  0
    0.4382    2.7526    1.6338 C   0  0  0  0  0  0  0  0  0  0  0  0
   -0.3121    2.8629    2.7817 C   0  0  0  0  0  0  0  0  0  0  0  0
    0.1137    3.6726    3.8385 C   0  0  0  0  0  0  0  0  0  0  0  0
   -0.7153    3.7130    4.9135 O   0  0  0  0  0  0  0  0  0  0  0  0
   -0.3337    4.4207    6.0765 C   0  0  0  0  0  0  0  0  0  0  0  0
    0.7052    3.6725    6.9067 C   0  0  0  0  0  0  0  0  0  0  0  0
    1.3062    4.3725    3.6995 C   0  0  0  0  0  0  0  0  0  0  0  0
    2.0533    4.2562    2.5373 C   0  0  0  0  0  0  0  0  0  0  0  0
    0.9921    5.0702   -1.3090 C   0  0  0  0  0  0  0  0  0  0  0  0
    0.3439    4.9693   -2.5711 C   0  0  0  0  0  0  0  0  0  0  0  0
    0.5396    3.4199   -3.3227 S   0  0  0  0  0  0  0  0  0  0  0  0
   -0.3097    6.1757   -2.7953 C   0  0  0  0  0  0  0  0  0  0  0  0
   -1.3623    6.9591   -3.9116 S   0  0  0  0  0  0  0  0  0  0  0  0
   -1.4414    8.3679   -2.8556 C   0  0  0  0  0  0  0  0  0  0  0  0
   -0.6681    8.2260   -1.7117 C   0  0  0  0  0  0  0  0  0  0  0  0
   -0.0361    6.9896   -1.6687 C   0  0  0  0  0  0  0  0  0  0  0  0
    0.7505    6.3080   -0.7760 N   0  0  0  0  0  0  0  0  0  0  0  0
    1.2457    6.8556    0.4609 C   0  0  0  0  0  0  0  0  0  0  0  0
    2.5358    7.6471    0.2573 C   0  0  0  0  0  0  0  0  0  0  0  0
   -2.3023    9.4448   -3.2087 C   0  0  0  0  0  0  0  0  0  0  0  0
   -2.4602   10.6229   -2.4769 C   0  0  0  0  0  0  0  0  0  0  0  0
   -1.7038   10.8518   -1.3838 F   0  0  0  0  0  0  0  0  0  0  0  0
   -3.4018   11.6034   -2.7966 C   0  0  0  0  0  0  0  0  0  0  0  0
   -3.4842   12.6696   -1.9835 F   0  0  0  0  0  0  0  0  0  0  0  0
   -4.3063   11.4909   -3.8463 C   0  0  0  0  0  0  0  0  0  0  0  0
   -4.1153   10.3591   -4.6796 C   0  0  0  0  0  0  0  0  0  0  0  0
   -3.1304    9.3636   -4.3654 C   0  0  0  0  0  0  0  0  0  0  0  0
   -3.0970    8.3959   -5.2739 N   0  0  0  0  0  0  0  0  0  0  0  0
   -4.1803    8.7162   -6.4187 S   0  0  0  0  0  0  0  0  0  0  0  0
   -4.7394   10.0976   -5.8234 N   0  0  0  0  0  0  0  0  0  0  0  0
   -5.3314   12.4635   -4.0797 C   0  0  0  0  0  0  0  0  0  0  0  0
   -6.5908   12.1496   -4.4842 C   0  0  0  0  0  0  0  0  0  0  0  0
   -7.1950   10.7948   -4.3493 C   0  0  0  0  0  0  0  0  0  0  0  0
   -6.6677    9.7808   -3.9444 O   0  0  0  0  0  0  0  0  0  0  0  0
   -8.6225   10.9686   -4.6693 C   0  0  0  0  0  0  0  0  0  0  0  0
   -9.6125   10.0291   -4.6659 C   0  0  0  0  0  0  0  0  0  0  0  0
  -10.9348   10.4196   -4.9748 C   0  0  0  0  0  0  0  0  0  0  0  0
  -11.9966    9.4940   -4.9901 C   0  0  0  0  0  0  0  0  0  0  0  0
  -13.2717    9.8967   -5.2811 C   0  0  0  0  0  0  0  0  0  0  0  0
  -13.5402   11.2426   -5.5713 C   0  0  0  0  0  0  0  0  0  0  0  0
  -12.5308   12.1665   -5.5665 C   0  0  0  0  0  0  0  0  0  0  0  0
  -11.2058   11.7865   -5.2711 C   0  0  0  0  0  0  0  0  0  0  0  0
  -10.1597   12.7378   -5.2646 C   0  0  0  0  0  0  0  0  0  0  0  0
   -8.8832   12.3352   -4.9728 C   0  0  0  0  0  0  0  0  0  0  0  0
   -7.6294   13.0745   -4.8965 C   0  0  0  0  0  0  0  0  0  0  0  0
   -7.4487   14.3872   -5.2456 C   0  0  0  0  0  0  0  0  0  0  0  0
   -6.2043   15.0517   -5.2573 C   0  0  0  0  0  0  0  0  0  0  0  0
   -5.2269   15.6518   -5.3130 N   0  0  0  0  0  0  0  0  0  0  0  0
   -8.4861   15.2395   -5.6763 C   0  0  0  0  0  0  0  0  0  0  0  0
   -9.2878   15.9823   -6.0284 N   0  0  0  0  0  0  0  0  0  0  0  0
    1.9673  -10.3763    7.2267 H   0  0  0  0  0  0  0  0  0  0  0  0
   -1.4061  -15.5014    5.9809 H   0  0  0  0  0  0  0  0  0  0  0  0
   -2.7897  -17.3029    6.9742 H   0  0  0  0  0  0  0  0  0  0  0  0
   -3.6427  -18.4893    8.9578 H   0  0  0  0  0  0  0  0  0  0  0  0
   -2.9587  -17.7816   11.2159 H   0  0  0  0  0  0  0  0  0  0  0  0
   -1.4183  -15.8826   11.5092 H   0  0  0  0  0  0  0  0  0  0  0  0
   -0.0581  -14.1150   10.5760 H   0  0  0  0  0  0  0  0  0  0  0  0
    1.1733  -12.0707    3.7440 H   0  0  0  0  0  0  0  0  0  0  0  0
    2.8030   -1.0812   -4.2743 H   0  0  0  0  0  0  0  0  0  0  0  0
    4.6672   -1.4671   -5.8194 H   0  0  0  0  0  0  0  0  0  0  0  0
    8.1288   -3.7691   -4.2713 H   0  0  0  0  0  0  0  0  0  0  0  0
    8.4788   -3.5516   -5.9979 H   0  0  0  0  0  0  0  0  0  0  0  0
    8.1833   -5.9638   -5.4510 H   0  0  0  0  0  0  0  0  0  0  0  0
    6.5374   -5.6468   -4.8837 H   0  0  0  0  0  0  0  0  0  0  0  0
    6.9440   -5.4032   -6.5823 H   0  0  0  0  0  0  0  0  0  0  0  0
    6.4101   -4.1810   -3.0171 H   0  0  0  0  0  0  0  0  0  0  0  0
    4.5872   -3.7931   -1.4973 H   0  0  0  0  0  0  0  0  0  0  0  0
    0.0078   -1.7396   -0.6770 H   0  0  0  0  0  0  0  0  0  0  0  0
   -2.2151   -2.3415   -1.4557 H   0  0  0  0  0  0  0  0  0  0  0  0
   -3.9976   -2.2713   -2.9749 H   0  0  0  0  0  0  0  0  0  0  0  0
   -3.8923   -3.8465   -2.1402 H   0  0  0  0  0  0  0  0  0  0  0  0
   -5.0543   -3.3918   -4.9351 H   0  0  0  0  0  0  0  0  0  0  0  0
   -5.9966   -3.6752   -3.4624 H   0  0  0  0  0  0  0  0  0  0  0  0
   -4.9505   -4.9486   -4.1116 H   0  0  0  0  0  0  0  0  0  0  0  0
   -0.5066   -4.0720   -4.9685 H   0  0  0  0  0  0  0  0  0  0  0  0
    1.7377   -3.4666   -4.1781 H   0  0  0  0  0  0  0  0  0  0  0  0
    1.9192   -8.2273    0.5156 H   0  0  0  0  0  0  0  0  0  0  0  0
    2.4664   -6.7679   -1.7484 H   0  0  0  0  0  0  0  0  0  0  0  0
    2.2389   -5.0883   -2.2851 H   0  0  0  0  0  0  0  0  0  0  0  0
    0.1290   -6.8165   -0.8901 H   0  0  0  0  0  0  0  0  0  0  0  0
    0.1454   -6.3780   -2.6033 H   0  0  0  0  0  0  0  0  0  0  0  0
   -0.0951   -5.1320   -1.3785 H   0  0  0  0  0  0  0  0  0  0  0  0
    1.5471    0.3072   -3.1431 H   0  0  0  0  0  0  0  0  0  0  0  0
    3.1977    0.8330    1.5543 H   0  0  0  0  0  0  0  0  0  0  0  0
    3.7016    4.9778   -1.5607 H   0  0  0  0  0  0  0  0  0  0  0  0
    6.0134    5.7899   -1.4514 H   0  0  0  0  0  0  0  0  0  0  0  0
    9.4949    5.6345    1.1539 H   0  0  0  0  0  0  0  0  0  0  0  0
    8.3127    4.8957    2.2526 H   0  0  0  0  0  0  0  0  0  0  0  0
    8.5302    2.7309    0.9493 H   0  0  0  0  0  0  0  0  0  0  0  0
   10.0816    3.2579    1.6188 H   0  0  0  0  0  0  0  0  0  0  0  0
    9.7191    3.5084   -0.0948 H   0  0  0  0  0  0  0  0  0  0  0  0
    6.6252    3.5464    2.1331 H   0  0  0  0  0  0  0  0  0  0  0  0
    4.3440    2.7627    2.0326 H   0  0  0  0  0  0  0  0  0  0  0  0
    0.0918    2.1209    0.8288 H   0  0  0  0  0  0  0  0  0  0  0  0
   -1.2424    2.3289    2.8913 H   0  0  0  0  0  0  0  0  0  0  0  0
    0.0204    5.4268    5.8195 H   0  0  0  0  0  0  0  0  0  0  0  0
   -1.2613    4.5199    6.6470 H   0  0  0  0  0  0  0  0  0  0  0  0
    0.9154    4.2279    7.8164 H   0  0  0  0  0  0  0  0  0  0  0  0
    0.3246    2.6896    7.1726 H   0  0  0  0  0  0  0  0  0  0  0  0
    1.6299    3.5425    6.3498 H   0  0  0  0  0  0  0  0  0  0  0  0
    1.6721    5.0192    4.4814 H   0  0  0  0  0  0  0  0  0  0  0  0
    2.9766    4.8124    2.4610 H   0  0  0  0  0  0  0  0  0  0  0  0
   -0.5887    8.9778   -0.9504 H   0  0  0  0  0  0  0  0  0  0  0  0
    1.4112    6.0324    1.1580 H   0  0  0  0  0  0  0  0  0  0  0  0
    0.4695    7.5084    0.8706 H   0  0  0  0  0  0  0  0  0  0  0  0
    3.3302    6.9953   -0.0983 H   0  0  0  0  0  0  0  0  0  0  0  0
    2.3815    8.4421   -0.4686 H   0  0  0  0  0  0  0  0  0  0  0  0
    2.8469    8.0912    1.1986 H   0  0  0  0  0  0  0  0  0  0  0  0
   -5.0705   13.4936   -3.8700 H   0  0  0  0  0  0  0  0  0  0  0  0
   -9.3889    8.9991   -4.4306 H   0  0  0  0  0  0  0  0  0  0  0  0
  -11.7836    8.4591   -4.7648 H   0  0  0  0  0  0  0  0  0  0  0  0
  -14.0802    9.1809   -5.2884 H   0  0  0  0  0  0  0  0  0  0  0  0
  -14.5518   11.5440   -5.7987 H   0  0  0  0  0  0  0  0  0  0  0  0
  -12.7326   13.2038   -5.7904 H   0  0  0  0  0  0  0  0  0  0  0  0
  -10.3980   13.7666   -5.4838 H   0  0  0  0  0  0  0  0  0  0  0  0
  1  2  2  0  0  0  0
  2  3  1  0  0  0  0
  3  4  2  0  0  0  0
  3  5  1  0  0  0  0
  5  6  2  0  0  0  0
  6  7  1  0  0  0  0
  7  8  2  0  0  0  0
  8  9  1  0  0  0  0
  9 10  2  0  0  0  0
 10 11  1  0  0  0  0
 11 12  2  0  0  0  0
 12 13  1  0  0  0  0
 13 14  2  0  0  0  0
 14 15  1  0  0  0  0
 15 16  2  0  0  0  0
 16 17  1  0  0  0  0
 17 18  3  0  0  0  0
 16 19  1  0  0  0  0
 19 20  3  0  0  0  0
  1 21  1  0  0  0  0
 21 22  2  0  0  0  0
 22 23  1  0  0  0  0
 23 24  1  0  0  0  0
 23 25  2  0  0  0  0
 25 26  1  0  0  0  0
 25 27  1  0  0  0  0
 27 28  1  0  0  0  0
 28 29  1  0  0  0  0
 29 30  1  0  0  0  0
 30 31  1  0  0  0  0
 31 32  1  0  0  0  0
 32 33  1  0  0  0  0
 33 34  2  0  0  0  0
 34 35  1  0  0  0  0
 35 36  1  0  0  0  0
 36 37  2  0  0  0  0
 37 38  1  0  0  0  0
 38 39  2  0  0  0  0
 39 40  1  0  0  0  0
 40 41  1  0  0  0  0
 41 42  1  0  0  0  0
 39 43  1  0  0  0  0
 43 44  2  0  0  0  0
 35 45  1  0  0  0  0
 45 46  2  0  0  0  0
 46 47  1  0  0  0  0
 47 48  2  0  0  0  0
 48 49  1  0  0  0  0
 49 50  1  0  0  0  0
 50 51  1  0  0  0  0
 48 52  1  0  0  0  0
 52 53  2  0  0  0  0
 35 54  1  0  0  0  0
 54 55  1  0  0  0  0
 55 56  1  0  0  0  0
 56 57  1  0  0  0  0
 57 58  1  0  0  0  0
 56 59  1  0  0  0  0
 59 60  1  0  0  0  0
 34 61  1  0  0  0  0
 61 62  2  0  0  0  0
 62 63  1  0  0  0  0
 63 64  2  0  0  0  0
 64 65  1  0  0  0  0
 65 66  1  0  0  0  0
 66 67  2  0  0  0  0
 65 68  1  0  0  0  0
 68 69  2  0  0  0  0
 69 70  1  0  0  0  0
 70 71  2  0  0  0  0
 71 72  1  0  0  0  0
 72 73  1  0  0  0  0
 73 74  1  0  0  0  0
 71 75  1  0  0  0  0
 75 76  2  0  0  0  0
 65 77  1  0  0  0  0
 77 78  2  0  0  0  0
 78 79  1  0  0  0  0
 79 80  2  0  0  0  0
 80 81  1  0  0  0  0
 81 82  1  0  0  0  0
 82 83  1  0  0  0  0
 80 84  1  0  0  0  0
 84 85  2  0  0  0  0
 64 86  1  0  0  0  0
 86 87  2  0  0  0  0
 87 88  1  0  0  0  0
 87 89  1  0  0  0  0
 89 90  1  0  0  0  0
 90 91  1  0  0  0  0
 91 92  2  0  0  0  0
 92 93  1  0  0  0  0
 93 94  1  0  0  0  0
 94 95  1  0  0  0  0
 95 96  1  0  0  0  0
 91 97  1  0  0  0  0
 97 98  2  0  0  0  0
 98 99  1  0  0  0  0
 98100  1  0  0  0  0
100101  1  0  0  0  0
100102  2  0  0  0  0
102103  1  0  0  0  0
103104  1  0  0  0  0
104105  2  0  0  0  0
105106  1  0  0  0  0
106107  1  0  0  0  0
102108  1  0  0  0  0
108109  2  0  0  0  0
109110  1  0  0  0  0
110111  2  0  0  0  0
110112  1  0  0  0  0
112113  2  0  0  0  0
113114  1  0  0  0  0
114115  2  0  0  0  0
115116  1  0  0  0  0
116117  2  0  0  0  0
117118  1  0  0  0  0
118119  2  0  0  0  0
119120  1  0  0  0  0
120121  2  0  0  0  0
121122  1  0  0  0  0
122123  2  0  0  0  0
123124  1  0  0  0  0
124125  3  0  0  0  0
123126  1  0  0  0  0
126127  3  0  0  0  0
 15  2  1  0  0  0  0
 26 21  1  0  0  0  0
 58 27  2  0  0  0  0
 66 62  1  0  0  0  0
 76 68  1  0  0  0  0
 85 77  1  0  0  0  0
 94 86  1  0  0  0  0
104 97  1  0  0  0  0
122109  1  0  0  0  0
 14  5  1  0  0  0  0
 57 29  2  0  0  0  0
 88 63  1  0  0  0  0
 93 89  2  0  0  0  0
107103  2  0  0  0  0
121112  1  0  0  0  0
 12  7  1  0  0  0  0
 55 30  2  0  0  0  0
119114  1  0  0  0  0
 54 32  2  0  0  0  0
 67 33  1  0  0  0  0
 44 36  1  0  0  0  0
 53 45  1  0  0  0  0
  1128  1  0  0  0  0
  6129  1  0  0  0  0
  8130  1  0  0  0  0
  9131  1  0  0  0  0
 10132  1  0  0  0  0
 11133  1  0  0  0  0
 13134  1  0  0  0  0
 22135  1  0  0  0  0
 37136  1  0  0  0  0
 38137  1  0  0  0  0
 41138  1  0  0  0  0
 41139  1  0  0  0  0
 42140  1  0  0  0  0
 42141  1  0  0  0  0
 42142  1  0  0  0  0
 43143  1  0  0  0  0
 44144  1  0  0  0  0
 46145  1  0  0  0  0
 47146  1  0  0  0  0
 50147  1  0  0  0  0
 50148  1  0  0  0  0
 51149  1  0  0  0  0
 51150  1  0  0  0  0
 51151  1  0  0  0  0
 52152  1  0  0  0  0
 53153  1  0  0  0  0
 58154  1  0  0  0  0
 59155  1  0  0  0  0
 59156  1  0  0  0  0
 60157  1  0  0  0  0
 60158  1  0  0  0  0
 60159  1  0  0  0  0
 61160  1  0  0  0  0
 67161  1  0  0  0  0
 69162  1  0  0  0  0
 70163  1  0  0  0  0
 73164  1  0  0  0  0
 73165  1  0  0  0  0
 74166  1  0  0  0  0
 74167  1  0  0  0  0
 74168  1  0  0  0  0
 75169  1  0  0  0  0
 76170  1  0  0  0  0
 78171  1  0  0  0  0
 79172  1  0  0  0  0
 82173  1  0  0  0  0
 82174  1  0  0  0  0
 83175  1  0  0  0  0
 83176  1  0  0  0  0
 83177  1  0  0  0  0
 84178  1  0  0  0  0
 85179  1  0  0  0  0
 92180  1  0  0  0  0
 95181  1  0  0  0  0
 95182  1  0  0  0  0
 96183  1  0  0  0  0
 96184  1  0  0  0  0
 96185  1  0  0  0  0
108186  1  0  0  0  0
113187  1  0  0  0  0
115188  1  0  0  0  0
116189  1  0  0  0  0
117190  1  0  0  0  0
118191  1  0  0  0  0
120192  1  0  0  0  0
M  END
