
  xtb     02112215043D
 energy: -292.149163230700 gnorm: 0.000279877374 xtb: 6.4.1 (unknown)
169190  0     0  0            999 V2000
    3.9702   -4.1062    3.8615 C   0  0  0  0  0  0  0  0  0  0  0  0
    4.3873   -4.5135    2.6156 C   0  0  0  0  0  0  0  0  0  0  0  0
    3.6343   -4.3253    1.3685 C   0  0  0  0  0  0  0  0  0  0  0  0
    2.4690   -3.9961    1.2413 O   0  0  0  0  0  0  0  0  0  0  0  0
    4.5749   -4.6232    0.2766 C   0  0  0  0  0  0  0  0  0  0  0  0
    4.3905   -4.4903   -1.0678 C   0  0  0  0  0  0  0  0  0  0  0  0
    5.4225   -4.8949   -1.9435 C   0  0  0  0  0  0  0  0  0  0  0  0
    5.2944   -4.7803   -3.3414 C   0  0  0  0  0  0  0  0  0  0  0  0
    6.2931   -5.2097   -4.1728 C   0  0  0  0  0  0  0  0  0  0  0  0
    7.4668   -5.7639   -3.6420 C   0  0  0  0  0  0  0  0  0  0  0  0
    7.6246   -5.8800   -2.2876 C   0  0  0  0  0  0  0  0  0  0  0  0
    6.6154   -5.4519   -1.4018 C   0  0  0  0  0  0  0  0  0  0  0  0
    6.7827   -5.5575   -0.0010 C   0  0  0  0  0  0  0  0  0  0  0  0
    5.7843   -5.1279    0.8309 C   0  0  0  0  0  0  0  0  0  0  0  0
    5.6861   -5.0600    2.2866 C   0  0  0  0  0  0  0  0  0  0  0  0
    6.6575   -5.4769    3.1636 C   0  0  0  0  0  0  0  0  0  0  0  0
    6.5787   -5.4014    4.5677 C   0  0  0  0  0  0  0  0  0  0  0  0
    6.5978   -5.3668    5.7167 N   0  0  0  0  0  0  0  0  0  0  0  0
    7.8857   -6.0442    2.7707 C   0  0  0  0  0  0  0  0  0  0  0  0
    8.9070   -6.5121    2.5302 N   0  0  0  0  0  0  0  0  0  0  0  0
    2.7228   -3.6258    4.2819 C   0  0  0  0  0  0  0  0  0  0  0  0
    1.2347   -3.6856    3.3351 S   0  0  0  0  0  0  0  0  0  0  0  0
    0.3746   -2.9921    4.6464 C   0  0  0  0  0  0  0  0  0  0  0  0
   -0.8826   -2.4777    4.9573 C   0  0  0  0  0  0  0  0  0  0  0  0
   -0.7722   -1.8252    6.2026 C   0  0  0  0  0  0  0  0  0  0  0  0
    0.4943   -1.9887    6.7003 N   0  0  0  0  0  0  0  0  0  0  0  0
    1.0297   -1.3683    7.8845 C   0  0  0  0  0  0  0  0  0  0  0  0
    1.5768    0.0278    7.5917 C   0  0  0  0  0  0  0  0  0  0  0  0
    1.2175   -2.6643    5.7443 C   0  0  0  0  0  0  0  0  0  0  0  0
    2.5268   -3.0601    5.5491 C   0  0  0  0  0  0  0  0  0  0  0  0
   -1.9303   -1.1191    6.5622 C   0  0  0  0  0  0  0  0  0  0  0  0
   -2.9235   -1.2685    5.6255 C   0  0  0  0  0  0  0  0  0  0  0  0
   -2.4572   -2.3065    4.2771 S   0  0  0  0  0  0  0  0  0  0  0  0
   -4.1327   -0.5114    5.4563 C   0  0  0  0  0  0  0  0  0  0  0  0
   -5.3409   -0.9353    4.9390 C   0  0  0  0  0  0  0  0  0  0  0  0
   -5.7075   -2.3480    4.8807 C   0  0  0  0  0  0  0  0  0  0  0  0
   -6.4782   -2.8569    3.8384 C   0  0  0  0  0  0  0  0  0  0  0  0
   -6.7626   -4.2079    3.7865 C   0  0  0  0  0  0  0  0  0  0  0  0
   -6.2766   -5.0666    4.7570 C   0  0  0  0  0  0  0  0  0  0  0  0
   -5.5140   -4.5773    5.8097 C   0  0  0  0  0  0  0  0  0  0  0  0
   -4.9221   -5.4965    6.8391 C   0  0  0  0  0  0  0  0  0  0  0  0
   -3.4508   -5.7669    6.5165 C   0  0  0  0  0  0  0  0  0  0  0  0
   -5.2495   -3.2188    5.8671 C   0  0  0  0  0  0  0  0  0  0  0  0
   -6.0941    0.1572    4.4466 C   0  0  0  0  0  0  0  0  0  0  0  0
   -7.5431    0.2533    3.4725 S   0  0  0  0  0  0  0  0  0  0  0  0
   -7.1757    1.9063    3.1147 C   0  0  0  0  0  0  0  0  0  0  0  0
   -7.4894    2.8383    2.1007 C   0  0  0  0  0  0  0  0  0  0  0  0
   -8.4485    2.8637    1.0632 C   0  0  0  0  0  0  0  0  0  0  0  0
   -8.2866    3.8023   -0.0211 C   0  0  0  0  0  0  0  0  0  0  0  0
   -9.2505    3.7005   -0.9201 N   0  0  0  0  0  0  0  0  0  0  0  0
  -10.2762    2.5376   -0.4520 S   0  0  0  0  0  0  0  0  0  0  0  0
   -9.5214    2.1053    0.9136 N   0  0  0  0  0  0  0  0  0  0  0  0
   -7.1030    4.5755   -0.0833 C   0  0  0  0  0  0  0  0  0  0  0  0
   -6.4062    5.1256   -1.1772 C   0  0  0  0  0  0  0  0  0  0  0  0
   -6.5357    5.1949   -2.9096 S   0  0  0  0  0  0  0  0  0  0  0  0
   -4.8016    5.4556   -3.0200 C   0  0  0  0  0  0  0  0  0  0  0  0
   -3.8741    5.3291   -4.0788 C   0  0  0  0  0  0  0  0  0  0  0  0
   -4.2573    5.2263   -5.4861 C   0  0  0  0  0  0  0  0  0  0  0  0
   -3.6154    6.0180   -6.4374 C   0  0  0  0  0  0  0  0  0  0  0  0
   -4.0064    5.9600   -7.7615 C   0  0  0  0  0  0  0  0  0  0  0  0
   -5.0358    5.1189   -8.1484 C   0  0  0  0  0  0  0  0  0  0  0  0
   -5.6933    4.3304   -7.2122 C   0  0  0  0  0  0  0  0  0  0  0  0
   -6.7866    3.3910   -7.6320 C   0  0  0  0  0  0  0  0  0  0  0  0
   -6.2056    2.0214   -7.9893 C   0  0  0  0  0  0  0  0  0  0  0  0
   -5.2955    4.3918   -5.8850 C   0  0  0  0  0  0  0  0  0  0  0  0
   -2.5696    5.2956   -3.5988 C   0  0  0  0  0  0  0  0  0  0  0  0
   -2.4914    5.6426   -1.8739 S   0  0  0  0  0  0  0  0  0  0  0  0
   -4.2111    5.6042   -1.7654 C   0  0  0  0  0  0  0  0  0  0  0  0
   -5.1214    5.4321   -0.7184 C   0  0  0  0  0  0  0  0  0  0  0  0
   -5.0225    5.1912    0.6240 N   0  0  0  0  0  0  0  0  0  0  0  0
   -6.2078    4.6055    1.0220 C   0  0  0  0  0  0  0  0  0  0  0  0
   -6.4896    3.8355    2.1733 C   0  0  0  0  0  0  0  0  0  0  0  0
   -5.6855    3.6204    3.2927 N   0  0  0  0  0  0  0  0  0  0  0  0
   -6.0646    2.3936    3.8088 C   0  0  0  0  0  0  0  0  0  0  0  0
   -5.4584    1.3934    4.5829 C   0  0  0  0  0  0  0  0  0  0  0  0
   -3.9592    1.2379    5.4305 S   0  0  0  0  0  0  0  0  0  0  0  0
   -5.2630    4.7148    4.1521 C   0  0  0  0  0  0  0  0  0  0  0  0
   -3.8817    4.5178    4.7651 C   0  0  0  0  0  0  0  0  0  0  0  0
   -3.7186    5.1381    1.2450 C   0  0  0  0  0  0  0  0  0  0  0  0
   -3.1158    3.7371    1.1713 C   0  0  0  0  0  0  0  0  0  0  0  0
   -1.3969    4.7005   -4.1496 C   0  0  0  0  0  0  0  0  0  0  0  0
   -0.1919    4.1866   -2.9660 S   0  0  0  0  0  0  0  0  0  0  0  0
    0.6460    3.3053   -4.1787 C   0  0  0  0  0  0  0  0  0  0  0  0
    1.6949    2.4067   -4.3173 C   0  0  0  0  0  0  0  0  0  0  0  0
    1.7278    2.0464   -5.6939 C   0  0  0  0  0  0  0  0  0  0  0  0
    0.7146    2.6925   -6.3652 N   0  0  0  0  0  0  0  0  0  0  0  0
    0.4638    2.6479   -7.7822 C   0  0  0  0  0  0  0  0  0  0  0  0
    1.2122    3.7560   -8.5204 C   0  0  0  0  0  0  0  0  0  0  0  0
    0.0439    3.4600   -5.4468 C   0  0  0  0  0  0  0  0  0  0  0  0
   -1.1126    4.2488   -5.4251 C   0  0  0  0  0  0  0  0  0  0  0  0
    2.7094    1.1152   -5.9708 C   0  0  0  0  0  0  0  0  0  0  0  0
    3.4060    0.7174   -4.8181 C   0  0  0  0  0  0  0  0  0  0  0  0
    2.8182    1.5290   -3.3643 S   0  0  0  0  0  0  0  0  0  0  0  0
    4.4697   -0.1902   -4.8650 C   0  0  0  0  0  0  0  0  0  0  0  0
    5.2239   -0.7322   -3.8466 C   0  0  0  0  0  0  0  0  0  0  0  0
    4.9614   -0.5699   -2.4132 C   0  0  0  0  0  0  0  0  0  0  0  0
    4.0820    0.0870   -1.8827 O   0  0  0  0  0  0  0  0  0  0  0  0
    5.9897   -1.3531   -1.7121 C   0  0  0  0  0  0  0  0  0  0  0  0
    6.1630   -1.5187   -0.3700 C   0  0  0  0  0  0  0  0  0  0  0  0
    7.2894   -2.2350    0.0911 C   0  0  0  0  0  0  0  0  0  0  0  0
    7.5404   -2.4148    1.4651 C   0  0  0  0  0  0  0  0  0  0  0  0
    8.6590   -3.0782    1.8910 C   0  0  0  0  0  0  0  0  0  0  0  0
    9.5670   -3.6029    0.9602 C   0  0  0  0  0  0  0  0  0  0  0  0
    9.3467   -3.4505   -0.3820 C   0  0  0  0  0  0  0  0  0  0  0  0
    8.2114   -2.7632   -0.8562 C   0  0  0  0  0  0  0  0  0  0  0  0
    7.9863   -2.5971   -2.2436 C   0  0  0  0  0  0  0  0  0  0  0  0
    6.8822   -1.9094   -2.6698 C   0  0  0  0  0  0  0  0  0  0  0  0
    6.3885   -1.5759   -4.0050 C   0  0  0  0  0  0  0  0  0  0  0  0
    6.9622   -2.0007   -5.1793 C   0  0  0  0  0  0  0  0  0  0  0  0
    6.4834   -1.7317   -6.4758 C   0  0  0  0  0  0  0  0  0  0  0  0
    6.1549   -1.5720   -7.5662 N   0  0  0  0  0  0  0  0  0  0  0  0
    8.1227   -2.7964   -5.2487 C   0  0  0  0  0  0  0  0  0  0  0  0
    9.0644   -3.4394   -5.3901 N   0  0  0  0  0  0  0  0  0  0  0  0
    4.7128   -4.1198    4.6511 H   0  0  0  0  0  0  0  0  0  0  0  0
    3.4676   -4.0880   -1.4585 H   0  0  0  0  0  0  0  0  0  0  0  0
    4.3869   -4.3520   -3.7435 H   0  0  0  0  0  0  0  0  0  0  0  0
    6.1857   -5.1266   -5.2445 H   0  0  0  0  0  0  0  0  0  0  0  0
    8.2470   -6.0876   -4.3134 H   0  0  0  0  0  0  0  0  0  0  0  0
    8.5274   -6.3036   -1.8727 H   0  0  0  0  0  0  0  0  0  0  0  0
    7.7050   -5.9693    0.3762 H   0  0  0  0  0  0  0  0  0  0  0  0
    0.2316   -1.3108    8.6295 H   0  0  0  0  0  0  0  0  0  0  0  0
    1.8241   -2.0094    8.2755 H   0  0  0  0  0  0  0  0  0  0  0  0
    1.9684    0.4736    8.5017 H   0  0  0  0  0  0  0  0  0  0  0  0
    2.3760   -0.0277    6.8565 H   0  0  0  0  0  0  0  0  0  0  0  0
    0.7894    0.6664    7.1981 H   0  0  0  0  0  0  0  0  0  0  0  0
    3.3328   -2.9425    6.2514 H   0  0  0  0  0  0  0  0  0  0  0  0
   -2.0463   -0.5140    7.4434 H   0  0  0  0  0  0  0  0  0  0  0  0
   -6.8350   -2.2020    3.0593 H   0  0  0  0  0  0  0  0  0  0  0  0
   -7.3593   -4.5962    2.9744 H   0  0  0  0  0  0  0  0  0  0  0  0
   -6.4920   -6.1238    4.6987 H   0  0  0  0  0  0  0  0  0  0  0  0
   -5.4690   -6.4408    6.8558 H   0  0  0  0  0  0  0  0  0  0  0  0
   -4.9955   -5.0410    7.8293 H   0  0  0  0  0  0  0  0  0  0  0  0
   -3.3579   -6.2287    5.5362 H   0  0  0  0  0  0  0  0  0  0  0  0
   -3.0132   -6.4321    7.2574 H   0  0  0  0  0  0  0  0  0  0  0  0
   -2.8860   -4.8370    6.5076 H   0  0  0  0  0  0  0  0  0  0  0  0
   -4.6780   -2.8265    6.6967 H   0  0  0  0  0  0  0  0  0  0  0  0
   -2.8288    6.6904   -6.1265 H   0  0  0  0  0  0  0  0  0  0  0  0
   -3.5109    6.5794   -8.4952 H   0  0  0  0  0  0  0  0  0  0  0  0
   -5.3388    5.0817   -9.1849 H   0  0  0  0  0  0  0  0  0  0  0  0
   -7.3107    3.7974   -8.4991 H   0  0  0  0  0  0  0  0  0  0  0  0
   -7.5056    3.2767   -6.8189 H   0  0  0  0  0  0  0  0  0  0  0  0
   -5.4915    2.1133   -8.8051 H   0  0  0  0  0  0  0  0  0  0  0  0
   -6.9967    1.3415   -8.2960 H   0  0  0  0  0  0  0  0  0  0  0  0
   -5.6925    1.5926   -7.1314 H   0  0  0  0  0  0  0  0  0  0  0  0
   -5.7947    3.7765   -5.1513 H   0  0  0  0  0  0  0  0  0  0  0  0
   -5.3044    5.6305    3.5588 H   0  0  0  0  0  0  0  0  0  0  0  0
   -5.9976    4.8263    4.9616 H   0  0  0  0  0  0  0  0  0  0  0  0
   -3.9150    3.7671    5.5487 H   0  0  0  0  0  0  0  0  0  0  0  0
   -3.1588    4.1973    4.0210 H   0  0  0  0  0  0  0  0  0  0  0  0
   -3.5454    5.4533    5.2050 H   0  0  0  0  0  0  0  0  0  0  0  0
   -3.0816    5.8373    0.6970 H   0  0  0  0  0  0  0  0  0  0  0  0
   -3.7756    5.4791    2.2753 H   0  0  0  0  0  0  0  0  0  0  0  0
   -2.1146    3.7439    1.5931 H   0  0  0  0  0  0  0  0  0  0  0  0
   -3.7264    3.0234    1.7187 H   0  0  0  0  0  0  0  0  0  0  0  0
   -3.0472    3.4128    0.1360 H   0  0  0  0  0  0  0  0  0  0  0  0
    0.7796    1.6694   -8.1529 H   0  0  0  0  0  0  0  0  0  0  0  0
   -0.6133    2.7508   -7.9427 H   0  0  0  0  0  0  0  0  0  0  0  0
    2.2832    3.6600   -8.3578 H   0  0  0  0  0  0  0  0  0  0  0  0
    0.8926    4.7311   -8.1601 H   0  0  0  0  0  0  0  0  0  0  0  0
    1.0134    3.6942   -9.5866 H   0  0  0  0  0  0  0  0  0  0  0  0
   -1.7372    4.4530   -6.2744 H   0  0  0  0  0  0  0  0  0  0  0  0
    2.9401    0.7095   -6.9399 H   0  0  0  0  0  0  0  0  0  0  0  0
    4.7277   -0.4933   -5.8728 H   0  0  0  0  0  0  0  0  0  0  0  0
    5.4598   -1.0929    0.3305 H   0  0  0  0  0  0  0  0  0  0  0  0
    6.8342   -2.0084    2.1760 H   0  0  0  0  0  0  0  0  0  0  0  0
    8.8527   -3.2026    2.9464 H   0  0  0  0  0  0  0  0  0  0  0  0
   10.4366   -4.1344    1.3148 H   0  0  0  0  0  0  0  0  0  0  0  0
   10.0435   -3.8523   -1.1029 H   0  0  0  0  0  0  0  0  0  0  0  0
    8.7025   -3.0152   -2.9323 H   0  0  0  0  0  0  0  0  0  0  0  0
  1  2  2  0  0  0  0
  2  3  1  0  0  0  0
  3  4  2  0  0  0  0
  3  5  1  0  0  0  0
  5  6  2  0  0  0  0
  6  7  1  0  0  0  0
  7  8  2  0  0  0  0
  8  9  1  0  0  0  0
  9 10  2  0  0  0  0
 10 11  1  0  0  0  0
 11 12  2  0  0  0  0
 12 13  1  0  0  0  0
 13 14  2  0  0  0  0
 14 15  1  0  0  0  0
 15 16  2  0  0  0  0
 16 17  1  0  0  0  0
 17 18  3  0  0  0  0
 16 19  1  0  0  0  0
 19 20  3  0  0  0  0
  1 21  1  0  0  0  0
 21 22  1  0  0  0  0
 22 23  1  0  0  0  0
 23 24  1  0  0  0  0
 24 25  2  0  0  0  0
 25 26  1  0  0  0  0
 26 27  1  0  0  0  0
 27 28  1  0  0  0  0
 26 29  1  0  0  0  0
 29 30  1  0  0  0  0
 25 31  1  0  0  0  0
 31 32  2  0  0  0  0
 32 33  1  0  0  0  0
 32 34  1  0  0  0  0
 34 35  2  0  0  0  0
 35 36  1  0  0  0  0
 36 37  2  0  0  0  0
 37 38  1  0  0  0  0
 38 39  2  0  0  0  0
 39 40  1  0  0  0  0
 40 41  1  0  0  0  0
 41 42  1  0  0  0  0
 40 43  2  0  0  0  0
 35 44  1  0  0  0  0
 44 45  1  0  0  0  0
 45 46  1  0  0  0  0
 46 47  1  0  0  0  0
 47 48  1  0  0  0  0
 48 49  1  0  0  0  0
 49 50  2  0  0  0  0
 50 51  1  0  0  0  0
 51 52  1  0  0  0  0
 49 53  1  0  0  0  0
 53 54  1  0  0  0  0
 54 55  1  0  0  0  0
 55 56  1  0  0  0  0
 56 57  1  0  0  0  0
 57 58  1  0  0  0  0
 58 59  2  0  0  0  0
 59 60  1  0  0  0  0
 60 61  2  0  0  0  0
 61 62  1  0  0  0  0
 62 63  1  0  0  0  0
 63 64  1  0  0  0  0
 62 65  2  0  0  0  0
 57 66  2  0  0  0  0
 66 67  1  0  0  0  0
 67 68  1  0  0  0  0
 68 69  1  0  0  0  0
 69 70  1  0  0  0  0
 70 71  1  0  0  0  0
 71 72  1  0  0  0  0
 72 73  1  0  0  0  0
 73 74  1  0  0  0  0
 74 75  1  0  0  0  0
 75 76  1  0  0  0  0
 73 77  1  0  0  0  0
 77 78  1  0  0  0  0
 70 79  1  0  0  0  0
 79 80  1  0  0  0  0
 66 81  1  0  0  0  0
 81 82  1  0  0  0  0
 82 83  1  0  0  0  0
 83 84  1  0  0  0  0
 84 85  2  0  0  0  0
 85 86  1  0  0  0  0
 86 87  1  0  0  0  0
 87 88  1  0  0  0  0
 86 89  1  0  0  0  0
 89 90  1  0  0  0  0
 85 91  1  0  0  0  0
 91 92  2  0  0  0  0
 92 93  1  0  0  0  0
 92 94  1  0  0  0  0
 94 95  2  0  0  0  0
 95 96  1  0  0  0  0
 96 97  2  0  0  0  0
 96 98  1  0  0  0  0
 98 99  2  0  0  0  0
 99100  1  0  0  0  0
100101  2  0  0  0  0
101102  1  0  0  0  0
102103  2  0  0  0  0
103104  1  0  0  0  0
104105  2  0  0  0  0
105106  1  0  0  0  0
106107  2  0  0  0  0
107108  1  0  0  0  0
108109  2  0  0  0  0
109110  1  0  0  0  0
110111  3  0  0  0  0
109112  1  0  0  0  0
112113  3  0  0  0  0
 15  2  1  0  0  0  0
 30 21  2  0  0  0  0
 76 34  1  0  0  0  0
 90 81  2  0  0  0  0
108 95  1  0  0  0  0
 14  5  1  0  0  0  0
 29 23  2  0  0  0  0
 43 36  1  0  0  0  0
 75 44  2  0  0  0  0
 89 83  2  0  0  0  0
107 98  1  0  0  0  0
 12  7  1  0  0  0  0
 33 24  1  0  0  0  0
 74 46  2  0  0  0  0
 93 84  1  0  0  0  0
105100  1  0  0  0  0
 72 47  2  0  0  0  0
 52 48  2  0  0  0  0
 71 53  2  0  0  0  0
 69 54  2  0  0  0  0
 68 56  2  0  0  0  0
 65 58  1  0  0  0  0
  1114  1  0  0  0  0
  6115  1  0  0  0  0
  8116  1  0  0  0  0
  9117  1  0  0  0  0
 10118  1  0  0  0  0
 11119  1  0  0  0  0
 13120  1  0  0  0  0
 27121  1  0  0  0  0
 27122  1  0  0  0  0
 28123  1  0  0  0  0
 28124  1  0  0  0  0
 28125  1  0  0  0  0
 30126  1  0  0  0  0
 31127  1  0  0  0  0
 37128  1  0  0  0  0
 38129  1  0  0  0  0
 39130  1  0  0  0  0
 41131  1  0  0  0  0
 41132  1  0  0  0  0
 42133  1  0  0  0  0
 42134  1  0  0  0  0
 42135  1  0  0  0  0
 43136  1  0  0  0  0
 59137  1  0  0  0  0
 60138  1  0  0  0  0
 61139  1  0  0  0  0
 63140  1  0  0  0  0
 63141  1  0  0  0  0
 64142  1  0  0  0  0
 64143  1  0  0  0  0
 64144  1  0  0  0  0
 65145  1  0  0  0  0
 77146  1  0  0  0  0
 77147  1  0  0  0  0
 78148  1  0  0  0  0
 78149  1  0  0  0  0
 78150  1  0  0  0  0
 79151  1  0  0  0  0
 79152  1  0  0  0  0
 80153  1  0  0  0  0
 80154  1  0  0  0  0
 80155  1  0  0  0  0
 87156  1  0  0  0  0
 87157  1  0  0  0  0
 88158  1  0  0  0  0
 88159  1  0  0  0  0
 88160  1  0  0  0  0
 90161  1  0  0  0  0
 91162  1  0  0  0  0
 94163  1  0  0  0  0
 99164  1  0  0  0  0
101165  1  0  0  0  0
102166  1  0  0  0  0
103167  1  0  0  0  0
104168  1  0  0  0  0
106169  1  0  0  0  0
M  END
