268

C         12.65320       -6.67720       -5.88190
C         12.84800       -7.60690       -6.86720
C         11.79730       -8.23740       -7.68610
O         10.59960       -8.02930       -7.65100
C         12.48750       -9.18780       -8.57340
C         11.95010      -10.02250       -9.50930
C         12.80740      -10.86530      -10.25180
C         12.31310      -11.75080      -11.22920
C         13.16280      -12.55890      -11.93470
C         14.54400      -12.51600      -11.69340
C         15.05600      -11.66640      -10.75080
C         14.20960      -10.82070      -10.00560
C         14.73570       -9.94280       -9.02950
C         13.88720       -9.13510       -8.31960
C         14.13220       -8.15350       -7.26680
C         15.36870       -7.82900       -6.76740
C         15.63670       -6.88990       -5.75060
N         15.95190       -6.14900       -4.93040
C         16.57650       -8.40460       -7.21360
N         17.59740       -8.82670       -7.52750
C         11.47070       -6.08870       -5.39240
C         11.49650       -5.19060       -4.33780
C         10.23360       -4.71780       -3.95580
C          9.92190       -3.79460       -2.93130
C         10.95920       -3.24950       -2.04980
C         11.86680       -4.11910       -1.40250
C         12.84250       -3.62910       -0.58640
C         12.97810       -2.23940       -0.36850
C         13.97920       -1.70420        0.45440
C         14.09280       -0.34380        0.65370
O         15.11900        0.05430        1.45370
C         15.27100        1.41600        1.79750
C         14.27970        1.86780        2.86670
C         13.18100        0.52430        0.01790
C         12.19720        0.02240       -0.78750
C         12.06170       -1.36190       -1.00680
C         11.06040       -1.89510       -1.83810
C          8.59180       -3.44390       -2.80980
C          7.56570       -3.96250       -3.64600
C          7.87620       -4.88750       -4.65640
C          6.83890       -5.43240       -5.54150
C          5.96280       -4.60100       -6.19730
C          4.96810       -5.11740       -7.04830
C          4.05400       -4.28780       -7.72580
C          3.09050       -4.80790       -8.54500
C          2.99410       -6.20190       -8.73150
O          2.07010       -6.80750       -9.52530
C          1.12570       -6.01930      -10.22070
C          0.23090       -6.96420      -11.00770
C          3.87850       -7.03540       -8.08000
C          4.87250       -6.52230       -7.23400
C          5.78690       -7.35570       -6.55230
C          6.74020       -6.82870       -5.73290
C          9.20830       -5.25690       -4.78030
S          9.83800       -6.36320       -5.96920
C          6.28940       -3.48020       -3.27200
C          6.31120       -2.63580       -2.19880
S          7.93530       -2.37660       -1.58960
C          5.20370       -1.99780       -1.57570
S          3.64050       -1.98410       -2.36990
C          2.96980       -1.12870       -1.04010
C          1.68520       -0.61370       -0.68150
C          1.81970       -0.03560        0.60190
C          3.25440       -0.13790        1.09640
C          3.95190        1.20460        1.21860
C          3.43370        2.35820        0.64890
C          4.12100        3.55520        0.74460
C          5.34370        3.62860        1.39660
C          6.06120        4.93970        1.54220
C          5.62740        5.64460        2.82900
C          5.86510        2.46710        1.95260
C          5.18210        1.27020        1.86260
C          3.25860       -0.89460        2.41010
C          3.40010       -2.27440        2.44590
C          3.35180       -2.95380        3.64940
C          3.14840       -2.27720        4.84410
C          3.14170       -3.01090        6.15420
C          4.55390       -3.07080        6.73990
C          2.99820       -0.89700        4.80240
C          3.04990       -0.21320        3.60300
C          3.89850       -0.88530       -0.04390
C          5.17230       -1.36000       -0.35230
C          0.73430        0.50810        1.24850
C         -0.48130        0.49840        0.57050
C         -1.77130        0.99470        0.93830
C         -2.67570        0.83730       -0.09690
C         -2.01920        0.14070       -1.26160
C         -0.60570       -0.04010       -0.73110
C          0.47380       -0.60850       -1.36650
C         -1.94060        0.98600       -2.51820
C         -1.73320        0.38150       -3.75200
C         -1.61130        1.14640       -4.89610
C         -1.68990        2.53230       -4.84070
C         -1.51320        3.36040       -6.08100
C         -0.02830        3.61890       -6.34360
C         -1.88710        3.13160       -3.60450
C         -2.00830        2.37060       -2.45610
C         -2.77210       -1.15510       -1.49660
C         -2.32280       -2.36780       -0.99580
C         -3.07440       -3.51450       -1.18840
C         -4.27820       -3.45800       -1.86570
C         -4.74730       -2.24890       -2.36410
C         -6.08070       -2.16100       -3.04930
C         -7.17690       -1.82330       -2.03670
C         -3.98550       -1.10690       -2.17070
C         -3.94970        1.31050        0.20920
C         -4.01770        1.82160        1.48950
S         -2.47950        1.71960        2.32530
C         -5.15230        2.38000        2.13870
C         -5.28850        2.70750        3.45800
C         -6.55730        3.24100        3.78410
C         -7.02580        3.63700        5.04920
C         -6.23700        3.41430        6.26730
C         -5.69050        2.13400        6.51450
C         -4.98690        1.88220        7.65450
C         -4.78810        2.89120        8.62330
C         -4.08600        2.65730        9.81450
C         -3.92340        3.65060       10.75740
O         -3.21060        3.30670       11.86510
C         -3.13430        4.18990       12.96560
C         -4.43280        4.24740       13.76520
C         -4.46500        4.92950       10.51140
C         -5.14690        5.17950        9.35350
C         -5.33610        4.17860        8.38130
C         -6.05350        4.41200        7.19380
C         -8.29060        4.20340        5.09050
C         -9.11860        4.34060        3.94200
C         -8.67030        3.88420        2.68330
C         -9.53000        3.95730        1.49740
C         -9.06540        4.49630        0.32140
C         -9.88810        4.57510       -0.81670
C         -9.43830        5.12620       -2.03200
C        -10.25370        5.20220       -3.12660
C        -11.57940        4.72560       -3.06080
O        -12.46390        4.73720       -4.09630
C        -12.13970        5.39340       -5.30440
C        -12.23030        6.91290       -5.19200
C        -12.04040        4.17600       -1.88260
C        -11.22010        4.08730       -0.74880
C        -11.67040        3.52540        0.46690
C        -10.85330        3.46280        1.55570
C         -7.39040        3.36400        2.64030
S         -6.59950        2.73560        1.21410
C        -10.34540        4.96340        4.23460
C        -10.50430        5.27910        5.56390
S         -9.09130        4.80080        6.51240
C        -11.54730        5.89900        6.28350
C        -12.74150        6.43690        5.88500
C        -13.29180        6.56760        4.51470
O        -12.86140        6.11780        3.47130
C        -14.51720        7.37460        4.64890
C        -15.35420        7.80930        3.66250
C        -16.47590        8.59500        4.00920
C        -17.37420        9.07740        3.03720
C        -18.45110        9.84100        3.39760
C        -18.67680       10.15530        4.74600
C        -17.82330        9.70170        5.71460
C        -16.70430        8.91270        5.37870
C        -15.82100        8.44210        6.37770
C        -14.74080        7.67950        6.01940
C        -13.67800        7.06390        6.80700
C        -13.62770        7.06390        8.17800
C        -12.65980        6.43740        8.99140
N        -11.93810        5.95690        9.74580
C        -14.58810        7.68860        9.00170
N        -15.32080        8.18040        9.73670
H         13.53750       -6.32460       -5.36420
H         10.88380      -10.04040       -9.67930
H         11.24840      -11.77890      -11.41010
H         12.77560      -13.23540      -12.68210
H         15.20090      -13.16020      -12.25850
H         16.11890      -11.62990      -10.56150
H         15.80190       -9.93580       -8.86890
H         12.41600       -4.88160       -3.87180
H         11.75780       -5.18440       -1.54520
H         13.52940       -4.30030       -0.09170
H         14.68420       -2.36010        0.94140
H         15.20490        2.05380        0.90730
H         16.29040        1.48170        2.18840
H         13.25580        1.78420        2.51020
H         14.47730        2.90190        3.13600
H         14.38550        1.24530        3.75170
H         13.25310        1.59210        0.15360
H         11.50250        0.69480       -1.27050
H         10.38420       -1.21530       -2.33660
H          6.04450       -3.52870       -6.08500
H          4.12080       -3.21790       -7.58700
H          2.40590       -4.14190       -9.04710
H          0.52450       -5.43340       -9.51110
H          1.63800       -5.32730      -10.90410
H         -0.51530       -6.39700      -11.55690
H          0.82780       -7.54250      -11.70750
H         -0.26870       -7.65100      -10.32990
H          3.79580       -8.10080       -8.23020
H          5.71590       -8.42450       -6.69000
H          7.42190       -7.47770       -5.20440
H          5.37610       -3.77360       -3.75830
H          2.48750        2.32690        0.12860
H          3.69930        4.44570        0.30020
H          7.13960        4.77080        1.57050
H          5.83770        5.58150        0.68760
H          6.14500        6.59500        2.93680
H          5.85390        5.02520        3.69400
H          4.55600        5.83190        2.81430
H          6.81930        2.49980        2.45940
H          5.60080        0.37770        2.30470
H          3.55210       -2.82480        1.52880
H          3.46970       -4.02820        3.65840
H          2.48110       -2.50270        6.85950
H          2.76940       -4.02690        6.00800
H          5.22540       -3.58500        6.05580
H          4.55080       -3.60180        7.68900
H          4.93770       -2.06630        6.90470
H          2.83570       -0.35050        5.72060
H          2.93880        0.86170        3.59390
H          6.04180       -1.27210        0.27400
H          0.81230        0.93600        2.23610
H          0.39610       -1.03510       -2.35470
H         -1.67980       -0.69560       -3.81880
H         -1.45590        0.65940       -5.84850
H         -2.03030        4.31520       -5.96630
H         -1.94400        2.83920       -6.93870
H          0.41780        4.14630       -5.50370
H          0.10160        4.22020       -7.24050
H          0.50150        2.67840       -6.47540
H         -1.94880        4.20880       -3.53750
H         -2.16010        2.86030       -1.50520
H         -1.38810       -2.42060       -0.45760
H         -2.71620       -4.45780       -0.80270
H         -4.86000       -4.35720       -2.00930
H         -6.31500       -3.11300       -3.52980
H         -6.05120       -1.38670       -3.81900
H         -6.97060       -0.86900       -1.55720
H         -8.14490       -1.76130       -2.52850
H         -7.22700       -2.58850       -1.26520
H         -4.33790       -0.16220       -2.56080
H         -4.80000        1.28950       -0.44830
H         -4.49520        2.57630        4.17250
H         -5.86430        1.34620        5.79570
H         -4.57960        0.89860        7.83910
H         -3.66470        1.68300       10.00890
H         -2.33500        3.77440       13.58600
H         -2.82880        5.19290       12.64230
H         -5.24880        4.62980       13.15660
H         -4.69900        3.25000       14.10600
H         -4.30330        4.89350       14.62910
H         -4.34400        5.72420       11.23070
H         -5.56110        6.16150        9.17530
H         -6.44700        5.40220        7.01400
H         -8.06330        4.89700        0.26430
H         -8.42330        5.49270       -2.09190
H         -9.86710        5.62640       -4.04020
H        -12.88740        5.03030       -6.01540
H        -11.14960        5.08590       -5.66360
H        -13.22850        7.19830       -4.86980
H        -11.51480        7.29310       -4.46670
H        -12.02800        7.36510       -6.15920
H        -13.05440        3.80910       -1.84360
H        -12.67940        3.14400        0.51970
H        -11.20130        3.01150        2.47290
H        -11.08900        5.19100        3.49330
H        -11.33160        5.96810        7.34340
H        -15.15930        7.55930        2.63000
H        -17.19470        8.83200        2.00060
H        -19.13470       10.20730        2.64610
H        -19.53100       10.75900        5.01370
H        -17.99320        9.94020        6.75440
H        -16.02330        8.70430        7.40360
