
  xtb     02032221353D
 energy: -428.800575448833 gnorm: 0.000905545996 xtb: 6.4.1 (unknown)
268296  0     0  0            999 V2000
   12.6532   -6.6772   -5.8819 C   0  0  0  0  0  0  0  0  0  0  0  0
   12.8480   -7.6069   -6.8672 C   0  0  0  0  0  0  0  0  0  0  0  0
   11.7973   -8.2374   -7.6861 C   0  0  0  0  0  0  0  0  0  0  0  0
   10.5996   -8.0293   -7.6510 O   0  0  0  0  0  0  0  0  0  0  0  0
   12.4875   -9.1878   -8.5734 C   0  0  0  0  0  0  0  0  0  0  0  0
   11.9501  -10.0225   -9.5093 C   0  0  0  0  0  0  0  0  0  0  0  0
   12.8074  -10.8653  -10.2518 C   0  0  0  0  0  0  0  0  0  0  0  0
   12.3131  -11.7508  -11.2292 C   0  0  0  0  0  0  0  0  0  0  0  0
   13.1628  -12.5589  -11.9347 C   0  0  0  0  0  0  0  0  0  0  0  0
   14.5440  -12.5160  -11.6934 C   0  0  0  0  0  0  0  0  0  0  0  0
   15.0560  -11.6664  -10.7508 C   0  0  0  0  0  0  0  0  0  0  0  0
   14.2096  -10.8207  -10.0056 C   0  0  0  0  0  0  0  0  0  0  0  0
   14.7357   -9.9428   -9.0295 C   0  0  0  0  0  0  0  0  0  0  0  0
   13.8872   -9.1351   -8.3196 C   0  0  0  0  0  0  0  0  0  0  0  0
   14.1322   -8.1535   -7.2668 C   0  0  0  0  0  0  0  0  0  0  0  0
   15.3687   -7.8290   -6.7674 C   0  0  0  0  0  0  0  0  0  0  0  0
   15.6367   -6.8899   -5.7506 C   0  0  0  0  0  0  0  0  0  0  0  0
   15.9519   -6.1490   -4.9304 N   0  0  0  0  0  0  0  0  0  0  0  0
   16.5765   -8.4046   -7.2136 C   0  0  0  0  0  0  0  0  0  0  0  0
   17.5974   -8.8267   -7.5275 N   0  0  0  0  0  0  0  0  0  0  0  0
   11.4707   -6.0887   -5.3924 C   0  0  0  0  0  0  0  0  0  0  0  0
   11.4965   -5.1906   -4.3378 C   0  0  0  0  0  0  0  0  0  0  0  0
   10.2336   -4.7178   -3.9558 C   0  0  0  0  0  0  0  0  0  0  0  0
    9.9219   -3.7946   -2.9313 C   0  0  0  0  0  0  0  0  0  0  0  0
   10.9592   -3.2495   -2.0498 C   0  0  0  0  0  0  0  0  0  0  0  0
   11.8668   -4.1191   -1.4025 C   0  0  0  0  0  0  0  0  0  0  0  0
   12.8425   -3.6291   -0.5864 C   0  0  0  0  0  0  0  0  0  0  0  0
   12.9781   -2.2394   -0.3685 C   0  0  0  0  0  0  0  0  0  0  0  0
   13.9792   -1.7042    0.4544 C   0  0  0  0  0  0  0  0  0  0  0  0
   14.0928   -0.3438    0.6537 C   0  0  0  0  0  0  0  0  0  0  0  0
   15.1190    0.0543    1.4537 O   0  0  0  0  0  0  0  0  0  0  0  0
   15.2710    1.4160    1.7975 C   0  0  0  0  0  0  0  0  0  0  0  0
   14.2797    1.8678    2.8667 C   0  0  0  0  0  0  0  0  0  0  0  0
   13.1810    0.5243    0.0179 C   0  0  0  0  0  0  0  0  0  0  0  0
   12.1972    0.0224   -0.7875 C   0  0  0  0  0  0  0  0  0  0  0  0
   12.0617   -1.3619   -1.0068 C   0  0  0  0  0  0  0  0  0  0  0  0
   11.0604   -1.8951   -1.8381 C   0  0  0  0  0  0  0  0  0  0  0  0
    8.5918   -3.4439   -2.8098 C   0  0  0  0  0  0  0  0  0  0  0  0
    7.5657   -3.9625   -3.6460 C   0  0  0  0  0  0  0  0  0  0  0  0
    7.8762   -4.8875   -4.6564 C   0  0  0  0  0  0  0  0  0  0  0  0
    6.8389   -5.4324   -5.5415 C   0  0  0  0  0  0  0  0  0  0  0  0
    5.9628   -4.6010   -6.1973 C   0  0  0  0  0  0  0  0  0  0  0  0
    4.9681   -5.1174   -7.0483 C   0  0  0  0  0  0  0  0  0  0  0  0
    4.0540   -4.2878   -7.7258 C   0  0  0  0  0  0  0  0  0  0  0  0
    3.0905   -4.8079   -8.5450 C   0  0  0  0  0  0  0  0  0  0  0  0
    2.9941   -6.2019   -8.7315 C   0  0  0  0  0  0  0  0  0  0  0  0
    2.0701   -6.8075   -9.5253 O   0  0  0  0  0  0  0  0  0  0  0  0
    1.1257   -6.0193  -10.2207 C   0  0  0  0  0  0  0  0  0  0  0  0
    0.2309   -6.9642  -11.0077 C   0  0  0  0  0  0  0  0  0  0  0  0
    3.8785   -7.0354   -8.0800 C   0  0  0  0  0  0  0  0  0  0  0  0
    4.8725   -6.5223   -7.2340 C   0  0  0  0  0  0  0  0  0  0  0  0
    5.7869   -7.3557   -6.5523 C   0  0  0  0  0  0  0  0  0  0  0  0
    6.7402   -6.8287   -5.7329 C   0  0  0  0  0  0  0  0  0  0  0  0
    9.2083   -5.2569   -4.7803 C   0  0  0  0  0  0  0  0  0  0  0  0
    9.8380   -6.3632   -5.9692 S   0  0  0  0  0  0  0  0  0  0  0  0
    6.2894   -3.4802   -3.2720 C   0  0  0  0  0  0  0  0  0  0  0  0
    6.3112   -2.6358   -2.1988 C   0  0  0  0  0  0  0  0  0  0  0  0
    7.9353   -2.3766   -1.5896 S   0  0  0  0  0  0  0  0  0  0  0  0
    5.2037   -1.9978   -1.5757 C   0  0  0  0  0  0  0  0  0  0  0  0
    3.6405   -1.9841   -2.3699 S   0  0  0  0  0  0  0  0  0  0  0  0
    2.9698   -1.1287   -1.0401 C   0  0  0  0  0  0  0  0  0  0  0  0
    1.6852   -0.6137   -0.6815 C   0  0  0  0  0  0  0  0  0  0  0  0
    1.8197   -0.0356    0.6019 C   0  0  0  0  0  0  0  0  0  0  0  0
    3.2544   -0.1379    1.0964 C   0  0  0  0  0  0  0  0  0  0  0  0
    3.9519    1.2046    1.2186 C   0  0  0  0  0  0  0  0  0  0  0  0
    3.4337    2.3582    0.6489 C   0  0  0  0  0  0  0  0  0  0  0  0
    4.1210    3.5552    0.7446 C   0  0  0  0  0  0  0  0  0  0  0  0
    5.3437    3.6286    1.3966 C   0  0  0  0  0  0  0  0  0  0  0  0
    6.0612    4.9397    1.5422 C   0  0  0  0  0  0  0  0  0  0  0  0
    5.6274    5.6446    2.8290 C   0  0  0  0  0  0  0  0  0  0  0  0
    5.8651    2.4671    1.9526 C   0  0  0  0  0  0  0  0  0  0  0  0
    5.1821    1.2702    1.8626 C   0  0  0  0  0  0  0  0  0  0  0  0
    3.2586   -0.8946    2.4101 C   0  0  0  0  0  0  0  0  0  0  0  0
    3.4001   -2.2744    2.4459 C   0  0  0  0  0  0  0  0  0  0  0  0
    3.3518   -2.9538    3.6494 C   0  0  0  0  0  0  0  0  0  0  0  0
    3.1484   -2.2772    4.8441 C   0  0  0  0  0  0  0  0  0  0  0  0
    3.1417   -3.0109    6.1542 C   0  0  0  0  0  0  0  0  0  0  0  0
    4.5539   -3.0708    6.7399 C   0  0  0  0  0  0  0  0  0  0  0  0
    2.9982   -0.8970    4.8024 C   0  0  0  0  0  0  0  0  0  0  0  0
    3.0499   -0.2132    3.6030 C   0  0  0  0  0  0  0  0  0  0  0  0
    3.8985   -0.8853   -0.0439 C   0  0  0  0  0  0  0  0  0  0  0  0
    5.1723   -1.3600   -0.3523 C   0  0  0  0  0  0  0  0  0  0  0  0
    0.7343    0.5081    1.2485 C   0  0  0  0  0  0  0  0  0  0  0  0
   -0.4813    0.4984    0.5705 C   0  0  0  0  0  0  0  0  0  0  0  0
   -1.7713    0.9947    0.9383 C   0  0  0  0  0  0  0  0  0  0  0  0
   -2.6757    0.8373   -0.0969 C   0  0  0  0  0  0  0  0  0  0  0  0
   -2.0192    0.1407   -1.2616 C   0  0  0  0  0  0  0  0  0  0  0  0
   -0.6057   -0.0401   -0.7311 C   0  0  0  0  0  0  0  0  0  0  0  0
    0.4738   -0.6085   -1.3665 C   0  0  0  0  0  0  0  0  0  0  0  0
   -1.9406    0.9860   -2.5182 C   0  0  0  0  0  0  0  0  0  0  0  0
   -1.7332    0.3815   -3.7520 C   0  0  0  0  0  0  0  0  0  0  0  0
   -1.6113    1.1464   -4.8961 C   0  0  0  0  0  0  0  0  0  0  0  0
   -1.6899    2.5323   -4.8407 C   0  0  0  0  0  0  0  0  0  0  0  0
   -1.5132    3.3604   -6.0810 C   0  0  0  0  0  0  0  0  0  0  0  0
   -0.0283    3.6189   -6.3436 C   0  0  0  0  0  0  0  0  0  0  0  0
   -1.8871    3.1316   -3.6045 C   0  0  0  0  0  0  0  0  0  0  0  0
   -2.0083    2.3706   -2.4561 C   0  0  0  0  0  0  0  0  0  0  0  0
   -2.7721   -1.1551   -1.4966 C   0  0  0  0  0  0  0  0  0  0  0  0
   -2.3228   -2.3678   -0.9958 C   0  0  0  0  0  0  0  0  0  0  0  0
   -3.0744   -3.5145   -1.1884 C   0  0  0  0  0  0  0  0  0  0  0  0
   -4.2782   -3.4580   -1.8657 C   0  0  0  0  0  0  0  0  0  0  0  0
   -4.7473   -2.2489   -2.3641 C   0  0  0  0  0  0  0  0  0  0  0  0
   -6.0807   -2.1610   -3.0493 C   0  0  0  0  0  0  0  0  0  0  0  0
   -7.1769   -1.8233   -2.0367 C   0  0  0  0  0  0  0  0  0  0  0  0
   -3.9855   -1.1069   -2.1707 C   0  0  0  0  0  0  0  0  0  0  0  0
   -3.9497    1.3105    0.2092 C   0  0  0  0  0  0  0  0  0  0  0  0
   -4.0177    1.8216    1.4895 C   0  0  0  0  0  0  0  0  0  0  0  0
   -2.4795    1.7196    2.3253 S   0  0  0  0  0  0  0  0  0  0  0  0
   -5.1523    2.3800    2.1387 C   0  0  0  0  0  0  0  0  0  0  0  0
   -5.2885    2.7075    3.4580 C   0  0  0  0  0  0  0  0  0  0  0  0
   -6.5573    3.2410    3.7841 C   0  0  0  0  0  0  0  0  0  0  0  0
   -7.0258    3.6370    5.0492 C   0  0  0  0  0  0  0  0  0  0  0  0
   -6.2370    3.4143    6.2673 C   0  0  0  0  0  0  0  0  0  0  0  0
   -5.6905    2.1340    6.5145 C   0  0  0  0  0  0  0  0  0  0  0  0
   -4.9869    1.8822    7.6545 C   0  0  0  0  0  0  0  0  0  0  0  0
   -4.7881    2.8912    8.6233 C   0  0  0  0  0  0  0  0  0  0  0  0
   -4.0860    2.6573    9.8145 C   0  0  0  0  0  0  0  0  0  0  0  0
   -3.9234    3.6506   10.7574 C   0  0  0  0  0  0  0  0  0  0  0  0
   -3.2106    3.3067   11.8651 O   0  0  0  0  0  0  0  0  0  0  0  0
   -3.1343    4.1899   12.9656 C   0  0  0  0  0  0  0  0  0  0  0  0
   -4.4328    4.2474   13.7652 C   0  0  0  0  0  0  0  0  0  0  0  0
   -4.4650    4.9295   10.5114 C   0  0  0  0  0  0  0  0  0  0  0  0
   -5.1469    5.1795    9.3535 C   0  0  0  0  0  0  0  0  0  0  0  0
   -5.3361    4.1786    8.3813 C   0  0  0  0  0  0  0  0  0  0  0  0
   -6.0535    4.4120    7.1938 C   0  0  0  0  0  0  0  0  0  0  0  0
   -8.2906    4.2034    5.0905 C   0  0  0  0  0  0  0  0  0  0  0  0
   -9.1186    4.3406    3.9420 C   0  0  0  0  0  0  0  0  0  0  0  0
   -8.6703    3.8842    2.6833 C   0  0  0  0  0  0  0  0  0  0  0  0
   -9.5300    3.9573    1.4974 C   0  0  0  0  0  0  0  0  0  0  0  0
   -9.0654    4.4963    0.3214 C   0  0  0  0  0  0  0  0  0  0  0  0
   -9.8881    4.5751   -0.8167 C   0  0  0  0  0  0  0  0  0  0  0  0
   -9.4383    5.1262   -2.0320 C   0  0  0  0  0  0  0  0  0  0  0  0
  -10.2537    5.2022   -3.1266 C   0  0  0  0  0  0  0  0  0  0  0  0
  -11.5794    4.7256   -3.0608 C   0  0  0  0  0  0  0  0  0  0  0  0
  -12.4639    4.7372   -4.0963 O   0  0  0  0  0  0  0  0  0  0  0  0
  -12.1397    5.3934   -5.3044 C   0  0  0  0  0  0  0  0  0  0  0  0
  -12.2303    6.9129   -5.1920 C   0  0  0  0  0  0  0  0  0  0  0  0
  -12.0404    4.1760   -1.8826 C   0  0  0  0  0  0  0  0  0  0  0  0
  -11.2201    4.0873   -0.7488 C   0  0  0  0  0  0  0  0  0  0  0  0
  -11.6704    3.5254    0.4669 C   0  0  0  0  0  0  0  0  0  0  0  0
  -10.8533    3.4628    1.5557 C   0  0  0  0  0  0  0  0  0  0  0  0
   -7.3904    3.3640    2.6403 C   0  0  0  0  0  0  0  0  0  0  0  0
   -6.5995    2.7356    1.2141 S   0  0  0  0  0  0  0  0  0  0  0  0
  -10.3454    4.9634    4.2346 C   0  0  0  0  0  0  0  0  0  0  0  0
  -10.5043    5.2791    5.5639 C   0  0  0  0  0  0  0  0  0  0  0  0
   -9.0913    4.8008    6.5124 S   0  0  0  0  0  0  0  0  0  0  0  0
  -11.5473    5.8990    6.2835 C   0  0  0  0  0  0  0  0  0  0  0  0
  -12.7415    6.4369    5.8850 C   0  0  0  0  0  0  0  0  0  0  0  0
  -13.2918    6.5676    4.5147 C   0  0  0  0  0  0  0  0  0  0  0  0
  -12.8614    6.1178    3.4713 O   0  0  0  0  0  0  0  0  0  0  0  0
  -14.5172    7.3746    4.6489 C   0  0  0  0  0  0  0  0  0  0  0  0
  -15.3542    7.8093    3.6625 C   0  0  0  0  0  0  0  0  0  0  0  0
  -16.4759    8.5950    4.0092 C   0  0  0  0  0  0  0  0  0  0  0  0
  -17.3742    9.0774    3.0372 C   0  0  0  0  0  0  0  0  0  0  0  0
  -18.4511    9.8410    3.3976 C   0  0  0  0  0  0  0  0  0  0  0  0
  -18.6768   10.1553    4.7460 C   0  0  0  0  0  0  0  0  0  0  0  0
  -17.8233    9.7017    5.7146 C   0  0  0  0  0  0  0  0  0  0  0  0
  -16.7043    8.9127    5.3787 C   0  0  0  0  0  0  0  0  0  0  0  0
  -15.8210    8.4421    6.3777 C   0  0  0  0  0  0  0  0  0  0  0  0
  -14.7408    7.6795    6.0194 C   0  0  0  0  0  0  0  0  0  0  0  0
  -13.6780    7.0639    6.8070 C   0  0  0  0  0  0  0  0  0  0  0  0
  -13.6277    7.0639    8.1780 C   0  0  0  0  0  0  0  0  0  0  0  0
  -12.6598    6.4374    8.9914 C   0  0  0  0  0  0  0  0  0  0  0  0
  -11.9381    5.9569    9.7458 N   0  0  0  0  0  0  0  0  0  0  0  0
  -14.5881    7.6886    9.0017 C   0  0  0  0  0  0  0  0  0  0  0  0
  -15.3208    8.1804    9.7367 N   0  0  0  0  0  0  0  0  0  0  0  0
   13.5375   -6.3246   -5.3642 H   0  0  0  0  0  0  0  0  0  0  0  0
   10.8838  -10.0404   -9.6793 H   0  0  0  0  0  0  0  0  0  0  0  0
   11.2484  -11.7789  -11.4101 H   0  0  0  0  0  0  0  0  0  0  0  0
   12.7756  -13.2354  -12.6821 H   0  0  0  0  0  0  0  0  0  0  0  0
   15.2009  -13.1602  -12.2585 H   0  0  0  0  0  0  0  0  0  0  0  0
   16.1189  -11.6299  -10.5615 H   0  0  0  0  0  0  0  0  0  0  0  0
   15.8019   -9.9358   -8.8689 H   0  0  0  0  0  0  0  0  0  0  0  0
   12.4160   -4.8816   -3.8718 H   0  0  0  0  0  0  0  0  0  0  0  0
   11.7578   -5.1844   -1.5452 H   0  0  0  0  0  0  0  0  0  0  0  0
   13.5294   -4.3003   -0.0917 H   0  0  0  0  0  0  0  0  0  0  0  0
   14.6842   -2.3601    0.9414 H   0  0  0  0  0  0  0  0  0  0  0  0
   15.2049    2.0538    0.9073 H   0  0  0  0  0  0  0  0  0  0  0  0
   16.2904    1.4817    2.1884 H   0  0  0  0  0  0  0  0  0  0  0  0
   13.2558    1.7842    2.5102 H   0  0  0  0  0  0  0  0  0  0  0  0
   14.4773    2.9019    3.1360 H   0  0  0  0  0  0  0  0  0  0  0  0
   14.3855    1.2453    3.7517 H   0  0  0  0  0  0  0  0  0  0  0  0
   13.2531    1.5921    0.1536 H   0  0  0  0  0  0  0  0  0  0  0  0
   11.5025    0.6948   -1.2705 H   0  0  0  0  0  0  0  0  0  0  0  0
   10.3842   -1.2153   -2.3366 H   0  0  0  0  0  0  0  0  0  0  0  0
    6.0445   -3.5287   -6.0850 H   0  0  0  0  0  0  0  0  0  0  0  0
    4.1208   -3.2179   -7.5870 H   0  0  0  0  0  0  0  0  0  0  0  0
    2.4059   -4.1419   -9.0471 H   0  0  0  0  0  0  0  0  0  0  0  0
    0.5245   -5.4334   -9.5111 H   0  0  0  0  0  0  0  0  0  0  0  0
    1.6380   -5.3273  -10.9041 H   0  0  0  0  0  0  0  0  0  0  0  0
   -0.5153   -6.3970  -11.5569 H   0  0  0  0  0  0  0  0  0  0  0  0
    0.8278   -7.5425  -11.7075 H   0  0  0  0  0  0  0  0  0  0  0  0
   -0.2687   -7.6510  -10.3299 H   0  0  0  0  0  0  0  0  0  0  0  0
    3.7958   -8.1008   -8.2302 H   0  0  0  0  0  0  0  0  0  0  0  0
    5.7159   -8.4245   -6.6900 H   0  0  0  0  0  0  0  0  0  0  0  0
    7.4219   -7.4777   -5.2044 H   0  0  0  0  0  0  0  0  0  0  0  0
    5.3761   -3.7736   -3.7583 H   0  0  0  0  0  0  0  0  0  0  0  0
    2.4875    2.3269    0.1286 H   0  0  0  0  0  0  0  0  0  0  0  0
    3.6993    4.4457    0.3002 H   0  0  0  0  0  0  0  0  0  0  0  0
    7.1396    4.7708    1.5705 H   0  0  0  0  0  0  0  0  0  0  0  0
    5.8377    5.5815    0.6876 H   0  0  0  0  0  0  0  0  0  0  0  0
    6.1450    6.5950    2.9368 H   0  0  0  0  0  0  0  0  0  0  0  0
    5.8539    5.0252    3.6940 H   0  0  0  0  0  0  0  0  0  0  0  0
    4.5560    5.8319    2.8143 H   0  0  0  0  0  0  0  0  0  0  0  0
    6.8193    2.4998    2.4594 H   0  0  0  0  0  0  0  0  0  0  0  0
    5.6008    0.3777    2.3047 H   0  0  0  0  0  0  0  0  0  0  0  0
    3.5521   -2.8248    1.5288 H   0  0  0  0  0  0  0  0  0  0  0  0
    3.4697   -4.0282    3.6584 H   0  0  0  0  0  0  0  0  0  0  0  0
    2.4811   -2.5027    6.8595 H   0  0  0  0  0  0  0  0  0  0  0  0
    2.7694   -4.0269    6.0080 H   0  0  0  0  0  0  0  0  0  0  0  0
    5.2254   -3.5850    6.0558 H   0  0  0  0  0  0  0  0  0  0  0  0
    4.5508   -3.6018    7.6890 H   0  0  0  0  0  0  0  0  0  0  0  0
    4.9377   -2.0663    6.9047 H   0  0  0  0  0  0  0  0  0  0  0  0
    2.8357   -0.3505    5.7206 H   0  0  0  0  0  0  0  0  0  0  0  0
    2.9388    0.8617    3.5939 H   0  0  0  0  0  0  0  0  0  0  0  0
    6.0418   -1.2721    0.2740 H   0  0  0  0  0  0  0  0  0  0  0  0
    0.8123    0.9360    2.2361 H   0  0  0  0  0  0  0  0  0  0  0  0
    0.3961   -1.0351   -2.3547 H   0  0  0  0  0  0  0  0  0  0  0  0
   -1.6798   -0.6956   -3.8188 H   0  0  0  0  0  0  0  0  0  0  0  0
   -1.4559    0.6594   -5.8485 H   0  0  0  0  0  0  0  0  0  0  0  0
   -2.0303    4.3152   -5.9663 H   0  0  0  0  0  0  0  0  0  0  0  0
   -1.9440    2.8392   -6.9387 H   0  0  0  0  0  0  0  0  0  0  0  0
    0.4178    4.1463   -5.5037 H   0  0  0  0  0  0  0  0  0  0  0  0
    0.1016    4.2202   -7.2405 H   0  0  0  0  0  0  0  0  0  0  0  0
    0.5015    2.6784   -6.4754 H   0  0  0  0  0  0  0  0  0  0  0  0
   -1.9488    4.2088   -3.5375 H   0  0  0  0  0  0  0  0  0  0  0  0
   -2.1601    2.8603   -1.5052 H   0  0  0  0  0  0  0  0  0  0  0  0
   -1.3881   -2.4206   -0.4576 H   0  0  0  0  0  0  0  0  0  0  0  0
   -2.7162   -4.4578   -0.8027 H   0  0  0  0  0  0  0  0  0  0  0  0
   -4.8600   -4.3572   -2.0093 H   0  0  0  0  0  0  0  0  0  0  0  0
   -6.3150   -3.1130   -3.5298 H   0  0  0  0  0  0  0  0  0  0  0  0
   -6.0512   -1.3867   -3.8190 H   0  0  0  0  0  0  0  0  0  0  0  0
   -6.9706   -0.8690   -1.5572 H   0  0  0  0  0  0  0  0  0  0  0  0
   -8.1449   -1.7613   -2.5285 H   0  0  0  0  0  0  0  0  0  0  0  0
   -7.2270   -2.5885   -1.2652 H   0  0  0  0  0  0  0  0  0  0  0  0
   -4.3379   -0.1622   -2.5608 H   0  0  0  0  0  0  0  0  0  0  0  0
   -4.8000    1.2895   -0.4483 H   0  0  0  0  0  0  0  0  0  0  0  0
   -4.4952    2.5763    4.1725 H   0  0  0  0  0  0  0  0  0  0  0  0
   -5.8643    1.3462    5.7957 H   0  0  0  0  0  0  0  0  0  0  0  0
   -4.5796    0.8986    7.8391 H   0  0  0  0  0  0  0  0  0  0  0  0
   -3.6647    1.6830   10.0089 H   0  0  0  0  0  0  0  0  0  0  0  0
   -2.3350    3.7744   13.5860 H   0  0  0  0  0  0  0  0  0  0  0  0
   -2.8288    5.1929   12.6423 H   0  0  0  0  0  0  0  0  0  0  0  0
   -5.2488    4.6298   13.1566 H   0  0  0  0  0  0  0  0  0  0  0  0
   -4.6990    3.2500   14.1060 H   0  0  0  0  0  0  0  0  0  0  0  0
   -4.3033    4.8935   14.6291 H   0  0  0  0  0  0  0  0  0  0  0  0
   -4.3440    5.7242   11.2307 H   0  0  0  0  0  0  0  0  0  0  0  0
   -5.5611    6.1615    9.1753 H   0  0  0  0  0  0  0  0  0  0  0  0
   -6.4470    5.4022    7.0140 H   0  0  0  0  0  0  0  0  0  0  0  0
   -8.0633    4.8970    0.2643 H   0  0  0  0  0  0  0  0  0  0  0  0
   -8.4233    5.4927   -2.0919 H   0  0  0  0  0  0  0  0  0  0  0  0
   -9.8671    5.6264   -4.0402 H   0  0  0  0  0  0  0  0  0  0  0  0
  -12.8874    5.0303   -6.0154 H   0  0  0  0  0  0  0  0  0  0  0  0
  -11.1496    5.0859   -5.6636 H   0  0  0  0  0  0  0  0  0  0  0  0
  -13.2285    7.1983   -4.8698 H   0  0  0  0  0  0  0  0  0  0  0  0
  -11.5148    7.2931   -4.4667 H   0  0  0  0  0  0  0  0  0  0  0  0
  -12.0280    7.3651   -6.1592 H   0  0  0  0  0  0  0  0  0  0  0  0
  -13.0544    3.8091   -1.8436 H   0  0  0  0  0  0  0  0  0  0  0  0
  -12.6794    3.1440    0.5197 H   0  0  0  0  0  0  0  0  0  0  0  0
  -11.2013    3.0115    2.4729 H   0  0  0  0  0  0  0  0  0  0  0  0
  -11.0890    5.1910    3.4933 H   0  0  0  0  0  0  0  0  0  0  0  0
  -11.3316    5.9681    7.3434 H   0  0  0  0  0  0  0  0  0  0  0  0
  -15.1593    7.5593    2.6300 H   0  0  0  0  0  0  0  0  0  0  0  0
  -17.1947    8.8320    2.0006 H   0  0  0  0  0  0  0  0  0  0  0  0
  -19.1347   10.2073    2.6461 H   0  0  0  0  0  0  0  0  0  0  0  0
  -19.5310   10.7590    5.0137 H   0  0  0  0  0  0  0  0  0  0  0  0
  -17.9932    9.9402    6.7544 H   0  0  0  0  0  0  0  0  0  0  0  0
  -16.0233    8.7043    7.4036 H   0  0  0  0  0  0  0  0  0  0  0  0
  1  2  2  0  0  0  0
  2  3  1  0  0  0  0
  3  4  2  0  0  0  0
  3  5  1  0  0  0  0
  5  6  2  0  0  0  0
  6  7  1  0  0  0  0
  7  8  2  0  0  0  0
  8  9  1  0  0  0  0
  9 10  2  0  0  0  0
 10 11  1  0  0  0  0
 11 12  2  0  0  0  0
 12 13  1  0  0  0  0
 13 14  2  0  0  0  0
 14 15  1  0  0  0  0
 15 16  2  0  0  0  0
 16 17  1  0  0  0  0
 17 18  3  0  0  0  0
 16 19  1  0  0  0  0
 19 20  3  0  0  0  0
  1 21  1  0  0  0  0
 21 22  2  0  0  0  0
 22 23  1  0  0  0  0
 23 24  2  0  0  0  0
 24 25  1  0  0  0  0
 25 26  2  0  0  0  0
 26 27  1  0  0  0  0
 27 28  2  0  0  0  0
 28 29  1  0  0  0  0
 29 30  2  0  0  0  0
 30 31  1  0  0  0  0
 31 32  1  0  0  0  0
 32 33  1  0  0  0  0
 30 34  1  0  0  0  0
 34 35  2  0  0  0  0
 35 36  1  0  0  0  0
 36 37  2  0  0  0  0
 24 38  1  0  0  0  0
 38 39  2  0  0  0  0
 39 40  1  0  0  0  0
 40 41  1  0  0  0  0
 41 42  2  0  0  0  0
 42 43  1  0  0  0  0
 43 44  2  0  0  0  0
 44 45  1  0  0  0  0
 45 46  2  0  0  0  0
 46 47  1  0  0  0  0
 47 48  1  0  0  0  0
 48 49  1  0  0  0  0
 46 50  1  0  0  0  0
 50 51  2  0  0  0  0
 51 52  1  0  0  0  0
 52 53  2  0  0  0  0
 40 54  2  0  0  0  0
 54 55  1  0  0  0  0
 39 56  1  0  0  0  0
 56 57  2  0  0  0  0
 57 58  1  0  0  0  0
 57 59  1  0  0  0  0
 59 60  1  0  0  0  0
 60 61  1  0  0  0  0
 61 62  1  0  0  0  0
 62 63  2  0  0  0  0
 63 64  1  0  0  0  0
 64 65  1  0  0  0  0
 65 66  2  0  0  0  0
 66 67  1  0  0  0  0
 67 68  2  0  0  0  0
 68 69  1  0  0  0  0
 69 70  1  0  0  0  0
 68 71  1  0  0  0  0
 71 72  2  0  0  0  0
 64 73  1  0  0  0  0
 73 74  2  0  0  0  0
 74 75  1  0  0  0  0
 75 76  2  0  0  0  0
 76 77  1  0  0  0  0
 77 78  1  0  0  0  0
 76 79  1  0  0  0  0
 79 80  2  0  0  0  0
 64 81  1  0  0  0  0
 81 82  1  0  0  0  0
 63 83  1  0  0  0  0
 83 84  2  0  0  0  0
 84 85  1  0  0  0  0
 85 86  2  0  0  0  0
 86 87  1  0  0  0  0
 87 88  1  0  0  0  0
 88 89  2  0  0  0  0
 87 90  1  0  0  0  0
 90 91  2  0  0  0  0
 91 92  1  0  0  0  0
 92 93  2  0  0  0  0
 93 94  1  0  0  0  0
 94 95  1  0  0  0  0
 93 96  1  0  0  0  0
 96 97  2  0  0  0  0
 87 98  1  0  0  0  0
 98 99  2  0  0  0  0
 99100  1  0  0  0  0
100101  2  0  0  0  0
101102  1  0  0  0  0
102103  1  0  0  0  0
103104  1  0  0  0  0
102105  2  0  0  0  0
 86106  1  0  0  0  0
106107  2  0  0  0  0
107108  1  0  0  0  0
107109  1  0  0  0  0
109110  2  0  0  0  0
110111  1  0  0  0  0
111112  2  0  0  0  0
112113  1  0  0  0  0
113114  2  0  0  0  0
114115  1  0  0  0  0
115116  2  0  0  0  0
116117  1  0  0  0  0
117118  2  0  0  0  0
118119  1  0  0  0  0
119120  1  0  0  0  0
120121  1  0  0  0  0
118122  1  0  0  0  0
122123  2  0  0  0  0
123124  1  0  0  0  0
124125  2  0  0  0  0
112126  1  0  0  0  0
126127  2  0  0  0  0
127128  1  0  0  0  0
128129  1  0  0  0  0
129130  2  0  0  0  0
130131  1  0  0  0  0
131132  2  0  0  0  0
132133  1  0  0  0  0
133134  2  0  0  0  0
134135  1  0  0  0  0
135136  1  0  0  0  0
136137  1  0  0  0  0
134138  1  0  0  0  0
138139  2  0  0  0  0
139140  1  0  0  0  0
140141  2  0  0  0  0
128142  2  0  0  0  0
142143  1  0  0  0  0
127144  1  0  0  0  0
144145  2  0  0  0  0
145146  1  0  0  0  0
145147  1  0  0  0  0
147148  2  0  0  0  0
148149  1  0  0  0  0
149150  2  0  0  0  0
149151  1  0  0  0  0
151152  2  0  0  0  0
152153  1  0  0  0  0
153154  2  0  0  0  0
154155  1  0  0  0  0
155156  2  0  0  0  0
156157  1  0  0  0  0
157158  2  0  0  0  0
158159  1  0  0  0  0
159160  2  0  0  0  0
160161  1  0  0  0  0
161162  2  0  0  0  0
162163  1  0  0  0  0
163164  3  0  0  0  0
162165  1  0  0  0  0
165166  3  0  0  0  0
 15  2  1  0  0  0  0
 55 21  1  0  0  0  0
 82 59  2  0  0  0  0
 88 84  1  0  0  0  0
 97 90  1  0  0  0  0
105 98  1  0  0  0  0
143109  1  0  0  0  0
161148  1  0  0  0  0
 14  5  1  0  0  0  0
 54 23  1  0  0  0  0
 81 61  2  0  0  0  0
108 85  1  0  0  0  0
142111  1  0  0  0  0
160151  1  0  0  0  0
 12  7  1  0  0  0  0
 37 25  1  0  0  0  0
 58 38  1  0  0  0  0
 89 62  1  0  0  0  0
125113  1  0  0  0  0
146126  1  0  0  0  0
158153  1  0  0  0  0
 36 28  1  0  0  0  0
 53 41  1  0  0  0  0
 72 65  1  0  0  0  0
 80 73  1  0  0  0  0
124116  1  0  0  0  0
141129  1  0  0  0  0
 51 43  1  0  0  0  0
139131  1  0  0  0  0
  1167  1  0  0  0  0
  6168  1  0  0  0  0
  8169  1  0  0  0  0
  9170  1  0  0  0  0
 10171  1  0  0  0  0
 11172  1  0  0  0  0
 13173  1  0  0  0  0
 22174  1  0  0  0  0
 26175  1  0  0  0  0
 27176  1  0  0  0  0
 29177  1  0  0  0  0
 32178  1  0  0  0  0
 32179  1  0  0  0  0
 33180  1  0  0  0  0
 33181  1  0  0  0  0
 33182  1  0  0  0  0
 34183  1  0  0  0  0
 35184  1  0  0  0  0
 37185  1  0  0  0  0
 42186  1  0  0  0  0
 44187  1  0  0  0  0
 45188  1  0  0  0  0
 48189  1  0  0  0  0
 48190  1  0  0  0  0
 49191  1  0  0  0  0
 49192  1  0  0  0  0
 49193  1  0  0  0  0
 50194  1  0  0  0  0
 52195  1  0  0  0  0
 53196  1  0  0  0  0
 56197  1  0  0  0  0
 66198  1  0  0  0  0
 67199  1  0  0  0  0
 69200  1  0  0  0  0
 69201  1  0  0  0  0
 70202  1  0  0  0  0
 70203  1  0  0  0  0
 70204  1  0  0  0  0
 71205  1  0  0  0  0
 72206  1  0  0  0  0
 74207  1  0  0  0  0
 75208  1  0  0  0  0
 77209  1  0  0  0  0
 77210  1  0  0  0  0
 78211  1  0  0  0  0
 78212  1  0  0  0  0
 78213  1  0  0  0  0
 79214  1  0  0  0  0
 80215  1  0  0  0  0
 82216  1  0  0  0  0
 83217  1  0  0  0  0
 89218  1  0  0  0  0
 91219  1  0  0  0  0
 92220  1  0  0  0  0
 94221  1  0  0  0  0
 94222  1  0  0  0  0
 95223  1  0  0  0  0
 95224  1  0  0  0  0
 95225  1  0  0  0  0
 96226  1  0  0  0  0
 97227  1  0  0  0  0
 99228  1  0  0  0  0
100229  1  0  0  0  0
101230  1  0  0  0  0
103231  1  0  0  0  0
103232  1  0  0  0  0
104233  1  0  0  0  0
104234  1  0  0  0  0
104235  1  0  0  0  0
105236  1  0  0  0  0
106237  1  0  0  0  0
110238  1  0  0  0  0
114239  1  0  0  0  0
115240  1  0  0  0  0
117241  1  0  0  0  0
120242  1  0  0  0  0
120243  1  0  0  0  0
121244  1  0  0  0  0
121245  1  0  0  0  0
121246  1  0  0  0  0
122247  1  0  0  0  0
123248  1  0  0  0  0
125249  1  0  0  0  0
130250  1  0  0  0  0
132251  1  0  0  0  0
133252  1  0  0  0  0
136253  1  0  0  0  0
136254  1  0  0  0  0
137255  1  0  0  0  0
137256  1  0  0  0  0
137257  1  0  0  0  0
138258  1  0  0  0  0
140259  1  0  0  0  0
141260  1  0  0  0  0
144261  1  0  0  0  0
147262  1  0  0  0  0
152263  1  0  0  0  0
154264  1  0  0  0  0
155265  1  0  0  0  0
156266  1  0  0  0  0
157267  1  0  0  0  0
159268  1  0  0  0  0
M  END
