120

C         -1.69180        2.64150        9.68350
C         -1.89360        4.00810        9.80320
C         -2.39980        4.82930        8.74650
O         -2.77940        4.38840        7.65790
N         -2.46600        6.19060        8.97540
C         -2.95690        7.01630        7.87840
C         -1.81820        7.45780        6.96850
C         -2.04400        6.78690       10.13280
S         -2.05580        8.43250       10.28190
N         -1.62760        5.99070       11.15670
C         -1.19600        6.60460       12.40700
C          0.27220        7.00560       12.34810
C         -1.52400        4.60250       11.08020
O         -1.13180        3.96370       12.03770
C         -1.82480        1.76110        8.61590
C         -1.43130        0.41730        8.71380
C         -1.49450       -0.32690        7.56030
C         -1.95760        0.34760        6.42430
Se        -2.40860        2.11880        6.86190
C         -1.96580       -0.23790        5.13660
C         -2.37580        0.29320        3.91450
C         -2.98250        1.64850        3.74630
C         -4.46060        1.68020        4.13340
C         -2.07460       -0.58490        2.86410
C         -1.41640       -1.75560        3.26340
S         -1.22070       -1.83860        4.96070
C         -1.04290       -2.46780        2.10830
C         -0.40970       -3.70090        1.85140
N          0.01800       -4.67970        2.65160
N          0.47300       -5.59140        1.82920
C          1.06680       -6.80670        2.30570
C          2.58010       -6.65210        2.42550
N          0.40090       -5.31790        0.55090
C         -0.16140       -4.10870        0.50530
C         -0.43510       -3.22680       -0.56070
C         -0.11580       -3.20050       -1.92920
S          0.67500       -4.16810       -3.10140
C          0.52760       -2.86190       -4.28940
C         -0.16000       -1.76320       -3.79680
C         -0.62160       -0.60280       -4.62210
C         -2.14680       -0.62080       -4.75150
C         -0.49490       -1.95440       -2.44170
N         -1.06570       -1.19550       -1.43510
C         -0.88420        0.24380       -1.39130
C          0.59840        0.61710       -1.37300
C         -1.03510       -1.97380       -0.28450
C         -1.45280       -1.66310        1.01950
N         -2.14530       -0.54060        1.47600
C         -3.37590       -0.14020        0.81110
C         -4.54510       -1.03220        1.22850
C          1.21860       -3.03230       -5.52220
C          1.68110       -4.25820       -5.98230
C          2.49120       -4.20810       -7.10360
C          2.77830       -2.94170       -7.60980
Se         1.86460       -1.63990       -6.60810
C          3.68080       -2.76280       -8.67660
C          4.24470       -1.64910       -9.23280
C          3.91570       -0.31470       -8.81460
O          2.96240       -0.03990       -8.08840
N          4.69630        0.74140       -9.29330
C          4.23490        2.09590       -9.00020
C          4.70760        2.54970       -7.62520
C          5.91220        0.60740       -9.90750
O          6.54550        1.54530      -10.32420
C          6.42550       -0.82890       -9.99960
C          6.99980       -1.15460       -8.71530
N          7.42640       -1.41600       -7.68800
C          5.27690       -1.79340      -10.32240
C          4.68400       -1.48920      -11.70050
H         -1.31330        2.18870       10.59750
H         -3.66940        6.40640        7.32020
H         -3.46260        7.88290        8.30640
H         -1.10200        8.05880        7.52370
H         -1.31190        6.58930        6.55360
H         -2.21550        8.05510        6.15310
H         -1.82440        7.47640       12.59530
H         -1.34970        5.85830       13.18840
H          0.89080        6.13330       12.15070
H          0.43370        7.74310       11.56550
H          0.56860        7.43750       13.29950
H         -1.07610        0.01330        9.64800
H         -1.19690       -1.36250        7.51960
H         -2.86210        1.96990        2.71090
H         -2.43660        2.36560        4.37340
H         -4.58800        1.36740        5.16910
H         -4.85020        2.68950        4.03170
H         -5.04210        1.01550        3.49870
H          0.62420       -7.02460        3.27940
H          0.82090       -7.59700        1.59340
H          3.02020       -7.57950        2.78060
H          3.00710       -6.40810        1.45580
H          2.82140       -5.85730        3.12700
H         -0.29630        0.33920       -4.17620
H         -0.18840       -0.65740       -5.62380
H         -2.48570        0.24240       -5.31920
H         -2.46550       -1.52180       -5.27030
H         -2.62510       -0.60740       -3.77450
H         -1.34210        0.62820       -0.48180
H         -1.38060        0.69380       -2.25410
H          1.07630        0.19230       -0.49270
H          0.70550        1.69800       -1.33980
H          1.11000        0.24120       -2.25560
H         -3.23720       -0.23230       -0.26650
H         -3.59350        0.90210        1.05230
H         -5.45650       -0.70500        0.73500
H         -4.34620       -2.06450        0.94740
H         -4.69390       -0.99350        2.30500
H          1.42240       -5.18380       -5.49370
H          2.90870       -5.09640       -7.55030
H          4.03020       -3.70760       -9.08650
H          3.14440        2.08810       -9.04220
H          4.63730        2.74750       -9.77790
H          5.79410        2.53380       -7.57590
H          4.30650        1.89300       -6.85710
H          4.36320        3.56260       -7.43660
H          7.21420       -0.86090      -10.75880
H          5.66460       -2.81800      -10.32550
H          5.44190       -1.59860      -12.47330
H          4.29240       -0.47500      -11.74210
H          3.87080       -2.17970      -11.91160
