170

C        -11.64540        2.22140       -0.06460
C        -11.97290        3.38740       -0.70180
C        -11.04270        4.47760       -0.98920
O         -9.89010        4.52310       -0.60940
N        -11.56620        5.54430       -1.71230
C        -10.62530        6.61290       -2.03600
C         -9.87410        6.31800       -3.32720
C        -12.85240        5.62260       -2.16270
S        -13.32460        6.84190       -3.17130
N        -13.74480        4.67840       -1.74160
C        -15.14670        4.79470       -2.12990
C        -15.40430        4.14190       -3.48130
C        -13.40120        3.55570       -1.00340
O        -14.25040        2.75460       -0.66910
C        -10.38150        1.67020        0.24880
C         -9.15270        1.88880       -0.31850
C         -8.11600        1.11900        0.23940
C         -6.74220        1.15270       -0.09700
C         -6.19930        2.10170       -1.04240
C         -5.12700        1.92170       -1.87990
C         -4.78450        3.07120       -2.62400
O         -3.78540        3.20560       -3.52380
C         -2.89390        2.11400       -3.67690
C         -1.78890        2.55320       -4.62330
C         -5.61190        4.13070       -2.32940
Cl        -5.53090        5.68630       -3.02750
S         -6.81430        3.72760       -1.15830
C         -5.93030        0.24740        0.57840
C         -6.39600       -0.62070        1.59880
C         -7.75610       -0.60530        1.97280
C         -8.24850       -1.41300        3.07070
C         -7.66860       -1.58280        4.29820
C         -8.40940       -2.42080        5.16530
O         -8.13940       -2.75530        6.44880
C         -6.95570       -2.25340        7.04120
C         -5.71020       -3.01240        6.59850
C         -9.54800       -2.89290        4.55820
S         -9.74060       -2.29710        2.94720
Cl       -10.69450       -3.94280        5.26480
C         -8.59010        0.24140        1.24970
S        -10.30060        0.42320        1.48870
C         -5.36140       -1.43450        2.12310
C         -4.13920       -1.20640        1.55700
S         -4.21830        0.05380        0.33850
C         -2.86810       -1.79940        1.81640
C         -2.51890       -2.92730        2.53900
C         -3.42360       -3.92140        3.12110
C         -3.18040       -4.41170        4.40110
C         -3.98950       -5.40220        4.92540
C         -5.04220       -5.90910        4.18460
C         -5.29220       -5.44040        2.90030
C         -6.45360       -5.96060        2.10440
C         -7.67050       -5.05520        2.30060
C         -4.47560       -4.44890        2.37820
C         -1.11700       -3.08190        2.59300
S         -0.09210       -4.29830        3.32030
C          1.29210       -3.48600        2.67090
C          2.68560       -3.63780        2.60870
C          3.51910       -4.66990        3.09070
C          4.91530       -4.63680        2.77080
N          5.56840       -5.68790        3.24180
S          4.51520       -6.63480        4.02650
N          3.18550       -5.74190        3.79260
C          5.42490       -3.52960        2.05890
C          6.73680       -3.21390        1.67750
S          8.32370       -3.90100        1.73810
C          8.94390       -2.47910        0.92690
C         10.23230       -2.09860        0.52000
C         11.43100       -2.90080        0.75140
C         12.60280       -2.31700        1.22980
C         13.71930       -3.09930        1.45570
C         13.68100       -4.46060        1.20940
C         12.51710       -5.06230        0.74610
C         12.47890       -6.53170        0.44160
C         12.85560       -6.78220       -1.02020
C         11.39950       -4.27360        0.52280
C         10.21900       -0.85760       -0.11620
S          8.60620       -0.14910       -0.15500
C          7.95280       -1.53080        0.64440
C          6.69140       -1.95460        1.07340
N          5.40410       -1.48880        1.05050
C          4.59580       -2.44690        1.64260
C          3.19260       -2.54600        1.84560
N          2.11790       -1.76480        1.44820
C          0.97790       -2.34010        1.93840
C         -0.40270       -2.10850        1.89360
S         -1.46420       -0.95080        1.18020
C          2.00990       -0.76980        0.40540
C          2.37460       -1.34810       -0.95990
C          5.17050       -0.08310        0.80410
C          4.79260        0.65370        2.08690
C         11.28160       -0.21920       -0.78580
C         11.18210        0.99000       -1.40660
C         12.22300        1.57540       -2.14990
C         12.07820        2.75410       -2.82610
C         13.09910        3.30720       -3.61440
C         13.06390        4.41290       -4.42010
C         14.35690        4.96870       -4.91240
O         15.44660        4.45050       -4.81980
C         14.01310        6.27820       -5.49310
C         14.68020        7.35980       -6.08750
C         13.79000        8.33090       -6.45530
Cl        14.16270        9.81280       -7.20930
S         12.12740        7.93830       -6.09230
C         12.63970        6.44390       -5.42010
C         11.99060        5.28740       -4.85040
C         10.62970        5.09590       -4.89930
C          9.78320        6.11610       -5.38330
N          9.07280        6.93770       -5.75530
C          9.91290        3.92450       -4.59760
N          9.24400        3.00760       -4.41810
H        -12.50110        1.62420        0.23910
H         -9.92310        6.67540       -1.20260
H        -11.18480        7.54490       -2.12140
H         -9.17390        7.12280       -3.53030
H        -10.56760        6.23940       -4.16120
H         -9.31720        5.38870       -3.23370
H        -15.72650        4.29160       -1.35420
H        -15.40590        5.85390       -2.15970
H        -14.82340        4.63300       -4.25830
H        -15.13660        3.08860       -3.44560
H        -16.45820        4.22710       -3.72900
H         -9.01280        2.56550       -1.13670
H         -4.63080        0.97680       -1.99700
H         -3.43040        1.24930       -4.09140
H         -2.47600        1.83310       -2.70040
H         -1.08610        1.73900       -4.77430
H         -2.21420        2.84110       -5.58040
H         -1.26310        3.40850       -4.20840
H         -6.76290       -1.07670        4.57710
H         -7.11400       -2.39200        8.11410
H         -6.85370       -1.17990        6.84060
H         -4.84010       -2.62810        7.12320
H         -5.54650       -2.91290        5.52830
H         -5.82270       -4.06880        6.82630
H         -5.52310       -2.17430        2.88420
H         -2.36560       -4.01060        4.98410
H         -3.79330       -5.78230        5.91680
H         -5.67130       -6.68270        4.60000
H         -6.19390       -5.99100        1.04440
H         -6.70010       -6.97360        2.42670
H         -7.45090       -4.04680        1.95620
H         -8.52350       -5.43200        1.74210
H         -7.94030       -5.00770        3.35340
H         -4.64420       -4.09310        1.37170
H         12.62390       -1.26080        1.45470
H         14.62410       -2.64470        1.83180
H         14.55910       -5.06430        1.38770
H         13.17840       -7.06240        1.09000
H         11.47610       -6.92050        0.62750
H         12.82860       -7.84620       -1.24240
H         12.16110       -6.27120       -1.68330
H         13.85770       -6.41050       -1.22270
H         10.49290       -4.72850        0.15130
H          0.96550       -0.44840        0.39140
H          2.60920        0.10740        0.64690
H          1.68400       -2.14710       -1.21960
H          3.38140       -1.75920       -0.95750
H          2.31080       -0.57470       -1.72040
H          6.10870        0.32420        0.41990
H          4.42300        0.05370        0.02320
H          5.60720        0.58980        2.80470
H          3.90540        0.22130        2.54400
H          4.60410        1.70170        1.87080
H         12.21600       -0.76390       -0.82770
H         10.24260        1.52700       -1.36210
H         13.16210        1.03990       -2.21580
H         11.13670        3.27480       -2.74660
H         14.07570        2.83610       -3.55380
H         15.74130        7.42230       -6.23830
