
  xtb     02052214463D
 energy: -298.602783104827 gnorm: 0.000474785798 xtb: 6.4.1 (unknown)
169186  0     0  0            999 V2000
    2.5388    4.8851    8.9599 C   0  0  0  0  0  0  0  0  0  0  0  0
    1.7267    4.8051   10.0385 C   0  0  0  0  0  0  0  0  0  0  0  0
    0.2315    4.7059    9.9641 C   0  0  0  0  0  0  0  0  0  0  0  0
   -0.4527    4.7116    8.9645 O   0  0  0  0  0  0  0  0  0  0  0  0
   -0.2129    4.7237   11.3568 C   0  0  0  0  0  0  0  0  0  0  0  0
    0.9176    4.8677   12.2271 C   0  0  0  0  0  0  0  0  0  0  0  0
    0.5673    4.8966   13.5416 C   0  0  0  0  0  0  0  0  0  0  0  0
   -1.1416    4.7472   13.7265 S   0  0  0  0  0  0  0  0  0  0  0  0
   -1.4082    4.6483   12.0032 C   0  0  0  0  0  0  0  0  0  0  0  0
   -2.7607    4.4939   11.4243 C   0  0  0  0  0  0  0  0  0  0  0  0
    2.1252    4.9373   11.4349 C   0  0  0  0  0  0  0  0  0  0  0  0
    3.3919    5.0582   11.9397 C   0  0  0  0  0  0  0  0  0  0  0  0
    4.5791    5.1045   11.1828 C   0  0  0  0  0  0  0  0  0  0  0  0
    5.5840    5.1458   10.6287 N   0  0  0  0  0  0  0  0  0  0  0  0
    3.6181    5.1506   13.3291 C   0  0  0  0  0  0  0  0  0  0  0  0
    3.8165    5.2300   14.4565 N   0  0  0  0  0  0  0  0  0  0  0  0
    2.1297    4.6201    7.6032 C   0  0  0  0  0  0  0  0  0  0  0  0
    1.3542    3.5349    7.2361 C   0  0  0  0  0  0  0  0  0  0  0  0
    1.0117    2.6098    8.1426 F   0  0  0  0  0  0  0  0  0  0  0  0
    0.9561    3.3303    5.9117 C   0  0  0  0  0  0  0  0  0  0  0  0
    0.1929    2.2545    5.6458 F   0  0  0  0  0  0  0  0  0  0  0  0
    1.2763    4.2155    4.8956 C   0  0  0  0  0  0  0  0  0  0  0  0
    2.1554    5.2900    5.2251 C   0  0  0  0  0  0  0  0  0  0  0  0
    2.6235    6.0932    4.2551 N   0  0  0  0  0  0  0  0  0  0  0  0
    3.4764    7.0399    4.5606 C   0  0  0  0  0  0  0  0  0  0  0  0
    3.9723    7.8818    3.4250 C   0  0  0  0  0  0  0  0  0  0  0  0
    3.2438    9.2263    3.3674 C   0  0  0  0  0  0  0  0  0  0  0  0
    3.8946    7.2358    5.9089 C   0  0  0  0  0  0  0  0  0  0  0  0
    3.4365    6.4675    6.8659 N   0  0  0  0  0  0  0  0  0  0  0  0
    2.5858    5.4741    6.5607 C   0  0  0  0  0  0  0  0  0  0  0  0
    4.9290    8.2363    6.3256 C   0  0  0  0  0  0  0  0  0  0  0  0
    6.3078    7.5693    6.3478 C   0  0  0  0  0  0  0  0  0  0  0  0
    0.7738    4.0546    3.5526 C   0  0  0  0  0  0  0  0  0  0  0  0
    0.2645    5.0362    2.7236 C   0  0  0  0  0  0  0  0  0  0  0  0
   -0.0165    6.4080    3.1392 C   0  0  0  0  0  0  0  0  0  0  0  0
    0.1235    7.4604    2.2385 C   0  0  0  0  0  0  0  0  0  0  0  0
   -0.1759    8.7500    2.6346 C   0  0  0  0  0  0  0  0  0  0  0  0
   -0.5987    9.0065    3.9286 C   0  0  0  0  0  0  0  0  0  0  0  0
   -0.7554    7.9682    4.8380 C   0  0  0  0  0  0  0  0  0  0  0  0
   -1.2064    8.2296    6.2476 C   0  0  0  0  0  0  0  0  0  0  0  0
   -0.1384    7.8323    7.2679 C   0  0  0  0  0  0  0  0  0  0  0  0
   -0.4808    6.6737    4.4243 C   0  0  0  0  0  0  0  0  0  0  0  0
   -0.0794    4.5033    1.4635 C   0  0  0  0  0  0  0  0  0  0  0  0
   -0.8046    5.2047    0.0365 S   0  0  0  0  0  0  0  0  0  0  0  0
   -0.8089    3.6414   -0.7046 C   0  0  0  0  0  0  0  0  0  0  0  0
   -1.2821    3.0230   -1.8724 C   0  0  0  0  0  0  0  0  0  0  0  0
   -2.0724    3.5157   -2.9347 C   0  0  0  0  0  0  0  0  0  0  0  0
   -2.6272    2.5851   -3.8780 C   0  0  0  0  0  0  0  0  0  0  0  0
   -3.4135    3.1739   -4.7649 N   0  0  0  0  0  0  0  0  0  0  0  0
   -3.4469    4.7614   -4.4487 S   0  0  0  0  0  0  0  0  0  0  0  0
   -2.4629    4.7595   -3.1627 N   0  0  0  0  0  0  0  0  0  0  0  0
   -2.2583    1.2244   -3.7942 C   0  0  0  0  0  0  0  0  0  0  0  0
   -2.5865    0.1127   -4.5873 C   0  0  0  0  0  0  0  0  0  0  0  0
   -3.6068   -0.2936   -5.9245 S   0  0  0  0  0  0  0  0  0  0  0  0
   -3.0091   -1.9373   -5.8475 C   0  0  0  0  0  0  0  0  0  0  0  0
   -3.3326   -3.0992   -6.5683 C   0  0  0  0  0  0  0  0  0  0  0  0
   -4.4422   -3.1323   -7.5190 C   0  0  0  0  0  0  0  0  0  0  0  0
   -5.4003   -4.1420   -7.4486 C   0  0  0  0  0  0  0  0  0  0  0  0
   -6.4829   -4.1224   -8.3049 C   0  0  0  0  0  0  0  0  0  0  0  0
   -6.6254   -3.1004   -9.2282 C   0  0  0  0  0  0  0  0  0  0  0  0
   -5.6829   -2.0838   -9.3081 C   0  0  0  0  0  0  0  0  0  0  0  0
   -5.8515   -0.9401  -10.2656 C   0  0  0  0  0  0  0  0  0  0  0  0
   -6.4589    0.2664   -9.5469 C   0  0  0  0  0  0  0  0  0  0  0  0
   -4.5974   -2.1085   -8.4460 C   0  0  0  0  0  0  0  0  0  0  0  0
   -2.5859   -4.1874   -6.1262 C   0  0  0  0  0  0  0  0  0  0  0  0
   -1.5792   -3.7961   -4.7419 S   0  0  0  0  0  0  0  0  0  0  0  0
   -2.0602   -2.1373   -4.8411 C   0  0  0  0  0  0  0  0  0  0  0  0
   -1.8334   -0.9655   -4.1126 C   0  0  0  0  0  0  0  0  0  0  0  0
   -1.0672   -0.5724   -3.0443 N   0  0  0  0  0  0  0  0  0  0  0  0
   -1.3394    0.7643   -2.8092 C   0  0  0  0  0  0  0  0  0  0  0  0
   -0.9626    1.6411   -1.7612 C   0  0  0  0  0  0  0  0  0  0  0  0
   -0.3491    1.4287   -0.5402 N   0  0  0  0  0  0  0  0  0  0  0  0
   -0.2607    2.6374    0.0986 C   0  0  0  0  0  0  0  0  0  0  0  0
    0.1489    3.1302    1.3449 C   0  0  0  0  0  0  0  0  0  0  0  0
    0.8028    2.4752    2.8015 S   0  0  0  0  0  0  0  0  0  0  0  0
   -0.1566    0.2025    0.2021 C   0  0  0  0  0  0  0  0  0  0  0  0
    1.3229   -0.1010    0.4391 C   0  0  0  0  0  0  0  0  0  0  0  0
    0.1324   -1.3177   -2.7312 C   0  0  0  0  0  0  0  0  0  0  0  0
    1.0973   -1.3399   -3.9168 C   0  0  0  0  0  0  0  0  0  0  0  0
   -2.5087   -5.5140   -6.6516 C   0  0  0  0  0  0  0  0  0  0  0  0
   -2.7853   -5.8733   -7.9683 C   0  0  0  0  0  0  0  0  0  0  0  0
   -3.0671   -4.9423   -8.8947 F   0  0  0  0  0  0  0  0  0  0  0  0
   -2.7097   -7.1957   -8.4068 C   0  0  0  0  0  0  0  0  0  0  0  0
   -2.9821   -7.4442   -9.6972 F   0  0  0  0  0  0  0  0  0  0  0  0
   -2.2977   -8.2431   -7.5954 C   0  0  0  0  0  0  0  0  0  0  0  0
   -1.9809   -7.9142   -6.2458 C   0  0  0  0  0  0  0  0  0  0  0  0
   -1.6856   -8.8780   -5.3645 N   0  0  0  0  0  0  0  0  0  0  0  0
   -1.3086   -8.5652   -4.1499 C   0  0  0  0  0  0  0  0  0  0  0  0
   -1.0071   -9.7210   -3.2446 C   0  0  0  0  0  0  0  0  0  0  0  0
    0.4962  -10.0041   -3.2129 C   0  0  0  0  0  0  0  0  0  0  0  0
   -1.2013   -7.2015   -3.7607 C   0  0  0  0  0  0  0  0  0  0  0  0
   -1.6259   -6.2673   -4.5756 N   0  0  0  0  0  0  0  0  0  0  0  0
   -2.0412   -6.5708   -5.8082 C   0  0  0  0  0  0  0  0  0  0  0  0
   -0.6384   -6.7233   -2.4575 C   0  0  0  0  0  0  0  0  0  0  0  0
    0.7265   -6.0705   -2.6906 C   0  0  0  0  0  0  0  0  0  0  0  0
   -2.2473   -9.5982   -8.0603 C   0  0  0  0  0  0  0  0  0  0  0  0
   -1.2931  -10.4906   -7.6899 C   0  0  0  0  0  0  0  0  0  0  0  0
    0.0434  -10.1122   -7.1337 C   0  0  0  0  0  0  0  0  0  0  0  0
    0.4849   -8.9977   -6.9481 O   0  0  0  0  0  0  0  0  0  0  0  0
    0.7624  -11.3820   -6.9942 C   0  0  0  0  0  0  0  0  0  0  0  0
   -0.0578  -12.4588   -7.4653 C   0  0  0  0  0  0  0  0  0  0  0  0
    0.5595  -13.6676   -7.3793 C   0  0  0  0  0  0  0  0  0  0  0  0
    2.1487  -13.5019   -6.7268 S   0  0  0  0  0  0  0  0  0  0  0  0
    1.9950  -11.7687   -6.5671 C   0  0  0  0  0  0  0  0  0  0  0  0
    3.0962  -10.9329   -6.0362 C   0  0  0  0  0  0  0  0  0  0  0  0
   -1.3310  -11.9289   -7.9031 C   0  0  0  0  0  0  0  0  0  0  0  0
   -2.3816  -12.6853   -8.3511 C   0  0  0  0  0  0  0  0  0  0  0  0
   -3.6512  -12.1936   -8.7118 C   0  0  0  0  0  0  0  0  0  0  0  0
   -4.7119  -11.8633   -9.0018 N   0  0  0  0  0  0  0  0  0  0  0  0
   -2.2759  -14.0866   -8.4671 C   0  0  0  0  0  0  0  0  0  0  0  0
   -2.2021  -15.2274   -8.5680 N   0  0  0  0  0  0  0  0  0  0  0  0
    3.5633    5.2151    9.0684 H   0  0  0  0  0  0  0  0  0  0  0  0
    1.1832    4.9963   14.4129 H   0  0  0  0  0  0  0  0  0  0  0  0
   -3.4025    5.3243   11.7176 H   0  0  0  0  0  0  0  0  0  0  0  0
   -3.2264    3.5734   11.7753 H   0  0  0  0  0  0  0  0  0  0  0  0
   -2.6827    4.4652   10.3398 H   0  0  0  0  0  0  0  0  0  0  0  0
    5.0467    8.0455    3.5228 H   0  0  0  0  0  0  0  0  0  0  0  0
    3.7801    7.3360    2.5007 H   0  0  0  0  0  0  0  0  0  0  0  0
    3.6113    9.8088    2.5263 H   0  0  0  0  0  0  0  0  0  0  0  0
    2.1772    9.0633    3.2409 H   0  0  0  0  0  0  0  0  0  0  0  0
    3.3951    9.8013    4.2779 H   0  0  0  0  0  0  0  0  0  0  0  0
    4.9438    9.0936    5.6553 H   0  0  0  0  0  0  0  0  0  0  0  0
    4.6876    8.5749    7.3340 H   0  0  0  0  0  0  0  0  0  0  0  0
    7.0636    8.2880    6.6535 H   0  0  0  0  0  0  0  0  0  0  0  0
    6.5699    7.1865    5.3634 H   0  0  0  0  0  0  0  0  0  0  0  0
    6.3086    6.7420    7.0526 H   0  0  0  0  0  0  0  0  0  0  0  0
    0.4811    7.2698    1.2386 H   0  0  0  0  0  0  0  0  0  0  0  0
   -0.0744    9.5639    1.9312 H   0  0  0  0  0  0  0  0  0  0  0  0
   -0.8160   10.0209    4.2315 H   0  0  0  0  0  0  0  0  0  0  0  0
   -2.1165    7.6596    6.4507 H   0  0  0  0  0  0  0  0  0  0  0  0
   -1.4400    9.2901    6.3618 H   0  0  0  0  0  0  0  0  0  0  0  0
    0.8156    8.2976    7.0256 H   0  0  0  0  0  0  0  0  0  0  0  0
   -0.0007    6.7540    7.2871 H   0  0  0  0  0  0  0  0  0  0  0  0
   -0.4346    8.1507    8.2649 H   0  0  0  0  0  0  0  0  0  0  0  0
   -0.6486    5.8570    5.1109 H   0  0  0  0  0  0  0  0  0  0  0  0
   -5.2979   -4.9294   -6.7148 H   0  0  0  0  0  0  0  0  0  0  0  0
   -7.2234   -4.9069   -8.2502 H   0  0  0  0  0  0  0  0  0  0  0  0
   -7.4763   -3.0938   -9.8940 H   0  0  0  0  0  0  0  0  0  0  0  0
   -6.5020   -1.2375  -11.0901 H   0  0  0  0  0  0  0  0  0  0  0  0
   -4.8806   -0.6603  -10.6793 H   0  0  0  0  0  0  0  0  0  0  0  0
   -5.8193    0.5797   -8.7248 H   0  0  0  0  0  0  0  0  0  0  0  0
   -7.4357    0.0119   -9.1414 H   0  0  0  0  0  0  0  0  0  0  0  0
   -6.5753    1.1002  -10.2353 H   0  0  0  0  0  0  0  0  0  0  0  0
   -3.8483   -1.3331   -8.5107 H   0  0  0  0  0  0  0  0  0  0  0  0
   -0.6432    0.3241    1.1767 H   0  0  0  0  0  0  0  0  0  0  0  0
   -0.6613   -0.6116   -0.3189 H   0  0  0  0  0  0  0  0  0  0  0  0
    1.8907   -0.0985   -0.4889 H   0  0  0  0  0  0  0  0  0  0  0  0
    1.4260   -1.0735    0.9120 H   0  0  0  0  0  0  0  0  0  0  0  0
    1.7560    0.6474    1.0967 H   0  0  0  0  0  0  0  0  0  0  0  0
    0.6343   -0.8560   -1.8892 H   0  0  0  0  0  0  0  0  0  0  0  0
   -0.1570   -2.3413   -2.4722 H   0  0  0  0  0  0  0  0  0  0  0  0
    2.0067   -1.8639   -3.6353 H   0  0  0  0  0  0  0  0  0  0  0  0
    1.3545   -0.3245   -4.2115 H   0  0  0  0  0  0  0  0  0  0  0  0
    0.6559   -1.8488   -4.7687 H   0  0  0  0  0  0  0  0  0  0  0  0
   -1.3758   -9.5260   -2.2363 H   0  0  0  0  0  0  0  0  0  0  0  0
   -1.5251  -10.5943   -3.6439 H   0  0  0  0  0  0  0  0  0  0  0  0
    1.0404   -9.1800   -2.7591 H   0  0  0  0  0  0  0  0  0  0  0  0
    0.6936  -10.9072   -2.6403 H   0  0  0  0  0  0  0  0  0  0  0  0
    0.8632  -10.1434   -4.2261 H   0  0  0  0  0  0  0  0  0  0  0  0
   -1.3183   -5.9741   -2.0478 H   0  0  0  0  0  0  0  0  0  0  0  0
   -0.5459   -7.5428   -1.7466 H   0  0  0  0  0  0  0  0  0  0  0  0
    1.4237   -6.7819   -3.1275 H   0  0  0  0  0  0  0  0  0  0  0  0
    0.6196   -5.2318   -3.3734 H   0  0  0  0  0  0  0  0  0  0  0  0
    1.1374   -5.7125   -1.7497 H   0  0  0  0  0  0  0  0  0  0  0  0
   -3.0403   -9.9020   -8.7325 H   0  0  0  0  0  0  0  0  0  0  0  0
    0.2046  -14.6401   -7.6559 H   0  0  0  0  0  0  0  0  0  0  0  0
    3.3113  -11.1887   -4.9985 H   0  0  0  0  0  0  0  0  0  0  0  0
    2.8107   -9.8848   -6.0974 H   0  0  0  0  0  0  0  0  0  0  0  0
    4.0072  -11.0897   -6.6127 H   0  0  0  0  0  0  0  0  0  0  0  0
  1  2  2  0  0  0  0
  2  3  1  0  0  0  0
  3  4  2  0  0  0  0
  3  5  1  0  0  0  0
  5  6  1  0  0  0  0
  6  7  2  0  0  0  0
  7  8  1  0  0  0  0
  8  9  1  0  0  0  0
  9 10  1  0  0  0  0
  6 11  1  0  0  0  0
 11 12  2  0  0  0  0
 12 13  1  0  0  0  0
 13 14  3  0  0  0  0
 12 15  1  0  0  0  0
 15 16  3  0  0  0  0
  1 17  1  0  0  0  0
 17 18  2  0  0  0  0
 18 19  1  0  0  0  0
 18 20  1  0  0  0  0
 20 21  1  0  0  0  0
 20 22  2  0  0  0  0
 22 23  1  0  0  0  0
 23 24  2  0  0  0  0
 24 25  1  0  0  0  0
 25 26  1  0  0  0  0
 26 27  1  0  0  0  0
 25 28  2  0  0  0  0
 28 29  1  0  0  0  0
 29 30  2  0  0  0  0
 28 31  1  0  0  0  0
 31 32  1  0  0  0  0
 22 33  1  0  0  0  0
 33 34  2  0  0  0  0
 34 35  1  0  0  0  0
 35 36  2  0  0  0  0
 36 37  1  0  0  0  0
 37 38  2  0  0  0  0
 38 39  1  0  0  0  0
 39 40  1  0  0  0  0
 40 41  1  0  0  0  0
 39 42  2  0  0  0  0
 34 43  1  0  0  0  0
 43 44  1  0  0  0  0
 44 45  1  0  0  0  0
 45 46  1  0  0  0  0
 46 47  1  0  0  0  0
 47 48  1  0  0  0  0
 48 49  2  0  0  0  0
 49 50  1  0  0  0  0
 50 51  1  0  0  0  0
 48 52  1  0  0  0  0
 52 53  1  0  0  0  0
 53 54  1  0  0  0  0
 54 55  1  0  0  0  0
 55 56  1  0  0  0  0
 56 57  1  0  0  0  0
 57 58  2  0  0  0  0
 58 59  1  0  0  0  0
 59 60  2  0  0  0  0
 60 61  1  0  0  0  0
 61 62  1  0  0  0  0
 62 63  1  0  0  0  0
 61 64  2  0  0  0  0
 56 65  2  0  0  0  0
 65 66  1  0  0  0  0
 66 67  1  0  0  0  0
 67 68  1  0  0  0  0
 68 69  1  0  0  0  0
 69 70  1  0  0  0  0
 70 71  1  0  0  0  0
 71 72  1  0  0  0  0
 72 73  1  0  0  0  0
 73 74  1  0  0  0  0
 74 75  1  0  0  0  0
 72 76  1  0  0  0  0
 76 77  1  0  0  0  0
 69 78  1  0  0  0  0
 78 79  1  0  0  0  0
 65 80  1  0  0  0  0
 80 81  2  0  0  0  0
 81 82  1  0  0  0  0
 81 83  1  0  0  0  0
 83 84  1  0  0  0  0
 83 85  2  0  0  0  0
 85 86  1  0  0  0  0
 86 87  2  0  0  0  0
 87 88  1  0  0  0  0
 88 89  1  0  0  0  0
 89 90  1  0  0  0  0
 88 91  2  0  0  0  0
 91 92  1  0  0  0  0
 92 93  2  0  0  0  0
 91 94  1  0  0  0  0
 94 95  1  0  0  0  0
 85 96  1  0  0  0  0
 96 97  2  0  0  0  0
 97 98  1  0  0  0  0
 98 99  2  0  0  0  0
 98100  1  0  0  0  0
100101  1  0  0  0  0
101102  2  0  0  0  0
102103  1  0  0  0  0
103104  1  0  0  0  0
104105  1  0  0  0  0
101106  1  0  0  0  0
106107  2  0  0  0  0
107108  1  0  0  0  0
108109  3  0  0  0  0
107110  1  0  0  0  0
110111  3  0  0  0  0
 11  2  1  0  0  0  0
 30 17  1  0  0  0  0
 75 33  1  0  0  0  0
 93 80  1  0  0  0  0
106 97  1  0  0  0  0
  9  5  2  0  0  0  0
 30 23  1  0  0  0  0
 42 35  1  0  0  0  0
 74 43  2  0  0  0  0
 93 86  1  0  0  0  0
104100  2  0  0  0  0
 73 45  2  0  0  0  0
 71 46  2  0  0  0  0
 51 47  2  0  0  0  0
 70 52  2  0  0  0  0
 68 53  2  0  0  0  0
 67 55  2  0  0  0  0
 64 57  1  0  0  0  0
  1112  1  0  0  0  0
  7113  1  0  0  0  0
 10114  1  0  0  0  0
 10115  1  0  0  0  0
 10116  1  0  0  0  0
 26117  1  0  0  0  0
 26118  1  0  0  0  0
 27119  1  0  0  0  0
 27120  1  0  0  0  0
 27121  1  0  0  0  0
 31122  1  0  0  0  0
 31123  1  0  0  0  0
 32124  1  0  0  0  0
 32125  1  0  0  0  0
 32126  1  0  0  0  0
 36127  1  0  0  0  0
 37128  1  0  0  0  0
 38129  1  0  0  0  0
 40130  1  0  0  0  0
 40131  1  0  0  0  0
 41132  1  0  0  0  0
 41133  1  0  0  0  0
 41134  1  0  0  0  0
 42135  1  0  0  0  0
 58136  1  0  0  0  0
 59137  1  0  0  0  0
 60138  1  0  0  0  0
 62139  1  0  0  0  0
 62140  1  0  0  0  0
 63141  1  0  0  0  0
 63142  1  0  0  0  0
 63143  1  0  0  0  0
 64144  1  0  0  0  0
 76145  1  0  0  0  0
 76146  1  0  0  0  0
 77147  1  0  0  0  0
 77148  1  0  0  0  0
 77149  1  0  0  0  0
 78150  1  0  0  0  0
 78151  1  0  0  0  0
 79152  1  0  0  0  0
 79153  1  0  0  0  0
 79154  1  0  0  0  0
 89155  1  0  0  0  0
 89156  1  0  0  0  0
 90157  1  0  0  0  0
 90158  1  0  0  0  0
 90159  1  0  0  0  0
 94160  1  0  0  0  0
 94161  1  0  0  0  0
 95162  1  0  0  0  0
 95163  1  0  0  0  0
 95164  1  0  0  0  0
 96165  1  0  0  0  0
102166  1  0  0  0  0
105167  1  0  0  0  0
105168  1  0  0  0  0
105169  1  0  0  0  0
M  END
