145

C          8.58340        4.33930       -3.46390
C          9.39680        5.07010       -4.29180
C          9.45690        6.54420       -4.47480
O          8.84350        7.41210       -3.88070
C         10.41910        6.75870       -5.55650
C         10.94000        5.50090       -5.99770
C         11.84520        5.63140       -7.00350
S         12.06600        7.29300       -7.42150
C         10.91990        7.83580       -6.21970
C         10.60740        9.26950       -6.02580
C         10.33170        4.44340       -5.21720
C         10.64400        3.11490       -5.36320
C         10.12830        2.03170       -4.62670
N          9.76750        1.09130       -4.07320
C         11.58500        2.69360       -6.32540
N         12.34600        2.33020       -7.10410
C          7.63700        4.72460       -2.49770
C          7.25870        5.95340       -1.98790
C          6.24800        5.88550       -1.03050
S          5.46790        7.27360       -0.29360
C          5.86470        8.62410       -1.46410
C          5.20180        8.44740       -2.81540
C          5.84420        4.57580       -0.75700
S          6.72030        3.44160       -1.72970
C          4.83270        4.11180        0.12940
C          4.46270        4.59260        1.37460
C          5.19830        5.59190        2.14520
C          6.59020        5.56360        2.19760
C          7.26960        6.50370        2.94700
C          6.57420        7.47710        3.64280
C          5.18590        7.51230        3.61150
C          4.42630        8.59940        4.31470
C          4.20120        9.77770        3.36480
C          4.50840        6.56020        2.86700
C          3.34300        3.89680        1.87240
S          2.43640        4.02710        3.35980
C          1.43850        2.71070        2.84410
C          0.34540        1.95660        3.30840
C         -0.34080        1.90390        4.54320
C         -1.34180        0.88790        4.74920
N         -1.84010        0.91490        5.97480
S         -1.12590        2.11260        6.79700
N         -0.14850        2.64540        5.62230
C         -1.72400        0.06620        3.66410
C         -2.74620       -0.88460        3.48870
S         -3.96570       -1.68650        4.42000
C         -4.51090       -2.49360        2.96840
C         -5.53100       -3.43010        2.72730
C         -6.37790       -3.97490        3.79320
C         -7.06390       -3.11670        4.64550
C         -7.87290       -3.63650        5.64000
C         -7.99570       -5.00510        5.79610
C         -7.29690       -5.87770        4.96830
C         -7.38880       -7.36300        5.17340
C         -6.38890       -7.81690        6.23840
C         -6.48550       -5.35110        3.97590
C         -5.58590       -3.77800        1.38450
S         -4.34550       -2.97700        0.43120
C         -3.77160       -2.14920        1.83280
C         -2.75790       -1.23340        2.13330
N         -1.76530       -0.56180        1.46270
C         -1.10500        0.21570        2.39630
C          0.03590        1.03650        2.27410
N          0.94910        1.17100        1.24450
C          1.79260        2.19800        1.59070
C          2.88700        2.87290        1.03900
S          3.83510        2.76080       -0.39920
C          1.39400        0.11970        0.35110
C          2.67980       -0.53350        0.85700
C         -1.90770       -0.27150        0.04970
C         -3.19210        0.50910       -0.22800
C         -6.51690       -4.60820        0.70460
C         -7.72800       -5.07480        1.18420
C         -8.40580       -5.86090        0.26140
S         -9.93770       -6.65320        0.52860
C        -10.24090       -6.40710        2.31570
C        -10.88690       -5.07000        2.62550
C         -7.73120       -5.99100       -0.97190
S         -6.22290       -5.10510       -0.93230
C         -8.23350       -6.74550       -2.03060
C         -7.72980       -6.95850       -3.29310
C         -6.49560       -6.37010       -3.83190
O         -5.71270       -5.63000       -3.25600
C         -6.39880       -6.85400       -5.20910
C         -7.51700       -7.70520       -5.48910
C         -7.49640       -8.19760       -6.75490
S         -6.11150       -7.62470       -7.61710
C         -5.53800       -6.69900       -6.25000
C         -4.29600       -5.89590       -6.30790
C         -8.35430       -7.78470       -4.30660
C         -9.50650       -8.52760       -4.22700
C        -10.34960       -8.65000       -3.10720
N        -11.08500       -8.80590       -2.23770
C         -9.96160       -9.27830       -5.32910
N        -10.34790       -9.89270       -6.21900
H          8.66160        3.26300       -3.56450
H         12.39790        4.88240       -7.53390
H         10.23850        9.71190       -6.95070
H         11.49920        9.81990       -5.72610
H          9.84980        9.36710       -5.25160
H          7.71760        6.86180       -2.32830
H          5.48400        9.50950       -0.95450
H          6.94700        8.70510       -1.54600
H          5.41630        9.31070       -3.44160
H          4.12410        8.35550       -2.70110
H          5.57650        7.55930       -3.31900
H          7.13240        4.79720        1.66320
H          8.34870        6.47830        2.98750
H          7.11360        8.21470        4.21960
H          4.98480        8.94040        5.18840
H          3.46090        8.21750        4.65130
H          5.15480       10.18510        3.03620
H          3.63780       10.56520        3.85970
H          3.64940        9.45160        2.48600
H          3.42970        6.58580        2.82320
H         -6.97600       -2.04890        4.51480
H         -8.41330       -2.96850        6.29390
H         -8.63650       -5.40480        6.56880
H         -7.17580       -7.88280        4.23660
H         -8.39890       -7.63050        5.49240
H         -6.58910       -7.31710        7.18340
H         -6.45870       -8.89120        6.39110
H         -5.37420       -7.57390        5.93150
H         -5.93210       -6.01400        3.32540
H          1.56270        0.55030       -0.64130
H          0.62280       -0.64620        0.29210
H          3.49630        0.18190        0.89080
H          2.96050       -1.34330        0.18960
H          2.52760       -0.93850        1.85510
H         -1.92190       -1.21750       -0.50070
H         -1.06340        0.33090       -0.27930
H         -4.06880       -0.07210        0.04290
H         -3.25020        0.74630       -1.28650
H         -3.19740        1.43690        0.34030
H         -8.09460       -4.82600        2.16020
H        -10.91190       -7.22570        2.57600
H         -9.29660       -6.54340        2.84030
H        -11.84560       -4.98920        2.11910
H        -10.25970       -4.24210        2.30350
H        -11.04860       -4.98240        3.69810
H         -9.17560       -7.23010       -1.79800
H         -8.18560       -8.85170       -7.25010
H         -4.13850       -5.41590       -5.34450
H         -3.43920       -6.52760       -6.54040
H         -4.36750       -5.13300       -7.08290
