
  xtb     02132208283D
 energy: -286.801914525738 gnorm: 0.000417356903 xtb: 6.4.1 (unknown)
151168  0     0  0            999 V2000
  -10.4588    3.0517    9.6383 C   0  0  0  0  0  0  0  0  0  0  0  0
  -11.7462    2.6092    9.6630 C   0  0  0  0  0  0  0  0  0  0  0  0
  -12.4295    1.8695    8.5675 C   0  0  0  0  0  0  0  0  0  0  0  0
  -11.9497    1.3821    7.5737 O   0  0  0  0  0  0  0  0  0  0  0  0
  -13.8726    1.9240    8.9124 C   0  0  0  0  0  0  0  0  0  0  0  0
  -14.0540    2.5908   10.1365 C   0  0  0  0  0  0  0  0  0  0  0  0
  -15.3242    2.7699   10.6602 C   0  0  0  0  0  0  0  0  0  0  0  0
  -16.4016    2.2702    9.9439 C   0  0  0  0  0  0  0  0  0  0  0  0
  -17.6341    2.4326   10.4273 F   0  0  0  0  0  0  0  0  0  0  0  0
  -16.2389    1.6026    8.7307 C   0  0  0  0  0  0  0  0  0  0  0  0
  -17.3018    1.1329    8.0747 F   0  0  0  0  0  0  0  0  0  0  0  0
  -14.9563    1.4296    8.2066 C   0  0  0  0  0  0  0  0  0  0  0  0
  -14.8038    0.7937    7.0503 F   0  0  0  0  0  0  0  0  0  0  0  0
  -12.7448    2.9892   10.6482 C   0  0  0  0  0  0  0  0  0  0  0  0
  -12.5059    3.5407   11.8773 C   0  0  0  0  0  0  0  0  0  0  0  0
  -11.2252    3.8260   12.4017 C   0  0  0  0  0  0  0  0  0  0  0  0
  -10.2240    4.0647   12.9090 N   0  0  0  0  0  0  0  0  0  0  0  0
  -13.5140    3.8662   12.8109 C   0  0  0  0  0  0  0  0  0  0  0  0
  -14.2888    4.1564   13.6056 N   0  0  0  0  0  0  0  0  0  0  0  0
   -9.4075    2.6603    8.7415 C   0  0  0  0  0  0  0  0  0  0  0  0
   -8.4381    3.6222    8.3914 C   0  0  0  0  0  0  0  0  0  0  0  0
   -7.4488    3.2759    7.5072 C   0  0  0  0  0  0  0  0  0  0  0  0
   -6.3464    4.1073    6.9483 C   0  0  0  0  0  0  0  0  0  0  0  0
   -6.1115    5.2700    7.1716 O   0  0  0  0  0  0  0  0  0  0  0  0
   -5.6186    3.1847    6.0359 C   0  0  0  0  0  0  0  0  0  0  0  0
   -6.2332    1.9148    6.0667 C   0  0  0  0  0  0  0  0  0  0  0  0
   -7.3625    1.9692    6.9778 C   0  0  0  0  0  0  0  0  0  0  0  0
   -8.2725    1.0029    7.3700 C   0  0  0  0  0  0  0  0  0  0  0  0
   -9.2864    1.3554    8.2436 C   0  0  0  0  0  0  0  0  0  0  0  0
   -5.7255    0.8873    5.2929 C   0  0  0  0  0  0  0  0  0  0  0  0
   -4.6431    1.1500    4.4694 C   0  0  0  0  0  0  0  0  0  0  0  0
   -4.0530    2.4168    4.4006 C   0  0  0  0  0  0  0  0  0  0  0  0
   -4.5351    3.4430    5.2334 C   0  0  0  0  0  0  0  0  0  0  0  0
   -2.9699    2.6593    3.4769 C   0  0  0  0  0  0  0  0  0  0  0  0
   -2.6173    3.8339    2.8433 C   0  0  0  0  0  0  0  0  0  0  0  0
   -3.3613    5.0947    2.9131 C   0  0  0  0  0  0  0  0  0  0  0  0
   -2.6892    6.2925    3.1341 C   0  0  0  0  0  0  0  0  0  0  0  0
   -3.4023    7.4743    3.2088 C   0  0  0  0  0  0  0  0  0  0  0  0
   -4.7783    7.4713    3.0623 C   0  0  0  0  0  0  0  0  0  0  0  0
   -5.4618    6.2868    2.8164 C   0  0  0  0  0  0  0  0  0  0  0  0
   -6.9577    6.2630    2.6876 C   0  0  0  0  0  0  0  0  0  0  0  0
   -7.5962    5.6778    3.9488 C   0  0  0  0  0  0  0  0  0  0  0  0
   -4.7411    5.1056    2.7351 C   0  0  0  0  0  0  0  0  0  0  0  0
   -1.4835    3.6576    2.0230 C   0  0  0  0  0  0  0  0  0  0  0  0
   -0.6307    4.7375    0.9468 S   0  0  0  0  0  0  0  0  0  0  0  0
    0.3878    3.4191    0.4771 C   0  0  0  0  0  0  0  0  0  0  0  0
    1.4158    3.1459   -0.4380 C   0  0  0  0  0  0  0  0  0  0  0  0
    1.9898    3.9518   -1.4452 C   0  0  0  0  0  0  0  0  0  0  0  0
    2.8951    3.3496   -2.3790 C   0  0  0  0  0  0  0  0  0  0  0  0
    3.3025    4.1992   -3.3091 N   0  0  0  0  0  0  0  0  0  0  0  0
    2.6116    5.6358   -3.0284 S   0  0  0  0  0  0  0  0  0  0  0  0
    1.7621    5.2284   -1.7123 N   0  0  0  0  0  0  0  0  0  0  0  0
    3.2697    2.0013   -2.1922 C   0  0  0  0  0  0  0  0  0  0  0  0
    4.1714    1.1924   -2.8997 C   0  0  0  0  0  0  0  0  0  0  0  0
    5.1548    1.2632   -4.3216 S   0  0  0  0  0  0  0  0  0  0  0  0
    5.6789   -0.3713   -4.0013 C   0  0  0  0  0  0  0  0  0  0  0  0
    6.5338   -1.2388   -4.6950 C   0  0  0  0  0  0  0  0  0  0  0  0
    7.2361   -0.8924   -5.9371 C   0  0  0  0  0  0  0  0  0  0  0  0
    8.6227   -0.7819   -5.9530 C   0  0  0  0  0  0  0  0  0  0  0  0
    9.2695   -0.4776   -7.1351 C   0  0  0  0  0  0  0  0  0  0  0  0
    8.5448   -0.2944   -8.2988 C   0  0  0  0  0  0  0  0  0  0  0  0
    7.1595   -0.3868   -8.2934 C   0  0  0  0  0  0  0  0  0  0  0  0
    6.3772   -0.2505   -9.5661 C   0  0  0  0  0  0  0  0  0  0  0  0
    6.2359   -1.6215  -10.2300 C   0  0  0  0  0  0  0  0  0  0  0  0
    6.5122   -0.6765   -7.1017 C   0  0  0  0  0  0  0  0  0  0  0  0
    6.6361   -2.4672   -4.0633 C   0  0  0  0  0  0  0  0  0  0  0  0
    5.6868   -2.5316   -2.5765 S   0  0  0  0  0  0  0  0  0  0  0  0
    5.1249   -0.9189   -2.8375 C   0  0  0  0  0  0  0  0  0  0  0  0
    4.2511   -0.0236   -2.2133 C   0  0  0  0  0  0  0  0  0  0  0  0
    3.4139   -0.0082   -1.1287 N   0  0  0  0  0  0  0  0  0  0  0  0
    2.7781    1.2245   -1.1046 C   0  0  0  0  0  0  0  0  0  0  0  0
    1.7541    1.7711   -0.2863 C   0  0  0  0  0  0  0  0  0  0  0  0
    0.9295    1.2281    0.6875 N   0  0  0  0  0  0  0  0  0  0  0  0
    0.0963    2.2194    1.1302 C   0  0  0  0  0  0  0  0  0  0  0  0
   -0.9831    2.3550    2.0135 C   0  0  0  0  0  0  0  0  0  0  0  0
   -1.9100    1.3253    3.0447 S   0  0  0  0  0  0  0  0  0  0  0  0
    0.6123   -0.1519    0.9754 C   0  0  0  0  0  0  0  0  0  0  0  0
    0.0669   -0.8721   -0.2553 C   0  0  0  0  0  0  0  0  0  0  0  0
    3.6058   -0.9738   -0.0690 C   0  0  0  0  0  0  0  0  0  0  0  0
    4.1675   -0.3204    1.1909 C   0  0  0  0  0  0  0  0  0  0  0  0
    7.2988   -3.6326   -4.5168 C   0  0  0  0  0  0  0  0  0  0  0  0
    7.4807   -4.7956   -3.7824 C   0  0  0  0  0  0  0  0  0  0  0  0
    8.1020   -5.8013   -4.5077 C   0  0  0  0  0  0  0  0  0  0  0  0
    8.5455   -7.3824   -3.9258 S   0  0  0  0  0  0  0  0  0  0  0  0
    7.7287   -7.4888   -2.2943 C   0  0  0  0  0  0  0  0  0  0  0  0
    6.2271   -7.6637   -2.4129 C   0  0  0  0  0  0  0  0  0  0  0  0
    8.3983   -5.4244   -5.8415 C   0  0  0  0  0  0  0  0  0  0  0  0
    7.9121   -3.7645   -6.1318 S   0  0  0  0  0  0  0  0  0  0  0  0
    8.9589   -6.2961   -6.7650 C   0  0  0  0  0  0  0  0  0  0  0  0
    9.2994   -6.1025   -8.0915 C   0  0  0  0  0  0  0  0  0  0  0  0
    9.1970   -4.8413   -8.8191 C   0  0  0  0  0  0  0  0  0  0  0  0
    8.7834   -3.7698   -8.4178 O   0  0  0  0  0  0  0  0  0  0  0  0
    9.7109   -5.1226  -10.1825 C   0  0  0  0  0  0  0  0  0  0  0  0
   10.0862   -6.4744  -10.2695 C   0  0  0  0  0  0  0  0  0  0  0  0
   10.5963   -6.9850  -11.4504 C   0  0  0  0  0  0  0  0  0  0  0  0
   10.7225   -6.1268  -12.5342 C   0  0  0  0  0  0  0  0  0  0  0  0
   11.2117   -6.6007  -13.6838 F   0  0  0  0  0  0  0  0  0  0  0  0
   10.3557   -4.7859  -12.4630 C   0  0  0  0  0  0  0  0  0  0  0  0
   10.4917   -3.9902  -13.5289 F   0  0  0  0  0  0  0  0  0  0  0  0
    9.8436   -4.2774  -11.2676 C   0  0  0  0  0  0  0  0  0  0  0  0
    9.4953   -2.9932  -11.2014 F   0  0  0  0  0  0  0  0  0  0  0  0
    9.8292   -7.1116   -8.9735 C   0  0  0  0  0  0  0  0  0  0  0  0
   10.0462   -8.4410   -8.7023 C   0  0  0  0  0  0  0  0  0  0  0  0
    9.7804   -9.0941   -7.4806 C   0  0  0  0  0  0  0  0  0  0  0  0
    9.5930   -9.7174   -6.5338 N   0  0  0  0  0  0  0  0  0  0  0  0
   10.5632   -9.3646   -9.6337 C   0  0  0  0  0  0  0  0  0  0  0  0
   10.9812  -10.1670  -10.3408 N   0  0  0  0  0  0  0  0  0  0  0  0
  -10.1857    3.8326   10.3390 H   0  0  0  0  0  0  0  0  0  0  0  0
  -15.5106    3.2807   11.5903 H   0  0  0  0  0  0  0  0  0  0  0  0
   -8.4920    4.6259    8.7863 H   0  0  0  0  0  0  0  0  0  0  0  0
   -8.2016   -0.0092    7.0028 H   0  0  0  0  0  0  0  0  0  0  0  0
   -9.9790    0.5994    8.5744 H   0  0  0  0  0  0  0  0  0  0  0  0
   -6.1680   -0.0969    5.3116 H   0  0  0  0  0  0  0  0  0  0  0  0
   -4.2509    0.3610    3.8433 H   0  0  0  0  0  0  0  0  0  0  0  0
   -4.0681    4.4145    5.2468 H   0  0  0  0  0  0  0  0  0  0  0  0
   -1.6175    6.2909    3.2652 H   0  0  0  0  0  0  0  0  0  0  0  0
   -2.8814    8.4029    3.3890 H   0  0  0  0  0  0  0  0  0  0  0  0
   -5.3280    8.3983    3.1346 H   0  0  0  0  0  0  0  0  0  0  0  0
   -7.3306    7.2764    2.5303 H   0  0  0  0  0  0  0  0  0  0  0  0
   -7.2448    5.6563    1.8253 H   0  0  0  0  0  0  0  0  0  0  0  0
   -7.2957    4.6402    4.0832 H   0  0  0  0  0  0  0  0  0  0  0  0
   -7.2825    6.2373    4.8272 H   0  0  0  0  0  0  0  0  0  0  0  0
   -8.6809    5.7161    3.8790 H   0  0  0  0  0  0  0  0  0  0  0  0
   -5.2561    4.1776    2.5287 H   0  0  0  0  0  0  0  0  0  0  0  0
    9.1826   -0.9375   -5.0420 H   0  0  0  0  0  0  0  0  0  0  0  0
   10.3458   -0.3923   -7.1498 H   0  0  0  0  0  0  0  0  0  0  0  0
    9.0588   -0.0818   -9.2243 H   0  0  0  0  0  0  0  0  0  0  0  0
    6.8923    0.4279  -10.2484 H   0  0  0  0  0  0  0  0  0  0  0  0
    5.3867    0.1586   -9.3558 H   0  0  0  0  0  0  0  0  0  0  0  0
    5.6990   -2.3047   -9.5754 H   0  0  0  0  0  0  0  0  0  0  0  0
    5.6951   -1.5377  -11.1700 H   0  0  0  0  0  0  0  0  0  0  0  0
    7.2188   -2.0410  -10.4240 H   0  0  0  0  0  0  0  0  0  0  0  0
    5.4345   -0.7589   -7.0793 H   0  0  0  0  0  0  0  0  0  0  0  0
    1.4794   -0.6660    1.3911 H   0  0  0  0  0  0  0  0  0  0  0  0
   -0.1549   -0.1380    1.7535 H   0  0  0  0  0  0  0  0  0  0  0  0
    0.7754   -0.8349   -1.0792 H   0  0  0  0  0  0  0  0  0  0  0  0
   -0.1415   -1.9114   -0.0156 H   0  0  0  0  0  0  0  0  0  0  0  0
   -0.8568   -0.4000   -0.5816 H   0  0  0  0  0  0  0  0  0  0  0  0
    2.6797   -1.5124    0.1366 H   0  0  0  0  0  0  0  0  0  0  0  0
    4.3241   -1.7064   -0.4457 H   0  0  0  0  0  0  0  0  0  0  0  0
    5.1346    0.1287    0.9765 H   0  0  0  0  0  0  0  0  0  0  0  0
    3.5067    0.4609    1.5585 H   0  0  0  0  0  0  0  0  0  0  0  0
    4.2973   -1.0671    1.9696 H   0  0  0  0  0  0  0  0  0  0  0  0
    7.1717   -4.8695   -2.7552 H   0  0  0  0  0  0  0  0  0  0  0  0
    8.1859   -8.3675   -1.8396 H   0  0  0  0  0  0  0  0  0  0  0  0
    8.0047   -6.6100   -1.7138 H   0  0  0  0  0  0  0  0  0  0  0  0
    5.9986   -8.5590   -2.9857 H   0  0  0  0  0  0  0  0  0  0  0  0
    5.7896   -7.7636   -1.4215 H   0  0  0  0  0  0  0  0  0  0  0  0
    5.7696   -6.8114   -2.9103 H   0  0  0  0  0  0  0  0  0  0  0  0
    9.1434   -7.2860   -6.3636 H   0  0  0  0  0  0  0  0  0  0  0  0
   10.8984   -8.0122  -11.5668 H   0  0  0  0  0  0  0  0  0  0  0  0
  1  2  2  0  0  0  0
  2  3  1  0  0  0  0
  3  4  2  0  0  0  0
  3  5  1  0  0  0  0
  5  6  2  0  0  0  0
  6  7  1  0  0  0  0
  7  8  2  0  0  0  0
  8  9  1  0  0  0  0
  8 10  1  0  0  0  0
 10 11  1  0  0  0  0
 10 12  2  0  0  0  0
 12 13  1  0  0  0  0
  6 14  1  0  0  0  0
 14 15  2  0  0  0  0
 15 16  1  0  0  0  0
 16 17  3  0  0  0  0
 15 18  1  0  0  0  0
 18 19  3  0  0  0  0
  1 20  1  0  0  0  0
 20 21  2  0  0  0  0
 21 22  1  0  0  0  0
 22 23  1  0  0  0  0
 23 24  2  0  0  0  0
 23 25  1  0  0  0  0
 25 26  2  0  0  0  0
 26 27  1  0  0  0  0
 27 28  1  0  0  0  0
 28 29  2  0  0  0  0
 26 30  1  0  0  0  0
 30 31  2  0  0  0  0
 31 32  1  0  0  0  0
 32 33  2  0  0  0  0
 32 34  1  0  0  0  0
 34 35  2  0  0  0  0
 35 36  1  0  0  0  0
 36 37  2  0  0  0  0
 37 38  1  0  0  0  0
 38 39  2  0  0  0  0
 39 40  1  0  0  0  0
 40 41  1  0  0  0  0
 41 42  1  0  0  0  0
 40 43  2  0  0  0  0
 35 44  1  0  0  0  0
 44 45  1  0  0  0  0
 45 46  1  0  0  0  0
 46 47  1  0  0  0  0
 47 48  1  0  0  0  0
 48 49  1  0  0  0  0
 49 50  2  0  0  0  0
 50 51  1  0  0  0  0
 51 52  1  0  0  0  0
 49 53  1  0  0  0  0
 53 54  1  0  0  0  0
 54 55  1  0  0  0  0
 55 56  1  0  0  0  0
 56 57  1  0  0  0  0
 57 58  1  0  0  0  0
 58 59  2  0  0  0  0
 59 60  1  0  0  0  0
 60 61  2  0  0  0  0
 61 62  1  0  0  0  0
 62 63  1  0  0  0  0
 63 64  1  0  0  0  0
 62 65  2  0  0  0  0
 57 66  2  0  0  0  0
 66 67  1  0  0  0  0
 67 68  1  0  0  0  0
 68 69  1  0  0  0  0
 69 70  1  0  0  0  0
 70 71  1  0  0  0  0
 71 72  1  0  0  0  0
 72 73  1  0  0  0  0
 73 74  1  0  0  0  0
 74 75  1  0  0  0  0
 75 76  1  0  0  0  0
 73 77  1  0  0  0  0
 77 78  1  0  0  0  0
 70 79  1  0  0  0  0
 79 80  1  0  0  0  0
 66 81  1  0  0  0  0
 81 82  2  0  0  0  0
 82 83  1  0  0  0  0
 83 84  1  0  0  0  0
 84 85  1  0  0  0  0
 85 86  1  0  0  0  0
 83 87  2  0  0  0  0
 87 88  1  0  0  0  0
 87 89  1  0  0  0  0
 89 90  2  0  0  0  0
 90 91  1  0  0  0  0
 91 92  2  0  0  0  0
 91 93  1  0  0  0  0
 93 94  2  0  0  0  0
 94 95  1  0  0  0  0
 95 96  2  0  0  0  0
 96 97  1  0  0  0  0
 96 98  1  0  0  0  0
 98 99  1  0  0  0  0
 98100  2  0  0  0  0
100101  1  0  0  0  0
 94102  1  0  0  0  0
102103  2  0  0  0  0
103104  1  0  0  0  0
104105  3  0  0  0  0
103106  1  0  0  0  0
106107  3  0  0  0  0
 14  2  1  0  0  0  0
 29 20  1  0  0  0  0
 76 34  1  0  0  0  0
 88 81  1  0  0  0  0
102 90  1  0  0  0  0
 12  5  1  0  0  0  0
 27 22  2  0  0  0  0
 43 36  1  0  0  0  0
 75 44  2  0  0  0  0
100 93  1  0  0  0  0
 33 25  1  0  0  0  0
 74 46  2  0  0  0  0
 72 47  2  0  0  0  0
 52 48  2  0  0  0  0
 71 53  2  0  0  0  0
 69 54  2  0  0  0  0
 68 56  2  0  0  0  0
 65 58  1  0  0  0  0
  1108  1  0  0  0  0
  7109  1  0  0  0  0
 21110  1  0  0  0  0
 28111  1  0  0  0  0
 29112  1  0  0  0  0
 30113  1  0  0  0  0
 31114  1  0  0  0  0
 33115  1  0  0  0  0
 37116  1  0  0  0  0
 38117  1  0  0  0  0
 39118  1  0  0  0  0
 41119  1  0  0  0  0
 41120  1  0  0  0  0
 42121  1  0  0  0  0
 42122  1  0  0  0  0
 42123  1  0  0  0  0
 43124  1  0  0  0  0
 59125  1  0  0  0  0
 60126  1  0  0  0  0
 61127  1  0  0  0  0
 63128  1  0  0  0  0
 63129  1  0  0  0  0
 64130  1  0  0  0  0
 64131  1  0  0  0  0
 64132  1  0  0  0  0
 65133  1  0  0  0  0
 77134  1  0  0  0  0
 77135  1  0  0  0  0
 78136  1  0  0  0  0
 78137  1  0  0  0  0
 78138  1  0  0  0  0
 79139  1  0  0  0  0
 79140  1  0  0  0  0
 80141  1  0  0  0  0
 80142  1  0  0  0  0
 80143  1  0  0  0  0
 82144  1  0  0  0  0
 85145  1  0  0  0  0
 85146  1  0  0  0  0
 86147  1  0  0  0  0
 86148  1  0  0  0  0
 86149  1  0  0  0  0
 89150  1  0  0  0  0
 95151  1  0  0  0  0
M  END
