151

C        -10.45880        3.05170        9.63830
C        -11.74620        2.60920        9.66300
C        -12.42950        1.86950        8.56750
O        -11.94970        1.38210        7.57370
C        -13.87260        1.92400        8.91240
C        -14.05400        2.59080       10.13650
C        -15.32420        2.76990       10.66020
C        -16.40160        2.27020        9.94390
F        -17.63410        2.43260       10.42730
C        -16.23890        1.60260        8.73070
F        -17.30180        1.13290        8.07470
C        -14.95630        1.42960        8.20660
F        -14.80380        0.79370        7.05030
C        -12.74480        2.98920       10.64820
C        -12.50590        3.54070       11.87730
C        -11.22520        3.82600       12.40170
N        -10.22400        4.06470       12.90900
C        -13.51400        3.86620       12.81090
N        -14.28880        4.15640       13.60560
C         -9.40750        2.66030        8.74150
C         -8.43810        3.62220        8.39140
C         -7.44880        3.27590        7.50720
C         -6.34640        4.10730        6.94830
O         -6.11150        5.27000        7.17160
C         -5.61860        3.18470        6.03590
C         -6.23320        1.91480        6.06670
C         -7.36250        1.96920        6.97780
C         -8.27250        1.00290        7.37000
C         -9.28640        1.35540        8.24360
C         -5.72550        0.88730        5.29290
C         -4.64310        1.15000        4.46940
C         -4.05300        2.41680        4.40060
C         -4.53510        3.44300        5.23340
C         -2.96990        2.65930        3.47690
C         -2.61730        3.83390        2.84330
C         -3.36130        5.09470        2.91310
C         -2.68920        6.29250        3.13410
C         -3.40230        7.47430        3.20880
C         -4.77830        7.47130        3.06230
C         -5.46180        6.28680        2.81640
C         -6.95770        6.26300        2.68760
C         -7.59620        5.67780        3.94880
C         -4.74110        5.10560        2.73510
C         -1.48350        3.65760        2.02300
S         -0.63070        4.73750        0.94680
C          0.38780        3.41910        0.47710
C          1.41580        3.14590       -0.43800
C          1.98980        3.95180       -1.44520
C          2.89510        3.34960       -2.37900
N          3.30250        4.19920       -3.30910
S          2.61160        5.63580       -3.02840
N          1.76210        5.22840       -1.71230
C          3.26970        2.00130       -2.19220
C          4.17140        1.19240       -2.89970
S          5.15480        1.26320       -4.32160
C          5.67890       -0.37130       -4.00130
C          6.53380       -1.23880       -4.69500
C          7.23610       -0.89240       -5.93710
C          8.62270       -0.78190       -5.95300
C          9.26950       -0.47760       -7.13510
C          8.54480       -0.29440       -8.29880
C          7.15950       -0.38680       -8.29340
C          6.37720       -0.25050       -9.56610
C          6.23590       -1.62150      -10.23000
C          6.51220       -0.67650       -7.10170
C          6.63610       -2.46720       -4.06330
S          5.68680       -2.53160       -2.57650
C          5.12490       -0.91890       -2.83750
C          4.25110       -0.02360       -2.21330
N          3.41390       -0.00820       -1.12870
C          2.77810        1.22450       -1.10460
C          1.75410        1.77110       -0.28630
N          0.92950        1.22810        0.68750
C          0.09630        2.21940        1.13020
C         -0.98310        2.35500        2.01350
S         -1.91000        1.32530        3.04470
C          0.61230       -0.15190        0.97540
C          0.06690       -0.87210       -0.25530
C          3.60580       -0.97380       -0.06900
C          4.16750       -0.32040        1.19090
C          7.29880       -3.63260       -4.51680
C          7.48070       -4.79560       -3.78240
C          8.10200       -5.80130       -4.50770
S          8.54550       -7.38240       -3.92580
C          7.72870       -7.48880       -2.29430
C          6.22710       -7.66370       -2.41290
C          8.39830       -5.42440       -5.84150
S          7.91210       -3.76450       -6.13180
C          8.95890       -6.29610       -6.76500
C          9.29940       -6.10250       -8.09150
C          9.19700       -4.84130       -8.81910
O          8.78340       -3.76980       -8.41780
C          9.71090       -5.12260      -10.18250
C         10.08620       -6.47440      -10.26950
C         10.59630       -6.98500      -11.45040
C         10.72250       -6.12680      -12.53420
F         11.21170       -6.60070      -13.68380
C         10.35570       -4.78590      -12.46300
F         10.49170       -3.99020      -13.52890
C          9.84360       -4.27740      -11.26760
F          9.49530       -2.99320      -11.20140
C          9.82920       -7.11160       -8.97350
C         10.04620       -8.44100       -8.70230
C          9.78040       -9.09410       -7.48060
N          9.59300       -9.71740       -6.53380
C         10.56320       -9.36460       -9.63370
N         10.98120      -10.16700      -10.34080
H        -10.18570        3.83260       10.33900
H        -15.51060        3.28070       11.59030
H         -8.49200        4.62590        8.78630
H         -8.20160       -0.00920        7.00280
H         -9.97900        0.59940        8.57440
H         -6.16800       -0.09690        5.31160
H         -4.25090        0.36100        3.84330
H         -4.06810        4.41450        5.24680
H         -1.61750        6.29090        3.26520
H         -2.88140        8.40290        3.38900
H         -5.32800        8.39830        3.13460
H         -7.33060        7.27640        2.53030
H         -7.24480        5.65630        1.82530
H         -7.29570        4.64020        4.08320
H         -7.28250        6.23730        4.82720
H         -8.68090        5.71610        3.87900
H         -5.25610        4.17760        2.52870
H          9.18260       -0.93750       -5.04200
H         10.34580       -0.39230       -7.14980
H          9.05880       -0.08180       -9.22430
H          6.89230        0.42790      -10.24840
H          5.38670        0.15860       -9.35580
H          5.69900       -2.30470       -9.57540
H          5.69510       -1.53770      -11.17000
H          7.21880       -2.04100      -10.42400
H          5.43450       -0.75890       -7.07930
H          1.47940       -0.66600        1.39110
H         -0.15490       -0.13800        1.75350
H          0.77540       -0.83490       -1.07920
H         -0.14150       -1.91140       -0.01560
H         -0.85680       -0.40000       -0.58160
H          2.67970       -1.51240        0.13660
H          4.32410       -1.70640       -0.44570
H          5.13460        0.12870        0.97650
H          3.50670        0.46090        1.55850
H          4.29730       -1.06710        1.96960
H          7.17170       -4.86950       -2.75520
H          8.18590       -8.36750       -1.83960
H          8.00470       -6.61000       -1.71380
H          5.99860       -8.55900       -2.98570
H          5.78960       -7.76360       -1.42150
H          5.76960       -6.81140       -2.91030
H          9.14340       -7.28600       -6.36360
H         10.89840       -8.01220      -11.56680
