
  xtb     02082210523D
 energy: -404.308966598124 gnorm: 0.000478044481 xtb: 6.4.1 (unknown)
222244  0     0  0            999 V2000
    6.2494  -10.0792   -1.7686 C   0  0  0  0  0  0  0  0  0  0  0  0
    5.8806  -11.2204   -2.4601 C   0  0  0  0  0  0  0  0  0  0  0  0
    4.5280  -11.5688   -2.8844 C   0  0  0  0  0  0  0  0  0  0  0  0
    3.4796  -11.0247   -2.5956 O   0  0  0  0  0  0  0  0  0  0  0  0
    4.6838  -12.7422   -3.7818 C   0  0  0  0  0  0  0  0  0  0  0  0
    6.0433  -13.0908   -3.8623 C   0  0  0  0  0  0  0  0  0  0  0  0
    6.4488  -14.1611   -4.6400 C   0  0  0  0  0  0  0  0  0  0  0  0
    5.4781  -14.8679   -5.3369 C   0  0  0  0  0  0  0  0  0  0  0  0
    5.8487  -15.9019   -6.0980 F   0  0  0  0  0  0  0  0  0  0  0  0
    4.1288  -14.5328   -5.2707 C   0  0  0  0  0  0  0  0  0  0  0  0
    3.2228  -15.2354   -5.9591 F   0  0  0  0  0  0  0  0  0  0  0  0
    3.7274  -13.4542   -4.4794 C   0  0  0  0  0  0  0  0  0  0  0  0
    2.4349  -13.1343   -4.4189 F   0  0  0  0  0  0  0  0  0  0  0  0
    6.8070  -12.1684   -3.0177 C   0  0  0  0  0  0  0  0  0  0  0  0
    8.1650  -12.2380   -2.8060 C   0  0  0  0  0  0  0  0  0  0  0  0
    8.8888  -11.4511   -1.8905 C   0  0  0  0  0  0  0  0  0  0  0  0
    9.5509  -10.8775   -1.1455 N   0  0  0  0  0  0  0  0  0  0  0  0
    9.0244  -13.1375   -3.4661 C   0  0  0  0  0  0  0  0  0  0  0  0
    9.7827  -13.8247   -3.9877 N   0  0  0  0  0  0  0  0  0  0  0  0
    5.4787   -9.0673   -1.2169 C   0  0  0  0  0  0  0  0  0  0  0  0
    6.0320   -7.8867   -0.6411 C   0  0  0  0  0  0  0  0  0  0  0  0
    7.3440   -7.5123   -0.6886 N   0  0  0  0  0  0  0  0  0  0  0  0
    8.1750   -7.7657   -1.7969 C   0  0  0  0  0  0  0  0  0  0  0  0
    9.5231   -8.0542   -1.6020 C   0  0  0  0  0  0  0  0  0  0  0  0
   10.3388   -8.3005   -2.6886 C   0  0  0  0  0  0  0  0  0  0  0  0
    9.8373   -8.2772   -3.9846 C   0  0  0  0  0  0  0  0  0  0  0  0
   10.7255   -8.5958   -5.1465 C   0  0  0  0  0  0  0  0  0  0  0  0
    8.4942   -7.9660   -4.1682 C   0  0  0  0  0  0  0  0  0  0  0  0
    7.6696   -7.7019   -3.0934 C   0  0  0  0  0  0  0  0  0  0  0  0
    7.8580   -6.7312    0.3672 C   0  0  0  0  0  0  0  0  0  0  0  0
    8.6419   -5.6129    0.1060 C   0  0  0  0  0  0  0  0  0  0  0  0
    9.1397   -4.8606    1.1519 C   0  0  0  0  0  0  0  0  0  0  0  0
    8.8710   -5.1997    2.4723 C   0  0  0  0  0  0  0  0  0  0  0  0
    9.3903   -4.3729    3.6068 C   0  0  0  0  0  0  0  0  0  0  0  0
    8.0924   -6.3251    2.7218 C   0  0  0  0  0  0  0  0  0  0  0  0
    7.5915   -7.0873    1.6869 C   0  0  0  0  0  0  0  0  0  0  0  0
    5.0309   -7.1213   -0.0248 C   0  0  0  0  0  0  0  0  0  0  0  0
    5.0180   -5.5864    0.7822 S   0  0  0  0  0  0  0  0  0  0  0  0
    3.2610   -5.6506    0.9166 C   0  0  0  0  0  0  0  0  0  0  0  0
    2.7367   -6.8523    0.4398 C   0  0  0  0  0  0  0  0  0  0  0  0
    1.4163   -7.2503    0.4762 N   0  0  0  0  0  0  0  0  0  0  0  0
    0.9750   -8.0346   -0.6160 C   0  0  0  0  0  0  0  0  0  0  0  0
    0.4145   -9.2925   -0.4206 C   0  0  0  0  0  0  0  0  0  0  0  0
    0.0553  -10.0599   -1.5091 C   0  0  0  0  0  0  0  0  0  0  0  0
    0.2467   -9.6014   -2.8083 C   0  0  0  0  0  0  0  0  0  0  0  0
   -0.0921  -10.4737   -3.9740 C   0  0  0  0  0  0  0  0  0  0  0  0
    0.7870   -8.3353   -2.9901 C   0  0  0  0  0  0  0  0  0  0  0  0
    1.1472   -7.5543   -1.9090 C   0  0  0  0  0  0  0  0  0  0  0  0
    0.6127   -7.1272    1.6112 C   0  0  0  0  0  0  0  0  0  0  0  0
    1.1574   -6.9590    2.8829 C   0  0  0  0  0  0  0  0  0  0  0  0
    0.3322   -6.8020    3.9795 C   0  0  0  0  0  0  0  0  0  0  0  0
   -1.0500   -6.8309    3.8509 C   0  0  0  0  0  0  0  0  0  0  0  0
   -1.9500   -6.6255    5.0289 C   0  0  0  0  0  0  0  0  0  0  0  0
   -1.5856   -7.0361    2.5840 C   0  0  0  0  0  0  0  0  0  0  0  0
   -0.7756   -7.1689    1.4773 C   0  0  0  0  0  0  0  0  0  0  0  0
    3.7534   -7.6570   -0.1332 C   0  0  0  0  0  0  0  0  0  0  0  0
    3.7215   -9.1279   -1.0352 S   0  0  0  0  0  0  0  0  0  0  0  0
    2.5990   -4.4731    1.3431 C   0  0  0  0  0  0  0  0  0  0  0  0
    3.2163   -3.2940    1.7199 C   0  0  0  0  0  0  0  0  0  0  0  0
    2.2957   -2.2674    1.9160 C   0  0  0  0  0  0  0  0  0  0  0  0
    2.4475   -0.5882    2.3443 S   0  0  0  0  0  0  0  0  0  0  0  0
    0.7118   -0.3894    2.2124 C   0  0  0  0  0  0  0  0  0  0  0  0
    0.0379    0.8039    2.4053 C   0  0  0  0  0  0  0  0  0  0  0  0
    0.6863    2.0586    2.7561 C   0  0  0  0  0  0  0  0  0  0  0  0
    1.8421    2.8443    1.7278 S   0  0  0  0  0  0  0  0  0  0  0  0
    1.9451    4.2197    2.7713 C   0  0  0  0  0  0  0  0  0  0  0  0
    2.7546    5.4166    2.4129 C   0  0  0  0  0  0  0  0  0  0  0  0
    1.8792    6.4635    1.7179 C   0  0  0  0  0  0  0  0  0  0  0  0
    1.1319    4.0592    3.8534 C   0  0  0  0  0  0  0  0  0  0  0  0
    0.9636    5.2230    5.0973 Cl  0  0  0  0  0  0  0  0  0  0  0  0
    0.4170    2.8341    3.8495 C   0  0  0  0  0  0  0  0  0  0  0  0
   -0.6528    2.3690    5.1053 Cl  0  0  0  0  0  0  0  0  0  0  0  0
   -1.3559    0.7850    2.2452 C   0  0  0  0  0  0  0  0  0  0  0  0
   -2.0372   -0.4293    1.9934 C   0  0  0  0  0  0  0  0  0  0  0  0
   -1.3623   -1.6269    1.8026 C   0  0  0  0  0  0  0  0  0  0  0  0
   -2.1072   -2.8414    1.4957 C   0  0  0  0  0  0  0  0  0  0  0  0
   -1.9973   -3.6297   -0.0470 S   0  0  0  0  0  0  0  0  0  0  0  0
   -3.2157   -4.7843    0.3698 C   0  0  0  0  0  0  0  0  0  0  0  0
   -3.6766   -5.8036   -0.6125 C   0  0  0  0  0  0  0  0  0  0  0  0
   -4.7877   -5.2417   -1.5029 C   0  0  0  0  0  0  0  0  0  0  0  0
   -3.6792   -4.5506    1.6296 C   0  0  0  0  0  0  0  0  0  0  0  0
   -3.0495   -3.4521    2.2719 C   0  0  0  0  0  0  0  0  0  0  0  0
   -3.4065   -2.9780    3.8787 Cl  0  0  0  0  0  0  0  0  0  0  0  0
   -4.9141   -5.4703    2.3855 Cl  0  0  0  0  0  0  0  0  0  0  0  0
    0.0374   -1.5956    1.8818 C   0  0  0  0  0  0  0  0  0  0  0  0
    0.9730   -2.6411    1.7025 C   0  0  0  0  0  0  0  0  0  0  0  0
    0.8571   -4.2995    1.2530 S   0  0  0  0  0  0  0  0  0  0  0  0
   -3.7678   -0.2106    1.8197 S   0  0  0  0  0  0  0  0  0  0  0  0
   -3.5738    1.5115    1.9502 C   0  0  0  0  0  0  0  0  0  0  0  0
   -4.4323    2.5946    1.7315 C   0  0  0  0  0  0  0  0  0  0  0  0
   -3.7512    3.7882    1.7554 C   0  0  0  0  0  0  0  0  0  0  0  0
   -2.0576    3.5831    2.1561 S   0  0  0  0  0  0  0  0  0  0  0  0
   -2.2563    1.8738    2.1911 C   0  0  0  0  0  0  0  0  0  0  0  0
   -4.2001    5.0762    1.3380 C   0  0  0  0  0  0  0  0  0  0  0  0
   -5.0168    5.3639    0.2488 C   0  0  0  0  0  0  0  0  0  0  0  0
   -5.5026    4.4327   -0.6500 N   0  0  0  0  0  0  0  0  0  0  0  0
   -6.7590    4.6355   -1.2405 C   0  0  0  0  0  0  0  0  0  0  0  0
   -7.7967    5.2028   -0.5058 C   0  0  0  0  0  0  0  0  0  0  0  0
   -9.0277    5.4173   -1.0942 C   0  0  0  0  0  0  0  0  0  0  0  0
   -9.2620    5.0631   -2.4164 C   0  0  0  0  0  0  0  0  0  0  0  0
  -10.5910    5.3151   -3.0590 C   0  0  0  0  0  0  0  0  0  0  0  0
   -8.2228    4.4862   -3.1384 C   0  0  0  0  0  0  0  0  0  0  0  0
   -6.9847    4.2768   -2.5668 C   0  0  0  0  0  0  0  0  0  0  0  0
   -4.7134    3.3238   -0.9986 C   0  0  0  0  0  0  0  0  0  0  0  0
   -5.2905    2.0677   -1.1665 C   0  0  0  0  0  0  0  0  0  0  0  0
   -4.4956    0.9611   -1.3937 C   0  0  0  0  0  0  0  0  0  0  0  0
   -3.1116    1.0688   -1.4496 C   0  0  0  0  0  0  0  0  0  0  0  0
   -2.2489   -0.1399   -1.6420 C   0  0  0  0  0  0  0  0  0  0  0  0
   -2.5462    2.3334   -1.3315 C   0  0  0  0  0  0  0  0  0  0  0  0
   -3.3308    3.4488   -1.1218 C   0  0  0  0  0  0  0  0  0  0  0  0
   -5.1817    6.7627    0.1119 C   0  0  0  0  0  0  0  0  0  0  0  0
   -6.0148    7.7501   -1.0297 S   0  0  0  0  0  0  0  0  0  0  0  0
   -5.3946    9.2183   -0.2475 C   0  0  0  0  0  0  0  0  0  0  0  0
   -4.4769    8.9117    0.7914 C   0  0  0  0  0  0  0  0  0  0  0  0
   -3.6277    9.7691    1.4099 N   0  0  0  0  0  0  0  0  0  0  0  0
   -3.2297   11.0012    0.8717 C   0  0  0  0  0  0  0  0  0  0  0  0
   -2.9650   11.1514   -0.4891 C   0  0  0  0  0  0  0  0  0  0  0  0
   -2.6087   12.3843   -0.9921 C   0  0  0  0  0  0  0  0  0  0  0  0
   -2.5041   13.5001   -0.1635 C   0  0  0  0  0  0  0  0  0  0  0  0
   -2.1717   14.8394   -0.7401 C   0  0  0  0  0  0  0  0  0  0  0  0
   -2.7193   13.3296    1.1975 C   0  0  0  0  0  0  0  0  0  0  0  0
   -3.0734   12.0978    1.7166 C   0  0  0  0  0  0  0  0  0  0  0  0
   -3.0287    9.3811    2.6359 C   0  0  0  0  0  0  0  0  0  0  0  0
   -3.8198    9.0297    3.7235 C   0  0  0  0  0  0  0  0  0  0  0  0
   -3.2201    8.6433    4.9060 C   0  0  0  0  0  0  0  0  0  0  0  0
   -1.8354    8.5970    5.0274 C   0  0  0  0  0  0  0  0  0  0  0  0
   -1.1957    8.1378    6.2993 C   0  0  0  0  0  0  0  0  0  0  0  0
   -1.0586    8.9696    3.9360 C   0  0  0  0  0  0  0  0  0  0  0  0
   -1.6434    9.3642    2.7486 C   0  0  0  0  0  0  0  0  0  0  0  0
   -4.4415    7.5164    1.0141 C   0  0  0  0  0  0  0  0  0  0  0  0
   -3.5442    6.5091    2.1003 S   0  0  0  0  0  0  0  0  0  0  0  0
   -5.8579   10.4316   -0.7339 C   0  0  0  0  0  0  0  0  0  0  0  0
   -5.8307   11.6438   -0.0570 C   0  0  0  0  0  0  0  0  0  0  0  0
   -5.8658   11.7495    1.4028 C   0  0  0  0  0  0  0  0  0  0  0  0
   -5.9015   10.8451    2.2134 O   0  0  0  0  0  0  0  0  0  0  0  0
   -5.9783   13.2066    1.6834 C   0  0  0  0  0  0  0  0  0  0  0  0
   -6.0149   13.9149    0.4703 C   0  0  0  0  0  0  0  0  0  0  0  0
   -6.1239   15.2927    0.4594 C   0  0  0  0  0  0  0  0  0  0  0  0
   -6.1854   15.9516    1.6802 C   0  0  0  0  0  0  0  0  0  0  0  0
   -6.2871   17.2854    1.6951 F   0  0  0  0  0  0  0  0  0  0  0  0
   -6.1383   15.2675    2.8902 C   0  0  0  0  0  0  0  0  0  0  0  0
   -6.1826   15.9382    4.0475 F   0  0  0  0  0  0  0  0  0  0  0  0
   -6.0379   13.8737    2.8904 C   0  0  0  0  0  0  0  0  0  0  0  0
   -5.9790   13.2248    4.0535 F   0  0  0  0  0  0  0  0  0  0  0  0
   -5.8943   12.9521   -0.6271 C   0  0  0  0  0  0  0  0  0  0  0  0
   -5.6946   13.2701   -1.9506 C   0  0  0  0  0  0  0  0  0  0  0  0
   -5.6429   14.5839   -2.4481 C   0  0  0  0  0  0  0  0  0  0  0  0
   -5.5708   15.6378   -2.9003 N   0  0  0  0  0  0  0  0  0  0  0  0
   -5.4242   12.3154   -2.9501 C   0  0  0  0  0  0  0  0  0  0  0  0
   -5.1627   11.5918   -3.8032 N   0  0  0  0  0  0  0  0  0  0  0  0
    7.3159   -9.9325   -1.6593 H   0  0  0  0  0  0  0  0  0  0  0  0
    7.4779  -14.4665   -4.7303 H   0  0  0  0  0  0  0  0  0  0  0  0
    9.9212   -8.0981   -0.6007 H   0  0  0  0  0  0  0  0  0  0  0  0
   11.3793   -8.5357   -2.5245 H   0  0  0  0  0  0  0  0  0  0  0  0
   10.9504   -9.6625   -5.1607 H   0  0  0  0  0  0  0  0  0  0  0  0
   10.2493   -8.3330   -6.0876 H   0  0  0  0  0  0  0  0  0  0  0  0
   11.6696   -8.0605   -5.0666 H   0  0  0  0  0  0  0  0  0  0  0  0
    8.0882   -7.9202   -5.1684 H   0  0  0  0  0  0  0  0  0  0  0  0
    6.6304   -7.4530   -3.2519 H   0  0  0  0  0  0  0  0  0  0  0  0
    8.8523   -5.3356   -0.9161 H   0  0  0  0  0  0  0  0  0  0  0  0
    9.7433   -3.9912    0.9365 H   0  0  0  0  0  0  0  0  0  0  0  0
    8.5813   -3.7833    4.0385 H   0  0  0  0  0  0  0  0  0  0  0  0
   10.1674   -3.6918    3.2704 H   0  0  0  0  0  0  0  0  0  0  0  0
    9.7936   -5.0084    4.3927 H   0  0  0  0  0  0  0  0  0  0  0  0
    7.8828   -6.6113    3.7420 H   0  0  0  0  0  0  0  0  0  0  0  0
    7.0008   -7.9681    1.8918 H   0  0  0  0  0  0  0  0  0  0  0  0
    0.2809   -9.6656    0.5841 H   0  0  0  0  0  0  0  0  0  0  0  0
   -0.3618  -11.0434   -1.3512 H   0  0  0  0  0  0  0  0  0  0  0  0
   -0.1499   -9.8967   -4.8936 H   0  0  0  0  0  0  0  0  0  0  0  0
   -1.0385  -10.9864   -3.8153 H   0  0  0  0  0  0  0  0  0  0  0  0
    0.6818  -11.2313   -4.0909 H   0  0  0  0  0  0  0  0  0  0  0  0
    0.9361   -7.9562   -3.9908 H   0  0  0  0  0  0  0  0  0  0  0  0
    1.5742   -6.5722   -2.0566 H   0  0  0  0  0  0  0  0  0  0  0  0
    2.2298   -6.9501    3.0126 H   0  0  0  0  0  0  0  0  0  0  0  0
    0.7753   -6.6608    4.9549 H   0  0  0  0  0  0  0  0  0  0  0  0
   -1.4135   -6.7703    5.9632 H   0  0  0  0  0  0  0  0  0  0  0  0
   -2.7936   -7.3119    4.9941 H   0  0  0  0  0  0  0  0  0  0  0  0
   -2.3484   -5.6105    5.0176 H   0  0  0  0  0  0  0  0  0  0  0  0
   -2.6567   -7.0855    2.4647 H   0  0  0  0  0  0  0  0  0  0  0  0
   -1.2099   -7.3038    0.4987 H   0  0  0  0  0  0  0  0  0  0  0  0
    4.2806   -3.1938    1.8285 H   0  0  0  0  0  0  0  0  0  0  0  0
    3.5704    5.1207    1.7522 H   0  0  0  0  0  0  0  0  0  0  0  0
    3.1781    5.8443    3.3241 H   0  0  0  0  0  0  0  0  0  0  0  0
    2.4700    7.3429    1.4759 H   0  0  0  0  0  0  0  0  0  0  0  0
    1.0577    6.7590    2.3661 H   0  0  0  0  0  0  0  0  0  0  0  0
    1.4639    6.0568    0.7991 H   0  0  0  0  0  0  0  0  0  0  0  0
   -2.8352   -6.1130   -1.2351 H   0  0  0  0  0  0  0  0  0  0  0  0
   -4.0504   -6.6733   -0.0689 H   0  0  0  0  0  0  0  0  0  0  0  0
   -5.6403   -4.9425   -0.8987 H   0  0  0  0  0  0  0  0  0  0  0  0
   -5.1122   -5.9956   -2.2148 H   0  0  0  0  0  0  0  0  0  0  0  0
   -4.4281   -4.3744   -2.0515 H   0  0  0  0  0  0  0  0  0  0  0  0
   -5.4876    2.5114    1.5548 H   0  0  0  0  0  0  0  0  0  0  0  0
   -7.6371    5.4671    0.5297 H   0  0  0  0  0  0  0  0  0  0  0  0
   -9.8217    5.8607   -0.5111 H   0  0  0  0  0  0  0  0  0  0  0  0
  -10.8367    4.5245   -3.7646 H   0  0  0  0  0  0  0  0  0  0  0  0
  -11.3784    5.3804   -2.3121 H   0  0  0  0  0  0  0  0  0  0  0  0
  -10.5654    6.2574   -3.6073 H   0  0  0  0  0  0  0  0  0  0  0  0
   -8.3839    4.2049   -4.1690 H   0  0  0  0  0  0  0  0  0  0  0  0
   -6.1836    3.8388   -3.1436 H   0  0  0  0  0  0  0  0  0  0  0  0
   -6.3629    1.9605   -1.0930 H   0  0  0  0  0  0  0  0  0  0  0  0
   -4.9581   -0.0096   -1.4976 H   0  0  0  0  0  0  0  0  0  0  0  0
   -1.3153   -0.0403   -1.0914 H   0  0  0  0  0  0  0  0  0  0  0  0
   -2.0034   -0.2641   -2.6970 H   0  0  0  0  0  0  0  0  0  0  0  0
   -2.7589   -1.0396   -1.3062 H   0  0  0  0  0  0  0  0  0  0  0  0
   -1.4731    2.4445   -1.3954 H   0  0  0  0  0  0  0  0  0  0  0  0
   -2.8716    4.4222   -1.0291 H   0  0  0  0  0  0  0  0  0  0  0  0
   -3.0413   10.3021   -1.1512 H   0  0  0  0  0  0  0  0  0  0  0  0
   -2.4147   12.4878   -2.0497 H   0  0  0  0  0  0  0  0  0  0  0  0
   -2.9695   15.1743   -1.4033 H   0  0  0  0  0  0  0  0  0  0  0  0
   -2.0412   15.5808    0.0435 H   0  0  0  0  0  0  0  0  0  0  0  0
   -1.2577   14.7851   -1.3291 H   0  0  0  0  0  0  0  0  0  0  0  0
   -2.6203   14.1742    1.8636 H   0  0  0  0  0  0  0  0  0  0  0  0
   -3.2476   11.9791    2.7756 H   0  0  0  0  0  0  0  0  0  0  0  0
   -4.8930    9.0904    3.6323 H   0  0  0  0  0  0  0  0  0  0  0  0
   -3.8375    8.3773    5.7511 H   0  0  0  0  0  0  0  0  0  0  0  0
   -1.0788    7.0539    6.2797 H   0  0  0  0  0  0  0  0  0  0  0  0
   -1.8102    8.3933    7.1591 H   0  0  0  0  0  0  0  0  0  0  0  0
   -0.2094    8.5785    6.4224 H   0  0  0  0  0  0  0  0  0  0  0  0
    0.0185    8.9482    4.0166 H   0  0  0  0  0  0  0  0  0  0  0  0
   -1.0346    9.6513    1.9033 H   0  0  0  0  0  0  0  0  0  0  0  0
   -6.3199   10.4028   -1.7132 H   0  0  0  0  0  0  0  0  0  0  0  0
   -6.1664   15.8720   -0.4479 H   0  0  0  0  0  0  0  0  0  0  0  0
  1  2  2  0  0  0  0
  2  3  1  0  0  0  0
  3  4  2  0  0  0  0
  3  5  1  0  0  0  0
  5  6  2  0  0  0  0
  6  7  1  0  0  0  0
  7  8  2  0  0  0  0
  8  9  1  0  0  0  0
  8 10  1  0  0  0  0
 10 11  1  0  0  0  0
 10 12  2  0  0  0  0
 12 13  1  0  0  0  0
  6 14  1  0  0  0  0
 14 15  2  0  0  0  0
 15 16  1  0  0  0  0
 16 17  3  0  0  0  0
 15 18  1  0  0  0  0
 18 19  3  0  0  0  0
  1 20  1  0  0  0  0
 20 21  2  0  0  0  0
 21 22  1  0  0  0  0
 22 23  1  0  0  0  0
 23 24  2  0  0  0  0
 24 25  1  0  0  0  0
 25 26  2  0  0  0  0
 26 27  1  0  0  0  0
 26 28  1  0  0  0  0
 28 29  2  0  0  0  0
 22 30  1  0  0  0  0
 30 31  2  0  0  0  0
 31 32  1  0  0  0  0
 32 33  2  0  0  0  0
 33 34  1  0  0  0  0
 33 35  1  0  0  0  0
 35 36  2  0  0  0  0
 21 37  1  0  0  0  0
 37 38  1  0  0  0  0
 38 39  1  0  0  0  0
 39 40  2  0  0  0  0
 40 41  1  0  0  0  0
 41 42  1  0  0  0  0
 42 43  2  0  0  0  0
 43 44  1  0  0  0  0
 44 45  2  0  0  0  0
 45 46  1  0  0  0  0
 45 47  1  0  0  0  0
 47 48  2  0  0  0  0
 41 49  1  0  0  0  0
 49 50  2  0  0  0  0
 50 51  1  0  0  0  0
 51 52  2  0  0  0  0
 52 53  1  0  0  0  0
 52 54  1  0  0  0  0
 54 55  2  0  0  0  0
 40 56  1  0  0  0  0
 56 57  1  0  0  0  0
 39 58  1  0  0  0  0
 58 59  2  0  0  0  0
 59 60  1  0  0  0  0
 60 61  1  0  0  0  0
 61 62  1  0  0  0  0
 62 63  2  0  0  0  0
 63 64  1  0  0  0  0
 64 65  1  0  0  0  0
 65 66  1  0  0  0  0
 66 67  1  0  0  0  0
 67 68  1  0  0  0  0
 66 69  2  0  0  0  0
 69 70  1  0  0  0  0
 69 71  1  0  0  0  0
 71 72  1  0  0  0  0
 63 73  1  0  0  0  0
 73 74  2  0  0  0  0
 74 75  1  0  0  0  0
 75 76  1  0  0  0  0
 76 77  1  0  0  0  0
 77 78  1  0  0  0  0
 78 79  1  0  0  0  0
 79 80  1  0  0  0  0
 78 81  2  0  0  0  0
 81 82  1  0  0  0  0
 82 83  1  0  0  0  0
 81 84  1  0  0  0  0
 75 85  2  0  0  0  0
 85 86  1  0  0  0  0
 86 87  1  0  0  0  0
 74 88  1  0  0  0  0
 88 89  1  0  0  0  0
 89 90  1  0  0  0  0
 90 91  2  0  0  0  0
 91 92  1  0  0  0  0
 92 93  1  0  0  0  0
 91 94  1  0  0  0  0
 94 95  2  0  0  0  0
 95 96  1  0  0  0  0
 96 97  1  0  0  0  0
 97 98  2  0  0  0  0
 98 99  1  0  0  0  0
 99100  2  0  0  0  0
100101  1  0  0  0  0
100102  1  0  0  0  0
102103  2  0  0  0  0
 96104  1  0  0  0  0
104105  2  0  0  0  0
105106  1  0  0  0  0
106107  2  0  0  0  0
107108  1  0  0  0  0
107109  1  0  0  0  0
109110  2  0  0  0  0
 95111  1  0  0  0  0
111112  1  0  0  0  0
112113  1  0  0  0  0
113114  2  0  0  0  0
114115  1  0  0  0  0
115116  1  0  0  0  0
116117  2  0  0  0  0
117118  1  0  0  0  0
118119  2  0  0  0  0
119120  1  0  0  0  0
119121  1  0  0  0  0
121122  2  0  0  0  0
115123  1  0  0  0  0
123124  2  0  0  0  0
124125  1  0  0  0  0
125126  2  0  0  0  0
126127  1  0  0  0  0
126128  1  0  0  0  0
128129  2  0  0  0  0
114130  1  0  0  0  0
130131  1  0  0  0  0
113132  1  0  0  0  0
132133  2  0  0  0  0
133134  1  0  0  0  0
134135  2  0  0  0  0
134136  1  0  0  0  0
136137  2  0  0  0  0
137138  1  0  0  0  0
138139  2  0  0  0  0
139140  1  0  0  0  0
139141  1  0  0  0  0
141142  1  0  0  0  0
141143  2  0  0  0  0
143144  1  0  0  0  0
137145  1  0  0  0  0
145146  2  0  0  0  0
146147  1  0  0  0  0
147148  3  0  0  0  0
146149  1  0  0  0  0
149150  3  0  0  0  0
 14  2  1  0  0  0  0
 57 20  1  0  0  0  0
 87 58  1  0  0  0  0
 93 89  2  0  0  0  0
131 94  1  0  0  0  0
145133  1  0  0  0  0
 12  5  1  0  0  0  0
 29 23  1  0  0  0  0
 36 30  1  0  0  0  0
 56 37  2  0  0  0  0
 86 60  2  0  0  0  0
103 97  1  0  0  0  0
110104  1  0  0  0  0
130111  2  0  0  0  0
143136  1  0  0  0  0
 48 42  1  0  0  0  0
 55 49  1  0  0  0  0
 85 62  1  0  0  0  0
122116  1  0  0  0  0
129123  1  0  0  0  0
 71 64  2  0  0  0  0
 93 73  1  0  0  0  0
 82 76  2  0  0  0  0
  1151  1  0  0  0  0
  7152  1  0  0  0  0
 24153  1  0  0  0  0
 25154  1  0  0  0  0
 27155  1  0  0  0  0
 27156  1  0  0  0  0
 27157  1  0  0  0  0
 28158  1  0  0  0  0
 29159  1  0  0  0  0
 31160  1  0  0  0  0
 32161  1  0  0  0  0
 34162  1  0  0  0  0
 34163  1  0  0  0  0
 34164  1  0  0  0  0
 35165  1  0  0  0  0
 36166  1  0  0  0  0
 43167  1  0  0  0  0
 44168  1  0  0  0  0
 46169  1  0  0  0  0
 46170  1  0  0  0  0
 46171  1  0  0  0  0
 47172  1  0  0  0  0
 48173  1  0  0  0  0
 50174  1  0  0  0  0
 51175  1  0  0  0  0
 53176  1  0  0  0  0
 53177  1  0  0  0  0
 53178  1  0  0  0  0
 54179  1  0  0  0  0
 55180  1  0  0  0  0
 59181  1  0  0  0  0
 67182  1  0  0  0  0
 67183  1  0  0  0  0
 68184  1  0  0  0  0
 68185  1  0  0  0  0
 68186  1  0  0  0  0
 79187  1  0  0  0  0
 79188  1  0  0  0  0
 80189  1  0  0  0  0
 80190  1  0  0  0  0
 80191  1  0  0  0  0
 90192  1  0  0  0  0
 98193  1  0  0  0  0
 99194  1  0  0  0  0
101195  1  0  0  0  0
101196  1  0  0  0  0
101197  1  0  0  0  0
102198  1  0  0  0  0
103199  1  0  0  0  0
105200  1  0  0  0  0
106201  1  0  0  0  0
108202  1  0  0  0  0
108203  1  0  0  0  0
108204  1  0  0  0  0
109205  1  0  0  0  0
110206  1  0  0  0  0
117207  1  0  0  0  0
118208  1  0  0  0  0
120209  1  0  0  0  0
120210  1  0  0  0  0
120211  1  0  0  0  0
121212  1  0  0  0  0
122213  1  0  0  0  0
124214  1  0  0  0  0
125215  1  0  0  0  0
127216  1  0  0  0  0
127217  1  0  0  0  0
127218  1  0  0  0  0
128219  1  0  0  0  0
129220  1  0  0  0  0
132221  1  0  0  0  0
138222  1  0  0  0  0
M  END
