
  xtb     02232221483D
 energy: -416.286958541374 gnorm: 0.000543453067 xtb: 6.4.1 (unknown)
233257  0     0  0            999 V2000
    1.3347   11.2259   -3.7573 C   0  0  0  0  0  0  0  0  0  0  0  0
    0.2383   11.4066   -4.5872 C   0  0  0  0  0  0  0  0  0  0  0  0
   -0.9631   10.5804   -4.6205 C   0  0  0  0  0  0  0  0  0  0  0  0
   -1.2071    9.5701   -3.9887 O   0  0  0  0  0  0  0  0  0  0  0  0
   -1.8775   11.2453   -5.5840 C   0  0  0  0  0  0  0  0  0  0  0  0
   -1.2653   12.4102   -6.0779 C   0  0  0  0  0  0  0  0  0  0  0  0
   -1.9281   13.2215   -6.9819 C   0  0  0  0  0  0  0  0  0  0  0  0
   -3.2041   12.8481   -7.3820 C   0  0  0  0  0  0  0  0  0  0  0  0
   -3.8641   13.6203   -8.2511 F   0  0  0  0  0  0  0  0  0  0  0  0
   -3.8185   11.6917   -6.9110 C   0  0  0  0  0  0  0  0  0  0  0  0
   -5.0454   11.3601   -7.3286 F   0  0  0  0  0  0  0  0  0  0  0  0
   -3.1429   10.8782   -5.9984 C   0  0  0  0  0  0  0  0  0  0  0  0
   -3.7290    9.7652   -5.5572 F   0  0  0  0  0  0  0  0  0  0  0  0
    0.0757   12.5090   -5.4937 C   0  0  0  0  0  0  0  0  0  0  0  0
    0.9991   13.4793   -5.8143 C   0  0  0  0  0  0  0  0  0  0  0  0
    0.7328   14.5795   -6.6518 C   0  0  0  0  0  0  0  0  0  0  0  0
    0.5759   15.5100   -7.3070 N   0  0  0  0  0  0  0  0  0  0  0  0
    2.3424   13.5012   -5.3959 C   0  0  0  0  0  0  0  0  0  0  0  0
    3.4611   13.5765   -5.1385 N   0  0  0  0  0  0  0  0  0  0  0  0
    1.6340   10.2115   -2.8647 C   0  0  0  0  0  0  0  0  0  0  0  0
    2.8408   10.1720   -2.1015 C   0  0  0  0  0  0  0  0  0  0  0  0
    3.6957   11.2129   -1.9123 N   0  0  0  0  0  0  0  0  0  0  0  0
    3.2839   12.5611   -1.8775 C   0  0  0  0  0  0  0  0  0  0  0  0
    4.1324   13.5463   -2.3744 C   0  0  0  0  0  0  0  0  0  0  0  0
    3.7450   14.8711   -2.3395 C   0  0  0  0  0  0  0  0  0  0  0  0
    2.5112   15.2452   -1.8205 C   0  0  0  0  0  0  0  0  0  0  0  0
    2.0870   16.6806   -1.8363 C   0  0  0  0  0  0  0  0  0  0  0  0
    1.6835   14.2548   -1.3028 C   0  0  0  0  0  0  0  0  0  0  0  0
    2.0625   12.9277   -1.3182 C   0  0  0  0  0  0  0  0  0  0  0  0
    5.0280   10.9366   -1.5261 C   0  0  0  0  0  0  0  0  0  0  0  0
    5.5577   11.5168   -0.3795 C   0  0  0  0  0  0  0  0  0  0  0  0
    6.8502   11.2221    0.0064 C   0  0  0  0  0  0  0  0  0  0  0  0
    7.6403   10.3540   -0.7377 C   0  0  0  0  0  0  0  0  0  0  0  0
    9.0272   10.0042   -0.2960 C   0  0  0  0  0  0  0  0  0  0  0  0
    7.1068    9.7982   -1.8954 C   0  0  0  0  0  0  0  0  0  0  0  0
    5.8153   10.0824   -2.2917 C   0  0  0  0  0  0  0  0  0  0  0  0
    3.0256    8.8988   -1.5397 C   0  0  0  0  0  0  0  0  0  0  0  0
    4.2664    8.1785   -0.5638 S   0  0  0  0  0  0  0  0  0  0  0  0
    3.3375    6.6963   -0.4437 C   0  0  0  0  0  0  0  0  0  0  0  0
    2.0919    6.7960   -1.0604 C   0  0  0  0  0  0  0  0  0  0  0  0
    1.0739    5.8625   -0.9945 N   0  0  0  0  0  0  0  0  0  0  0  0
    0.8337    5.0971    0.1516 C   0  0  0  0  0  0  0  0  0  0  0  0
    0.3074    3.8118    0.0235 C   0  0  0  0  0  0  0  0  0  0  0  0
    0.1592    3.0035    1.1334 C   0  0  0  0  0  0  0  0  0  0  0  0
    0.5309    3.4423    2.3982 C   0  0  0  0  0  0  0  0  0  0  0  0
    0.4237    2.5500    3.5965 C   0  0  0  0  0  0  0  0  0  0  0  0
    0.9943    4.7464    2.5260 C   0  0  0  0  0  0  0  0  0  0  0  0
    1.1396    5.5697    1.4276 C   0  0  0  0  0  0  0  0  0  0  0  0
    0.1555    5.8245   -2.0655 C   0  0  0  0  0  0  0  0  0  0  0  0
   -1.2141    5.8679   -1.8245 C   0  0  0  0  0  0  0  0  0  0  0  0
   -2.0970    5.9147   -2.8827 C   0  0  0  0  0  0  0  0  0  0  0  0
   -1.6446    5.9206   -4.1982 C   0  0  0  0  0  0  0  0  0  0  0  0
   -2.6166    6.0494   -5.3277 C   0  0  0  0  0  0  0  0  0  0  0  0
   -0.2781    5.8391   -4.4272 C   0  0  0  0  0  0  0  0  0  0  0  0
    0.6178    5.7879   -3.3763 C   0  0  0  0  0  0  0  0  0  0  0  0
    1.9512    8.0368   -1.7258 C   0  0  0  0  0  0  0  0  0  0  0  0
    0.6839    8.7317   -2.6687 S   0  0  0  0  0  0  0  0  0  0  0  0
    3.8160    5.5482    0.2620 C   0  0  0  0  0  0  0  0  0  0  0  0
    4.3045    5.4552    1.5508 C   0  0  0  0  0  0  0  0  0  0  0  0
    4.7461    6.5869    2.3692 C   0  0  0  0  0  0  0  0  0  0  0  0
    5.7485    7.4366    1.9103 C   0  0  0  0  0  0  0  0  0  0  0  0
    6.1625    8.4989    2.6918 C   0  0  0  0  0  0  0  0  0  0  0  0
    5.5945    8.7119    3.9350 C   0  0  0  0  0  0  0  0  0  0  0  0
    4.6151    7.8544    4.4219 C   0  0  0  0  0  0  0  0  0  0  0  0
    3.9796    8.0893    5.7620 C   0  0  0  0  0  0  0  0  0  0  0  0
    2.7084    8.9277    5.6134 C   0  0  0  0  0  0  0  0  0  0  0  0
    4.1980    6.7963    3.6291 C   0  0  0  0  0  0  0  0  0  0  0  0
    4.2662    4.1232    2.0117 C   0  0  0  0  0  0  0  0  0  0  0  0
    4.4893    3.4226    3.5962 S   0  0  0  0  0  0  0  0  0  0  0  0
    3.9524    1.8977    2.9732 C   0  0  0  0  0  0  0  0  0  0  0  0
    3.5535    0.6378    3.4500 C   0  0  0  0  0  0  0  0  0  0  0  0
    3.3727    0.1438    4.7615 C   0  0  0  0  0  0  0  0  0  0  0  0
    2.6551   -1.0884    4.9514 C   0  0  0  0  0  0  0  0  0  0  0  0
    2.4705   -1.3725    6.2307 N   0  0  0  0  0  0  0  0  0  0  0  0
    3.1462   -0.2016    7.1216 S   0  0  0  0  0  0  0  0  0  0  0  0
    3.6946    0.7206    5.9085 N   0  0  0  0  0  0  0  0  0  0  0  0
    2.2760   -1.8430    3.8192 C   0  0  0  0  0  0  0  0  0  0  0  0
    1.6188   -3.0784    3.6761 C   0  0  0  0  0  0  0  0  0  0  0  0
    0.8182   -4.2606    4.6555 S   0  0  0  0  0  0  0  0  0  0  0  0
    0.4503   -5.1726    3.2114 C   0  0  0  0  0  0  0  0  0  0  0  0
   -0.2592   -6.3674    2.9942 C   0  0  0  0  0  0  0  0  0  0  0  0
   -0.8119   -7.1893    4.0750 C   0  0  0  0  0  0  0  0  0  0  0  0
   -0.4820   -8.5383    4.1742 C   0  0  0  0  0  0  0  0  0  0  0  0
   -0.9798   -9.2912    5.2202 C   0  0  0  0  0  0  0  0  0  0  0  0
   -1.8150   -8.7132    6.1610 C   0  0  0  0  0  0  0  0  0  0  0  0
   -2.1632   -7.3718    6.0699 C   0  0  0  0  0  0  0  0  0  0  0  0
   -3.0421   -6.7349    7.1058 C   0  0  0  0  0  0  0  0  0  0  0  0
   -2.1939   -6.1857    8.2547 C   0  0  0  0  0  0  0  0  0  0  0  0
   -1.6424   -6.6154    5.0300 C   0  0  0  0  0  0  0  0  0  0  0  0
   -0.3105   -6.6789    1.6464 C   0  0  0  0  0  0  0  0  0  0  0  0
    0.5593   -5.5251    0.6485 S   0  0  0  0  0  0  0  0  0  0  0  0
    0.9537   -4.5893    2.0453 C   0  0  0  0  0  0  0  0  0  0  0  0
    1.6145   -3.3859    2.3123 C   0  0  0  0  0  0  0  0  0  0  0  0
    2.2277   -2.3855    1.5997 N   0  0  0  0  0  0  0  0  0  0  0  0
    2.6055   -1.4100    2.5071 C   0  0  0  0  0  0  0  0  0  0  0  0
    3.1063   -0.0995    2.3195 C   0  0  0  0  0  0  0  0  0  0  0  0
    3.1878    0.7081    1.2022 N   0  0  0  0  0  0  0  0  0  0  0  0
    3.6806    1.9198    1.6020 C   0  0  0  0  0  0  0  0  0  0  0  0
    3.8378    3.2001    1.0589 C   0  0  0  0  0  0  0  0  0  0  0  0
    3.4980    3.9682   -0.4479 S   0  0  0  0  0  0  0  0  0  0  0  0
    2.5519    0.5735   -0.0893 C   0  0  0  0  0  0  0  0  0  0  0  0
    3.5710    0.4984   -1.2254 C   0  0  0  0  0  0  0  0  0  0  0  0
    2.8539   -2.6898    0.3307 C   0  0  0  0  0  0  0  0  0  0  0  0
    3.8915   -3.8028    0.4768 C   0  0  0  0  0  0  0  0  0  0  0  0
   -1.0805   -7.7044    1.0269 C   0  0  0  0  0  0  0  0  0  0  0  0
   -2.2121   -8.2860    1.5262 C   0  0  0  0  0  0  0  0  0  0  0  0
   -2.7977   -9.2296    0.6554 C   0  0  0  0  0  0  0  0  0  0  0  0
   -3.9626   -9.9826    0.8749 C   0  0  0  0  0  0  0  0  0  0  0  0
   -4.6788   -9.8942    2.1531 C   0  0  0  0  0  0  0  0  0  0  0  0
   -3.9988  -10.0517    3.3600 C   0  0  0  0  0  0  0  0  0  0  0  0
   -4.6702   -9.9622    4.5590 C   0  0  0  0  0  0  0  0  0  0  0  0
   -6.0359   -9.6907    4.6083 C   0  0  0  0  0  0  0  0  0  0  0  0
   -6.7682   -9.5384    6.2092 S   0  0  0  0  0  0  0  0  0  0  0  0
   -8.4185  -10.3109    6.0268 C   0  0  0  0  0  0  0  0  0  0  0  0
   -8.3274  -11.7398    5.5315 C   0  0  0  0  0  0  0  0  0  0  0  0
   -6.6968   -9.5123    3.3963 C   0  0  0  0  0  0  0  0  0  0  0  0
   -8.0078   -9.1925    3.3635 F   0  0  0  0  0  0  0  0  0  0  0  0
   -6.0439   -9.6324    2.1862 C   0  0  0  0  0  0  0  0  0  0  0  0
   -4.3873  -10.7977   -0.1621 C   0  0  0  0  0  0  0  0  0  0  0  0
   -3.6654  -10.9212   -1.3830 C   0  0  0  0  0  0  0  0  0  0  0  0
   -2.4702  -10.1901   -1.5906 C   0  0  0  0  0  0  0  0  0  0  0  0
   -1.6831  -10.3446   -2.8165 C   0  0  0  0  0  0  0  0  0  0  0  0
   -1.2427   -9.2371   -3.5422 C   0  0  0  0  0  0  0  0  0  0  0  0
   -0.4886   -9.4011   -4.6808 C   0  0  0  0  0  0  0  0  0  0  0  0
   -0.1284  -10.6678   -5.1510 C   0  0  0  0  0  0  0  0  0  0  0  0
    0.8232  -10.6810   -6.6307 S   0  0  0  0  0  0  0  0  0  0  0  0
    1.4906  -12.3821   -6.8057 C   0  0  0  0  0  0  0  0  0  0  0  0
    2.5204  -12.3767   -7.9187 C   0  0  0  0  0  0  0  0  0  0  0  0
   -0.5807  -11.7627   -4.4190 C   0  0  0  0  0  0  0  0  0  0  0  0
   -1.3398  -11.6119   -3.2760 C   0  0  0  0  0  0  0  0  0  0  0  0
   -0.2951  -13.0311   -4.7933 F   0  0  0  0  0  0  0  0  0  0  0  0
   -2.0872   -9.3403   -0.5713 C   0  0  0  0  0  0  0  0  0  0  0  0
   -0.6833   -8.2991   -0.5740 S   0  0  0  0  0  0  0  0  0  0  0  0
   -4.3189  -11.7811   -2.2730 C   0  0  0  0  0  0  0  0  0  0  0  0
   -5.4866  -12.3400   -1.7714 C   0  0  0  0  0  0  0  0  0  0  0  0
   -5.8105  -11.7977   -0.1353 S   0  0  0  0  0  0  0  0  0  0  0  0
   -6.2778  -13.2026   -2.5486 C   0  0  0  0  0  0  0  0  0  0  0  0
   -7.4551  -13.8464   -2.2605 C   0  0  0  0  0  0  0  0  0  0  0  0
   -8.1707  -13.8002   -0.9765 C   0  0  0  0  0  0  0  0  0  0  0  0
   -7.8583  -13.2078    0.0333 O   0  0  0  0  0  0  0  0  0  0  0  0
   -9.3724  -14.6487   -1.1612 C   0  0  0  0  0  0  0  0  0  0  0  0
   -9.3823  -15.1743   -2.4652 C   0  0  0  0  0  0  0  0  0  0  0  0
  -10.4129  -16.0018   -2.8791 C   0  0  0  0  0  0  0  0  0  0  0  0
  -11.4237  -16.2905   -1.9735 C   0  0  0  0  0  0  0  0  0  0  0  0
  -12.4263  -17.0861   -2.3532 F   0  0  0  0  0  0  0  0  0  0  0  0
  -11.4273  -15.7773   -0.6784 C   0  0  0  0  0  0  0  0  0  0  0  0
  -12.4194  -16.0796    0.1633 F   0  0  0  0  0  0  0  0  0  0  0  0
  -10.3850  -14.9441   -0.2664 C   0  0  0  0  0  0  0  0  0  0  0  0
  -10.3895  -14.4558    0.9700 F   0  0  0  0  0  0  0  0  0  0  0  0
   -8.1958  -14.6906   -3.1741 C   0  0  0  0  0  0  0  0  0  0  0  0
   -7.8825  -14.9970   -4.4744 C   0  0  0  0  0  0  0  0  0  0  0  0
   -6.7532  -14.5390   -5.1856 C   0  0  0  0  0  0  0  0  0  0  0  0
   -5.8680  -14.2174   -5.8432 N   0  0  0  0  0  0  0  0  0  0  0  0
   -8.6635  -15.8291   -5.3044 C   0  0  0  0  0  0  0  0  0  0  0  0
   -9.2495  -16.4945   -6.0333 N   0  0  0  0  0  0  0  0  0  0  0  0
    2.0910   11.9969   -3.8228 H   0  0  0  0  0  0  0  0  0  0  0  0
   -1.5017   14.1248   -7.3851 H   0  0  0  0  0  0  0  0  0  0  0  0
    5.0840   13.2670   -2.7982 H   0  0  0  0  0  0  0  0  0  0  0  0
    4.4045   15.6250   -2.7413 H   0  0  0  0  0  0  0  0  0  0  0  0
    1.8596   16.9888   -2.8570 H   0  0  0  0  0  0  0  0  0  0  0  0
    1.2009   16.8344   -1.2259 H   0  0  0  0  0  0  0  0  0  0  0  0
    2.8856   17.3216   -1.4680 H   0  0  0  0  0  0  0  0  0  0  0  0
    0.7301   14.5258   -0.8730 H   0  0  0  0  0  0  0  0  0  0  0  0
    1.4121   12.1712   -0.9042 H   0  0  0  0  0  0  0  0  0  0  0  0
    4.9484   12.1867    0.2088 H   0  0  0  0  0  0  0  0  0  0  0  0
    7.2487   11.6714    0.9043 H   0  0  0  0  0  0  0  0  0  0  0  0
    9.4187   10.7504    0.3908 H   0  0  0  0  0  0  0  0  0  0  0  0
    9.0213    9.0407    0.2152 H   0  0  0  0  0  0  0  0  0  0  0  0
    9.6968    9.9235   -1.1494 H   0  0  0  0  0  0  0  0  0  0  0  0
    7.7124    9.1345   -2.4948 H   0  0  0  0  0  0  0  0  0  0  0  0
    5.4090    9.6500   -3.1941 H   0  0  0  0  0  0  0  0  0  0  0  0
    0.0405    3.4479   -0.9581 H   0  0  0  0  0  0  0  0  0  0  0  0
   -0.2399    2.0057    1.0140 H   0  0  0  0  0  0  0  0  0  0  0  0
   -0.4414    2.8269    4.1994 H   0  0  0  0  0  0  0  0  0  0  0  0
    1.3089    2.6408    4.2237 H   0  0  0  0  0  0  0  0  0  0  0  0
    0.3134    1.5090    3.2999 H   0  0  0  0  0  0  0  0  0  0  0  0
    1.2479    5.1214    3.5069 H   0  0  0  0  0  0  0  0  0  0  0  0
    1.4981    6.5808    1.5543 H   0  0  0  0  0  0  0  0  0  0  0  0
   -1.5744    5.8869   -0.8063 H   0  0  0  0  0  0  0  0  0  0  0  0
   -3.1576    5.9729   -2.6875 H   0  0  0  0  0  0  0  0  0  0  0  0
   -3.4763    5.3991   -5.1780 H   0  0  0  0  0  0  0  0  0  0  0  0
   -2.9795    7.0759   -5.3736 H   0  0  0  0  0  0  0  0  0  0  0  0
   -2.1492    5.8060   -6.2787 H   0  0  0  0  0  0  0  0  0  0  0  0
    0.0947    5.8264   -5.4413 H   0  0  0  0  0  0  0  0  0  0  0  0
    1.6811    5.7349   -3.5634 H   0  0  0  0  0  0  0  0  0  0  0  0
    6.2193    7.2459    0.9572 H   0  0  0  0  0  0  0  0  0  0  0  0
    6.9339    9.1605    2.3271 H   0  0  0  0  0  0  0  0  0  0  0  0
    5.9228    9.5437    4.5417 H   0  0  0  0  0  0  0  0  0  0  0  0
    3.7280    7.1317    6.2222 H   0  0  0  0  0  0  0  0  0  0  0  0
    4.6800    8.6100    6.4176 H   0  0  0  0  0  0  0  0  0  0  0  0
    2.9409    9.8923    5.1672 H   0  0  0  0  0  0  0  0  0  0  0  0
    2.2483    9.0960    6.5841 H   0  0  0  0  0  0  0  0  0  0  0  0
    1.9911    8.4193    4.9728 H   0  0  0  0  0  0  0  0  0  0  0  0
    3.4331    6.1253    3.9910 H   0  0  0  0  0  0  0  0  0  0  0  0
    0.1713   -8.9842    3.4385 H   0  0  0  0  0  0  0  0  0  0  0  0
   -0.7128  -10.3347    5.3046 H   0  0  0  0  0  0  0  0  0  0  0  0
   -2.1979   -9.3067    6.9787 H   0  0  0  0  0  0  0  0  0  0  0  0
   -3.6107   -5.9189    6.6560 H   0  0  0  0  0  0  0  0  0  0  0  0
   -3.7504   -7.4697    7.4935 H   0  0  0  0  0  0  0  0  0  0  0  0
   -1.6351   -6.9884    8.7303 H   0  0  0  0  0  0  0  0  0  0  0  0
   -1.4848   -5.4494    7.8825 H   0  0  0  0  0  0  0  0  0  0  0  0
   -2.8275   -5.7136    9.0015 H   0  0  0  0  0  0  0  0  0  0  0  0
   -1.8978   -5.5686    4.9493 H   0  0  0  0  0  0  0  0  0  0  0  0
    1.9288    1.4618   -0.2428 H   0  0  0  0  0  0  0  0  0  0  0  0
    1.8960   -0.2971   -0.0750 H   0  0  0  0  0  0  0  0  0  0  0  0
    4.1103    1.4386   -1.3028 H   0  0  0  0  0  0  0  0  0  0  0  0
    4.2989   -0.2943   -1.0660 H   0  0  0  0  0  0  0  0  0  0  0  0
    3.0578    0.3187   -2.1657 H   0  0  0  0  0  0  0  0  0  0  0  0
    3.3542   -1.8008   -0.0385 H   0  0  0  0  0  0  0  0  0  0  0  0
    2.0780   -2.9969   -0.3781 H   0  0  0  0  0  0  0  0  0  0  0  0
    4.3849   -3.9669   -0.4773 H   0  0  0  0  0  0  0  0  0  0  0  0
    4.6401   -3.5234    1.2154 H   0  0  0  0  0  0  0  0  0  0  0  0
    3.4262   -4.7339    0.7875 H   0  0  0  0  0  0  0  0  0  0  0  0
   -2.6384   -8.0137    2.4735 H   0  0  0  0  0  0  0  0  0  0  0  0
   -2.9423  -10.2721    3.3566 H   0  0  0  0  0  0  0  0  0  0  0  0
   -4.1413  -10.0977    5.4886 H   0  0  0  0  0  0  0  0  0  0  0  0
   -8.8233  -10.2690    7.0382 H   0  0  0  0  0  0  0  0  0  0  0  0
   -9.0289   -9.6906    5.3745 H   0  0  0  0  0  0  0  0  0  0  0  0
   -7.9261  -11.7793    4.5206 H   0  0  0  0  0  0  0  0  0  0  0  0
   -7.6861  -12.3306    6.1825 H   0  0  0  0  0  0  0  0  0  0  0  0
   -9.3201  -12.1847    5.5203 H   0  0  0  0  0  0  0  0  0  0  0  0
   -6.6071   -9.4815    1.2788 H   0  0  0  0  0  0  0  0  0  0  0  0
   -1.5116   -8.2432   -3.2206 H   0  0  0  0  0  0  0  0  0  0  0  0
   -0.1561   -8.5413   -5.2414 H   0  0  0  0  0  0  0  0  0  0  0  0
    0.6652  -13.0527   -7.0381 H   0  0  0  0  0  0  0  0  0  0  0  0
    1.9412  -12.6609   -5.8546 H   0  0  0  0  0  0  0  0  0  0  0  0
    3.3319  -11.6903   -7.6870 H   0  0  0  0  0  0  0  0  0  0  0  0
    2.0664  -12.0696   -8.8581 H   0  0  0  0  0  0  0  0  0  0  0  0
    2.9314  -13.3764   -8.0404 H   0  0  0  0  0  0  0  0  0  0  0  0
   -1.6367  -12.4987   -2.7375 H   0  0  0  0  0  0  0  0  0  0  0  0
   -3.9746  -11.9833   -3.2721 H   0  0  0  0  0  0  0  0  0  0  0  0
   -5.8708  -13.3630   -3.5397 H   0  0  0  0  0  0  0  0  0  0  0  0
  -10.4659  -16.4292   -3.8664 H   0  0  0  0  0  0  0  0  0  0  0  0
  1  2  2  0  0  0  0
  2  3  1  0  0  0  0
  3  4  2  0  0  0  0
  3  5  1  0  0  0  0
  5  6  2  0  0  0  0
  6  7  1  0  0  0  0
  7  8  2  0  0  0  0
  8  9  1  0  0  0  0
  8 10  1  0  0  0  0
 10 11  1  0  0  0  0
 10 12  2  0  0  0  0
 12 13  1  0  0  0  0
  6 14  1  0  0  0  0
 14 15  2  0  0  0  0
 15 16  1  0  0  0  0
 16 17  3  0  0  0  0
 15 18  1  0  0  0  0
 18 19  3  0  0  0  0
  1 20  1  0  0  0  0
 20 21  2  0  0  0  0
 21 22  1  0  0  0  0
 22 23  1  0  0  0  0
 23 24  2  0  0  0  0
 24 25  1  0  0  0  0
 25 26  2  0  0  0  0
 26 27  1  0  0  0  0
 26 28  1  0  0  0  0
 28 29  2  0  0  0  0
 22 30  1  0  0  0  0
 30 31  2  0  0  0  0
 31 32  1  0  0  0  0
 32 33  2  0  0  0  0
 33 34  1  0  0  0  0
 33 35  1  0  0  0  0
 35 36  2  0  0  0  0
 21 37  1  0  0  0  0
 37 38  1  0  0  0  0
 38 39  1  0  0  0  0
 39 40  2  0  0  0  0
 40 41  1  0  0  0  0
 41 42  1  0  0  0  0
 42 43  2  0  0  0  0
 43 44  1  0  0  0  0
 44 45  2  0  0  0  0
 45 46  1  0  0  0  0
 45 47  1  0  0  0  0
 47 48  2  0  0  0  0
 41 49  1  0  0  0  0
 49 50  2  0  0  0  0
 50 51  1  0  0  0  0
 51 52  2  0  0  0  0
 52 53  1  0  0  0  0
 52 54  1  0  0  0  0
 54 55  2  0  0  0  0
 40 56  1  0  0  0  0
 56 57  1  0  0  0  0
 39 58  1  0  0  0  0
 58 59  2  0  0  0  0
 59 60  1  0  0  0  0
 60 61  2  0  0  0  0
 61 62  1  0  0  0  0
 62 63  2  0  0  0  0
 63 64  1  0  0  0  0
 64 65  1  0  0  0  0
 65 66  1  0  0  0  0
 64 67  2  0  0  0  0
 59 68  1  0  0  0  0
 68 69  1  0  0  0  0
 69 70  1  0  0  0  0
 70 71  1  0  0  0  0
 71 72  1  0  0  0  0
 72 73  1  0  0  0  0
 73 74  2  0  0  0  0
 74 75  1  0  0  0  0
 75 76  1  0  0  0  0
 73 77  1  0  0  0  0
 77 78  1  0  0  0  0
 78 79  1  0  0  0  0
 79 80  1  0  0  0  0
 80 81  1  0  0  0  0
 81 82  1  0  0  0  0
 82 83  2  0  0  0  0
 83 84  1  0  0  0  0
 84 85  2  0  0  0  0
 85 86  1  0  0  0  0
 86 87  1  0  0  0  0
 87 88  1  0  0  0  0
 86 89  2  0  0  0  0
 81 90  2  0  0  0  0
 90 91  1  0  0  0  0
 91 92  1  0  0  0  0
 92 93  1  0  0  0  0
 93 94  1  0  0  0  0
 94 95  1  0  0  0  0
 95 96  1  0  0  0  0
 96 97  1  0  0  0  0
 97 98  1  0  0  0  0
 98 99  1  0  0  0  0
 99100  1  0  0  0  0
 97101  1  0  0  0  0
101102  1  0  0  0  0
 94103  1  0  0  0  0
103104  1  0  0  0  0
 90105  1  0  0  0  0
105106  2  0  0  0  0
106107  1  0  0  0  0
107108  2  0  0  0  0
108109  1  0  0  0  0
109110  2  0  0  0  0
110111  1  0  0  0  0
111112  2  0  0  0  0
112113  1  0  0  0  0
113114  1  0  0  0  0
114115  1  0  0  0  0
112116  1  0  0  0  0
116117  1  0  0  0  0
116118  2  0  0  0  0
108119  1  0  0  0  0
119120  2  0  0  0  0
120121  1  0  0  0  0
121122  1  0  0  0  0
122123  2  0  0  0  0
123124  1  0  0  0  0
124125  2  0  0  0  0
125126  1  0  0  0  0
126127  1  0  0  0  0
127128  1  0  0  0  0
125129  1  0  0  0  0
129130  2  0  0  0  0
129131  1  0  0  0  0
121132  2  0  0  0  0
132133  1  0  0  0  0
120134  1  0  0  0  0
134135  2  0  0  0  0
135136  1  0  0  0  0
135137  1  0  0  0  0
137138  2  0  0  0  0
138139  1  0  0  0  0
139140  2  0  0  0  0
139141  1  0  0  0  0
141142  2  0  0  0  0
142143  1  0  0  0  0
143144  2  0  0  0  0
144145  1  0  0  0  0
144146  1  0  0  0  0
146147  1  0  0  0  0
146148  2  0  0  0  0
148149  1  0  0  0  0
142150  1  0  0  0  0
150151  2  0  0  0  0
151152  1  0  0  0  0
152153  3  0  0  0  0
151154  1  0  0  0  0
154155  3  0  0  0  0
 14  2  1  0  0  0  0
 57 20  1  0  0  0  0
100 58  1  0  0  0  0
133105  1  0  0  0  0
150138  1  0  0  0  0
 12  5  1  0  0  0  0
 29 23  1  0  0  0  0
 36 30  1  0  0  0  0
 56 37  2  0  0  0  0
 67 60  1  0  0  0  0
 99 68  2  0  0  0  0
132107  1  0  0  0  0
148141  1  0  0  0  0
 48 42  1  0  0  0  0
 55 49  1  0  0  0  0
 98 70  2  0  0  0  0
118109  1  0  0  0  0
136119  1  0  0  0  0
 96 71  2  0  0  0  0
130122  1  0  0  0  0
 76 72  2  0  0  0  0
 95 77  2  0  0  0  0
 93 78  2  0  0  0  0
 92 80  2  0  0  0  0
 89 82  1  0  0  0  0
  1156  1  0  0  0  0
  7157  1  0  0  0  0
 24158  1  0  0  0  0
 25159  1  0  0  0  0
 27160  1  0  0  0  0
 27161  1  0  0  0  0
 27162  1  0  0  0  0
 28163  1  0  0  0  0
 29164  1  0  0  0  0
 31165  1  0  0  0  0
 32166  1  0  0  0  0
 34167  1  0  0  0  0
 34168  1  0  0  0  0
 34169  1  0  0  0  0
 35170  1  0  0  0  0
 36171  1  0  0  0  0
 43172  1  0  0  0  0
 44173  1  0  0  0  0
 46174  1  0  0  0  0
 46175  1  0  0  0  0
 46176  1  0  0  0  0
 47177  1  0  0  0  0
 48178  1  0  0  0  0
 50179  1  0  0  0  0
 51180  1  0  0  0  0
 53181  1  0  0  0  0
 53182  1  0  0  0  0
 53183  1  0  0  0  0
 54184  1  0  0  0  0
 55185  1  0  0  0  0
 61186  1  0  0  0  0
 62187  1  0  0  0  0
 63188  1  0  0  0  0
 65189  1  0  0  0  0
 65190  1  0  0  0  0
 66191  1  0  0  0  0
 66192  1  0  0  0  0
 66193  1  0  0  0  0
 67194  1  0  0  0  0
 83195  1  0  0  0  0
 84196  1  0  0  0  0
 85197  1  0  0  0  0
 87198  1  0  0  0  0
 87199  1  0  0  0  0
 88200  1  0  0  0  0
 88201  1  0  0  0  0
 88202  1  0  0  0  0
 89203  1  0  0  0  0
101204  1  0  0  0  0
101205  1  0  0  0  0
102206  1  0  0  0  0
102207  1  0  0  0  0
102208  1  0  0  0  0
103209  1  0  0  0  0
103210  1  0  0  0  0
104211  1  0  0  0  0
104212  1  0  0  0  0
104213  1  0  0  0  0
106214  1  0  0  0  0
110215  1  0  0  0  0
111216  1  0  0  0  0
114217  1  0  0  0  0
114218  1  0  0  0  0
115219  1  0  0  0  0
115220  1  0  0  0  0
115221  1  0  0  0  0
118222  1  0  0  0  0
123223  1  0  0  0  0
124224  1  0  0  0  0
127225  1  0  0  0  0
127226  1  0  0  0  0
128227  1  0  0  0  0
128228  1  0  0  0  0
128229  1  0  0  0  0
130230  1  0  0  0  0
134231  1  0  0  0  0
137232  1  0  0  0  0
143233  1  0  0  0  0
M  END
