
  xtb     02092202323D
 energy: -352.137796862084 gnorm: 0.000992187346 xtb: 6.4.1 (unknown)
203223  0     0  0            999 V2000
   -6.9530    5.5548   -5.2807 C   0  0  0  0  0  0  0  0  0  0  0  0
   -8.0782    4.8578   -5.6900 C   0  0  0  0  0  0  0  0  0  0  0  0
   -8.3709    3.4568   -5.4040 C   0  0  0  0  0  0  0  0  0  0  0  0
   -7.7688    2.6891   -4.6785 O   0  0  0  0  0  0  0  0  0  0  0  0
   -9.5698    3.1272   -6.2170 C   0  0  0  0  0  0  0  0  0  0  0  0
   -9.9790    4.2686   -6.9278 C   0  0  0  0  0  0  0  0  0  0  0  0
  -11.0829    4.2180   -7.7606 C   0  0  0  0  0  0  0  0  0  0  0  0
  -11.7628    3.0127   -7.8723 C   0  0  0  0  0  0  0  0  0  0  0  0
  -12.8295    2.9412   -8.6748 F   0  0  0  0  0  0  0  0  0  0  0  0
  -11.3689    1.8736   -7.1766 C   0  0  0  0  0  0  0  0  0  0  0  0
  -12.0492    0.7299   -7.3117 F   0  0  0  0  0  0  0  0  0  0  0  0
  -10.2551    1.9339   -6.3359 C   0  0  0  0  0  0  0  0  0  0  0  0
   -9.8785    0.8413   -5.6716 F   0  0  0  0  0  0  0  0  0  0  0  0
   -9.0725    5.3705   -6.5926 C   0  0  0  0  0  0  0  0  0  0  0  0
   -9.1985    6.6585   -7.0618 C   0  0  0  0  0  0  0  0  0  0  0  0
   -8.4166    7.7563   -6.6573 C   0  0  0  0  0  0  0  0  0  0  0  0
   -7.8526    8.7129   -6.3585 N   0  0  0  0  0  0  0  0  0  0  0  0
  -10.1569    7.0664   -8.0096 C   0  0  0  0  0  0  0  0  0  0  0  0
  -10.8947    7.4582   -8.7981 N   0  0  0  0  0  0  0  0  0  0  0  0
   -5.9297    5.1903   -4.4196 C   0  0  0  0  0  0  0  0  0  0  0  0
   -4.7923    6.0132   -4.1653 C   0  0  0  0  0  0  0  0  0  0  0  0
   -4.4483    7.1088   -4.9057 N   0  0  0  0  0  0  0  0  0  0  0  0
   -3.8273    8.2135   -4.2958 C   0  0  0  0  0  0  0  0  0  0  0  0
   -2.8105    8.8989   -4.9569 C   0  0  0  0  0  0  0  0  0  0  0  0
   -2.2857   10.0503   -4.4098 C   0  0  0  0  0  0  0  0  0  0  0  0
   -2.7499   10.5454   -3.1946 C   0  0  0  0  0  0  0  0  0  0  0  0
   -2.2215   11.8414   -2.6629 C   0  0  0  0  0  0  0  0  0  0  0  0
   -3.7255    9.8245   -2.5178 C   0  0  0  0  0  0  0  0  0  0  0  0
   -4.2637    8.6718   -3.0570 C   0  0  0  0  0  0  0  0  0  0  0  0
   -4.6615    7.1464   -6.2993 C   0  0  0  0  0  0  0  0  0  0  0  0
   -5.0467    8.3315   -6.9216 C   0  0  0  0  0  0  0  0  0  0  0  0
   -5.2660    8.3531   -8.2843 C   0  0  0  0  0  0  0  0  0  0  0  0
   -5.1158    7.2070   -9.0571 C   0  0  0  0  0  0  0  0  0  0  0  0
   -5.3894    7.2471  -10.5284 C   0  0  0  0  0  0  0  0  0  0  0  0
   -4.7070    6.0363   -8.4289 C   0  0  0  0  0  0  0  0  0  0  0  0
   -4.4723    6.0015   -7.0690 C   0  0  0  0  0  0  0  0  0  0  0  0
   -4.0371    5.5026   -3.0993 C   0  0  0  0  0  0  0  0  0  0  0  0
   -2.5759    5.9935   -2.3009 S   0  0  0  0  0  0  0  0  0  0  0  0
   -2.5725    4.5100   -1.3598 C   0  0  0  0  0  0  0  0  0  0  0  0
   -3.6922    3.7199   -1.6020 C   0  0  0  0  0  0  0  0  0  0  0  0
   -4.0067    2.5364   -0.9649 N   0  0  0  0  0  0  0  0  0  0  0  0
   -4.7511    1.5778   -1.6881 C   0  0  0  0  0  0  0  0  0  0  0  0
   -5.8848    1.0018   -1.1258 C   0  0  0  0  0  0  0  0  0  0  0  0
   -6.6413    0.1127   -1.8615 C   0  0  0  0  0  0  0  0  0  0  0  0
   -6.2923   -0.2219   -3.1652 C   0  0  0  0  0  0  0  0  0  0  0  0
   -7.1618   -1.1274   -3.9774 C   0  0  0  0  0  0  0  0  0  0  0  0
   -5.1391    0.3331   -3.7039 C   0  0  0  0  0  0  0  0  0  0  0  0
   -4.3700    1.2208   -2.9770 C   0  0  0  0  0  0  0  0  0  0  0  0
   -3.6609    2.2618    0.3632 C   0  0  0  0  0  0  0  0  0  0  0  0
   -3.3070    0.9621    0.7251 C   0  0  0  0  0  0  0  0  0  0  0  0
   -2.8870    0.6842    2.0105 C   0  0  0  0  0  0  0  0  0  0  0  0
   -2.8183    1.6818    2.9748 C   0  0  0  0  0  0  0  0  0  0  0  0
   -2.3072    1.4018    4.3545 C   0  0  0  0  0  0  0  0  0  0  0  0
   -3.2288    2.9617    2.6211 C   0  0  0  0  0  0  0  0  0  0  0  0
   -3.6420    3.2579    1.3373 C   0  0  0  0  0  0  0  0  0  0  0  0
   -4.5149    4.2943   -2.6013 C   0  0  0  0  0  0  0  0  0  0  0  0
   -5.9350    3.7433   -3.4100 S   0  0  0  0  0  0  0  0  0  0  0  0
   -1.5011    4.1294   -0.4856 C   0  0  0  0  0  0  0  0  0  0  0  0
   -1.0013    4.7422    0.6431 C   0  0  0  0  0  0  0  0  0  0  0  0
   -1.2548    6.1231    1.0580 C   0  0  0  0  0  0  0  0  0  0  0  0
   -1.6847    6.3998    2.3526 C   0  0  0  0  0  0  0  0  0  0  0  0
   -1.8768    7.7086    2.7497 C   0  0  0  0  0  0  0  0  0  0  0  0
   -1.6230    8.7484    1.8719 C   0  0  0  0  0  0  0  0  0  0  0  0
   -1.1738    8.4902    0.5837 C   0  0  0  0  0  0  0  0  0  0  0  0
   -0.8162    9.6086   -0.3494 C   0  0  0  0  0  0  0  0  0  0  0  0
    0.6821    9.9071   -0.2723 C   0  0  0  0  0  0  0  0  0  0  0  0
   -0.9974    7.1736    0.1861 C   0  0  0  0  0  0  0  0  0  0  0  0
   -0.2147    3.8487    1.4018 C   0  0  0  0  0  0  0  0  0  0  0  0
    0.5254    3.9865    2.9770 S   0  0  0  0  0  0  0  0  0  0  0  0
    1.0154    2.3298    2.8633 C   0  0  0  0  0  0  0  0  0  0  0  0
    1.6188    1.3420    3.6569 C   0  0  0  0  0  0  0  0  0  0  0  0
    2.0388    1.3766    5.0037 C   0  0  0  0  0  0  0  0  0  0  0  0
    2.5202    0.1702    5.6097 C   0  0  0  0  0  0  0  0  0  0  0  0
    2.8273    0.3318    6.8871 N   0  0  0  0  0  0  0  0  0  0  0  0
    2.5375    1.8729    7.2920 S   0  0  0  0  0  0  0  0  0  0  0  0
    2.0069    2.3922    5.8526 N   0  0  0  0  0  0  0  0  0  0  0  0
    2.6581   -0.9840    4.8088 C   0  0  0  0  0  0  0  0  0  0  0  0
    3.2387   -2.2281    5.0956 C   0  0  0  0  0  0  0  0  0  0  0  0
    3.9768   -3.0559    6.4242 S   0  0  0  0  0  0  0  0  0  0  0  0
    4.3277   -4.3971    5.3599 C   0  0  0  0  0  0  0  0  0  0  0  0
    5.0123   -5.6099    5.5574 C   0  0  0  0  0  0  0  0  0  0  0  0
    5.6652   -5.9658    6.8188 C   0  0  0  0  0  0  0  0  0  0  0  0
    6.9954   -6.3804    6.8361 C   0  0  0  0  0  0  0  0  0  0  0  0
    7.6052   -6.6784    8.0389 C   0  0  0  0  0  0  0  0  0  0  0  0
    6.9023   -6.5634    9.2264 C   0  0  0  0  0  0  0  0  0  0  0  0
    5.5812   -6.1343    9.2281 C   0  0  0  0  0  0  0  0  0  0  0  0
    4.8042   -6.0389   10.5091 C   0  0  0  0  0  0  0  0  0  0  0  0
    4.0988   -7.3640   10.8051 C   0  0  0  0  0  0  0  0  0  0  0  0
    4.9731   -5.8361    8.0175 C   0  0  0  0  0  0  0  0  0  0  0  0
    5.0669   -6.3471    4.3846 C   0  0  0  0  0  0  0  0  0  0  0  0
    4.3068   -5.5243    3.0318 S   0  0  0  0  0  0  0  0  0  0  0  0
    3.8834   -4.1944    4.0493 C   0  0  0  0  0  0  0  0  0  0  0  0
    3.2482   -2.9561    3.9032 C   0  0  0  0  0  0  0  0  0  0  0  0
    2.6758   -2.2190    2.9026 N   0  0  0  0  0  0  0  0  0  0  0  0
    2.2877   -1.0019    3.4321 C   0  0  0  0  0  0  0  0  0  0  0  0
    1.6590    0.1484    2.8794 C   0  0  0  0  0  0  0  0  0  0  0  0
    1.0415    0.4080    1.6676 N   0  0  0  0  0  0  0  0  0  0  0  0
    0.6578    1.7203    1.6600 C   0  0  0  0  0  0  0  0  0  0  0  0
   -0.0627    2.5878    0.8291 C   0  0  0  0  0  0  0  0  0  0  0  0
   -0.8794    2.4907   -0.6860 S   0  0  0  0  0  0  0  0  0  0  0  0
    0.5361   -0.4721    0.6395 C   0  0  0  0  0  0  0  0  0  0  0  0
    1.2844   -0.3052   -0.6827 C   0  0  0  0  0  0  0  0  0  0  0  0
    2.7611   -2.6930    1.5416 C   0  0  0  0  0  0  0  0  0  0  0  0
    1.7413   -3.7946    1.2527 C   0  0  0  0  0  0  0  0  0  0  0  0
    5.6206   -7.6382    4.1767 C   0  0  0  0  0  0  0  0  0  0  0  0
    5.8456   -8.6370    5.1010 C   0  0  0  0  0  0  0  0  0  0  0  0
    6.4537   -9.7647    4.5517 C   0  0  0  0  0  0  0  0  0  0  0  0
    6.8802  -11.1760    5.5143 S   0  0  0  0  0  0  0  0  0  0  0  0
    8.7082  -11.1644    5.3493 C   0  0  0  0  0  0  0  0  0  0  0  0
    9.3137   -9.9590    6.0376 C   0  0  0  0  0  0  0  0  0  0  0  0
    6.7086   -9.6643    3.1869 C   0  0  0  0  0  0  0  0  0  0  0  0
    6.1497   -8.1190    2.5916 S   0  0  0  0  0  0  0  0  0  0  0  0
    7.2163  -10.6786    2.3536 C   0  0  0  0  0  0  0  0  0  0  0  0
    7.7257  -10.5695    1.0926 C   0  0  0  0  0  0  0  0  0  0  0  0
    7.7556  -11.7510    0.1937 C   0  0  0  0  0  0  0  0  0  0  0  0
    7.6132  -12.9096    0.5072 O   0  0  0  0  0  0  0  0  0  0  0  0
    7.9630  -11.1902   -1.1629 C   0  0  0  0  0  0  0  0  0  0  0  0
    7.9525  -11.8492   -2.3751 C   0  0  0  0  0  0  0  0  0  0  0  0
    8.1667  -11.0882   -3.5211 C   0  0  0  0  0  0  0  0  0  0  0  0
    8.2381  -11.6411   -4.7846 O   0  0  0  0  0  0  0  0  0  0  0  0
    7.4065  -12.6364   -5.1719 C   0  0  0  0  0  0  0  0  0  0  0  0
    6.5028  -13.0573   -4.5090 O   0  0  0  0  0  0  0  0  0  0  0  0
    7.7863  -13.1063   -6.5476 C   0  0  0  0  0  0  0  0  0  0  0  0
    8.3847   -9.7140   -3.4387 C   0  0  0  0  0  0  0  0  0  0  0  0
    8.4026   -9.0619   -2.2174 C   0  0  0  0  0  0  0  0  0  0  0  0
    8.1904   -9.8057   -1.0671 C   0  0  0  0  0  0  0  0  0  0  0  0
    8.1967   -9.4276    0.3436 C   0  0  0  0  0  0  0  0  0  0  0  0
    8.8069   -8.3128    0.8618 C   0  0  0  0  0  0  0  0  0  0  0  0
    9.3155   -7.2586    0.0793 C   0  0  0  0  0  0  0  0  0  0  0  0
    9.7269   -6.3633   -0.5103 N   0  0  0  0  0  0  0  0  0  0  0  0
    9.0756   -8.1486    2.2349 C   0  0  0  0  0  0  0  0  0  0  0  0
    9.3654   -8.0118    3.3379 N   0  0  0  0  0  0  0  0  0  0  0  0
   -6.8445    6.5435   -5.7069 H   0  0  0  0  0  0  0  0  0  0  0  0
  -11.4350    5.0659   -8.3239 H   0  0  0  0  0  0  0  0  0  0  0  0
   -2.4491    8.5310   -5.9055 H   0  0  0  0  0  0  0  0  0  0  0  0
   -1.5087   10.5833   -4.9378 H   0  0  0  0  0  0  0  0  0  0  0  0
   -2.6110   12.0454   -1.6696 H   0  0  0  0  0  0  0  0  0  0  0  0
   -2.5161   12.6583   -3.3214 H   0  0  0  0  0  0  0  0  0  0  0  0
   -1.1340   11.8271   -2.6207 H   0  0  0  0  0  0  0  0  0  0  0  0
   -4.0886   10.1791   -1.5646 H   0  0  0  0  0  0  0  0  0  0  0  0
   -5.0485    8.1428   -2.5369 H   0  0  0  0  0  0  0  0  0  0  0  0
   -5.1907    9.2239   -6.3338 H   0  0  0  0  0  0  0  0  0  0  0  0
   -5.5788    9.2736   -8.7533 H   0  0  0  0  0  0  0  0  0  0  0  0
   -6.4179    7.5559  -10.7119 H   0  0  0  0  0  0  0  0  0  0  0  0
   -4.7361    7.9688  -11.0169 H   0  0  0  0  0  0  0  0  0  0  0  0
   -5.2323    6.2723  -10.9826 H   0  0  0  0  0  0  0  0  0  0  0  0
   -4.5627    5.1385   -9.0122 H   0  0  0  0  0  0  0  0  0  0  0  0
   -4.1495    5.0853   -6.5966 H   0  0  0  0  0  0  0  0  0  0  0  0
   -6.1723    1.2689   -0.1192 H   0  0  0  0  0  0  0  0  0  0  0  0
   -7.5314   -0.3148   -1.4238 H   0  0  0  0  0  0  0  0  0  0  0  0
   -7.6423   -1.8755   -3.3511 H   0  0  0  0  0  0  0  0  0  0  0  0
   -6.5900   -1.6272   -4.7556 H   0  0  0  0  0  0  0  0  0  0  0  0
   -7.9429   -0.5368   -4.4558 H   0  0  0  0  0  0  0  0  0  0  0  0
   -4.8428    0.0747   -4.7100 H   0  0  0  0  0  0  0  0  0  0  0  0
   -3.4756    1.6517   -3.4049 H   0  0  0  0  0  0  0  0  0  0  0  0
   -3.3430    0.1803   -0.0199 H   0  0  0  0  0  0  0  0  0  0  0  0
   -2.5983   -0.3257    2.2672 H   0  0  0  0  0  0  0  0  0  0  0  0
   -2.1795    0.3337    4.5146 H   0  0  0  0  0  0  0  0  0  0  0  0
   -2.9936    1.7899    5.1052 H   0  0  0  0  0  0  0  0  0  0  0  0
   -1.3425    1.8881    4.5052 H   0  0  0  0  0  0  0  0  0  0  0  0
   -3.2246    3.7410    3.3690 H   0  0  0  0  0  0  0  0  0  0  0  0
   -3.9515    4.2617    1.0849 H   0  0  0  0  0  0  0  0  0  0  0  0
   -1.8706    5.5888    3.0386 H   0  0  0  0  0  0  0  0  0  0  0  0
   -2.2181    7.9201    3.7523 H   0  0  0  0  0  0  0  0  0  0  0  0
   -1.7651    9.7705    2.1927 H   0  0  0  0  0  0  0  0  0  0  0  0
   -1.0795    9.3311   -1.3718 H   0  0  0  0  0  0  0  0  0  0  0  0
   -1.3744   10.5060   -0.0791 H   0  0  0  0  0  0  0  0  0  0  0  0
    1.2584    9.0273   -0.5488 H   0  0  0  0  0  0  0  0  0  0  0  0
    0.9447   10.7196   -0.9459 H   0  0  0  0  0  0  0  0  0  0  0  0
    0.9600   10.1925    0.7399 H   0  0  0  0  0  0  0  0  0  0  0  0
   -0.6234    6.9627   -0.8057 H   0  0  0  0  0  0  0  0  0  0  0  0
    7.5485   -6.4532    5.9116 H   0  0  0  0  0  0  0  0  0  0  0  0
    8.6369   -6.9968    8.0497 H   0  0  0  0  0  0  0  0  0  0  0  0
    7.3867   -6.7993   10.1629 H   0  0  0  0  0  0  0  0  0  0  0  0
    5.4783   -5.7979   11.3332 H   0  0  0  0  0  0  0  0  0  0  0  0
    4.0608   -5.2435   10.4308 H   0  0  0  0  0  0  0  0  0  0  0  0
    3.4115   -7.6155   10.0003 H   0  0  0  0  0  0  0  0  0  0  0  0
    3.5363   -7.2963   11.7332 H   0  0  0  0  0  0  0  0  0  0  0  0
    4.8255   -8.1681   10.8973 H   0  0  0  0  0  0  0  0  0  0  0  0
    3.9437   -5.5079    8.0030 H   0  0  0  0  0  0  0  0  0  0  0  0
    0.5719   -1.4978    0.9960 H   0  0  0  0  0  0  0  0  0  0  0  0
   -0.5159   -0.2107    0.4763 H   0  0  0  0  0  0  0  0  0  0  0  0
    0.9410   -1.0510   -1.3940 H   0  0  0  0  0  0  0  0  0  0  0  0
    2.3598   -0.4098   -0.5547 H   0  0  0  0  0  0  0  0  0  0  0  0
    1.0922    0.6799   -1.0987 H   0  0  0  0  0  0  0  0  0  0  0  0
    3.7662   -3.1059    1.3992 H   0  0  0  0  0  0  0  0  0  0  0  0
    2.6499   -1.8529    0.8624 H   0  0  0  0  0  0  0  0  0  0  0  0
    1.9748   -4.6833    1.8326 H   0  0  0  0  0  0  0  0  0  0  0  0
    0.7309   -3.4836    1.5096 H   0  0  0  0  0  0  0  0  0  0  0  0
    1.7717   -4.0552    0.1986 H   0  0  0  0  0  0  0  0  0  0  0  0
    5.5816   -8.5583    6.1388 H   0  0  0  0  0  0  0  0  0  0  0  0
    8.9608  -11.1938    4.2909 H   0  0  0  0  0  0  0  0  0  0  0  0
    9.0175  -12.0956    5.8230 H   0  0  0  0  0  0  0  0  0  0  0  0
    8.9691   -9.8952    7.0677 H   0  0  0  0  0  0  0  0  0  0  0  0
   10.3984  -10.0439    6.0339 H   0  0  0  0  0  0  0  0  0  0  0  0
    9.0416   -9.0448    5.5153 H   0  0  0  0  0  0  0  0  0  0  0  0
    7.1020  -11.6914    2.7324 H   0  0  0  0  0  0  0  0  0  0  0  0
    7.7825  -12.9129   -2.4184 H   0  0  0  0  0  0  0  0  0  0  0  0
    8.0438  -12.2587   -7.1761 H   0  0  0  0  0  0  0  0  0  0  0  0
    8.6608  -13.7496   -6.4664 H   0  0  0  0  0  0  0  0  0  0  0  0
    6.9667  -13.6717   -6.9797 H   0  0  0  0  0  0  0  0  0  0  0  0
    8.5445   -9.1641   -4.3530 H   0  0  0  0  0  0  0  0  0  0  0  0
    8.5658   -7.9970   -2.1784 H   0  0  0  0  0  0  0  0  0  0  0  0
  1  2  2  0  0  0  0
  2  3  1  0  0  0  0
  3  4  2  0  0  0  0
  3  5  1  0  0  0  0
  5  6  2  0  0  0  0
  6  7  1  0  0  0  0
  7  8  2  0  0  0  0
  8  9  1  0  0  0  0
  8 10  1  0  0  0  0
 10 11  1  0  0  0  0
 10 12  2  0  0  0  0
 12 13  1  0  0  0  0
  6 14  1  0  0  0  0
 14 15  2  0  0  0  0
 15 16  1  0  0  0  0
 16 17  3  0  0  0  0
 15 18  1  0  0  0  0
 18 19  3  0  0  0  0
  1 20  1  0  0  0  0
 20 21  2  0  0  0  0
 21 22  1  0  0  0  0
 22 23  1  0  0  0  0
 23 24  2  0  0  0  0
 24 25  1  0  0  0  0
 25 26  2  0  0  0  0
 26 27  1  0  0  0  0
 26 28  1  0  0  0  0
 28 29  2  0  0  0  0
 22 30  1  0  0  0  0
 30 31  2  0  0  0  0
 31 32  1  0  0  0  0
 32 33  2  0  0  0  0
 33 34  1  0  0  0  0
 33 35  1  0  0  0  0
 35 36  2  0  0  0  0
 21 37  1  0  0  0  0
 37 38  1  0  0  0  0
 38 39  1  0  0  0  0
 39 40  2  0  0  0  0
 40 41  1  0  0  0  0
 41 42  1  0  0  0  0
 42 43  2  0  0  0  0
 43 44  1  0  0  0  0
 44 45  2  0  0  0  0
 45 46  1  0  0  0  0
 45 47  1  0  0  0  0
 47 48  2  0  0  0  0
 41 49  1  0  0  0  0
 49 50  2  0  0  0  0
 50 51  1  0  0  0  0
 51 52  2  0  0  0  0
 52 53  1  0  0  0  0
 52 54  1  0  0  0  0
 54 55  2  0  0  0  0
 40 56  1  0  0  0  0
 56 57  1  0  0  0  0
 39 58  1  0  0  0  0
 58 59  2  0  0  0  0
 59 60  1  0  0  0  0
 60 61  2  0  0  0  0
 61 62  1  0  0  0  0
 62 63  2  0  0  0  0
 63 64  1  0  0  0  0
 64 65  1  0  0  0  0
 65 66  1  0  0  0  0
 64 67  2  0  0  0  0
 59 68  1  0  0  0  0
 68 69  1  0  0  0  0
 69 70  1  0  0  0  0
 70 71  1  0  0  0  0
 71 72  1  0  0  0  0
 72 73  1  0  0  0  0
 73 74  2  0  0  0  0
 74 75  1  0  0  0  0
 75 76  1  0  0  0  0
 73 77  1  0  0  0  0
 77 78  1  0  0  0  0
 78 79  1  0  0  0  0
 79 80  1  0  0  0  0
 80 81  1  0  0  0  0
 81 82  1  0  0  0  0
 82 83  2  0  0  0  0
 83 84  1  0  0  0  0
 84 85  2  0  0  0  0
 85 86  1  0  0  0  0
 86 87  1  0  0  0  0
 87 88  1  0  0  0  0
 86 89  2  0  0  0  0
 81 90  2  0  0  0  0
 90 91  1  0  0  0  0
 91 92  1  0  0  0  0
 92 93  1  0  0  0  0
 93 94  1  0  0  0  0
 94 95  1  0  0  0  0
 95 96  1  0  0  0  0
 96 97  1  0  0  0  0
 97 98  1  0  0  0  0
 98 99  1  0  0  0  0
 99100  1  0  0  0  0
 97101  1  0  0  0  0
101102  1  0  0  0  0
 94103  1  0  0  0  0
103104  1  0  0  0  0
 90105  1  0  0  0  0
105106  2  0  0  0  0
106107  1  0  0  0  0
107108  1  0  0  0  0
108109  1  0  0  0  0
109110  1  0  0  0  0
107111  2  0  0  0  0
111112  1  0  0  0  0
111113  1  0  0  0  0
113114  2  0  0  0  0
114115  1  0  0  0  0
115116  2  0  0  0  0
115117  1  0  0  0  0
117118  2  0  0  0  0
118119  1  0  0  0  0
119120  1  0  0  0  0
120121  1  0  0  0  0
121122  2  0  0  0  0
121123  1  0  0  0  0
119124  2  0  0  0  0
124125  1  0  0  0  0
125126  2  0  0  0  0
126127  1  0  0  0  0
127128  2  0  0  0  0
128129  1  0  0  0  0
129130  3  0  0  0  0
128131  1  0  0  0  0
131132  3  0  0  0  0
 14  2  1  0  0  0  0
 57 20  1  0  0  0  0
100 58  1  0  0  0  0
112105  1  0  0  0  0
127114  1  0  0  0  0
 12  5  1  0  0  0  0
 29 23  1  0  0  0  0
 36 30  1  0  0  0  0
 56 37  2  0  0  0  0
 67 60  1  0  0  0  0
 99 68  2  0  0  0  0
126117  1  0  0  0  0
 48 42  1  0  0  0  0
 55 49  1  0  0  0  0
 98 70  2  0  0  0  0
 96 71  2  0  0  0  0
 76 72  2  0  0  0  0
 95 77  2  0  0  0  0
 93 78  2  0  0  0  0
 92 80  2  0  0  0  0
 89 82  1  0  0  0  0
  1133  1  0  0  0  0
  7134  1  0  0  0  0
 24135  1  0  0  0  0
 25136  1  0  0  0  0
 27137  1  0  0  0  0
 27138  1  0  0  0  0
 27139  1  0  0  0  0
 28140  1  0  0  0  0
 29141  1  0  0  0  0
 31142  1  0  0  0  0
 32143  1  0  0  0  0
 34144  1  0  0  0  0
 34145  1  0  0  0  0
 34146  1  0  0  0  0
 35147  1  0  0  0  0
 36148  1  0  0  0  0
 43149  1  0  0  0  0
 44150  1  0  0  0  0
 46151  1  0  0  0  0
 46152  1  0  0  0  0
 46153  1  0  0  0  0
 47154  1  0  0  0  0
 48155  1  0  0  0  0
 50156  1  0  0  0  0
 51157  1  0  0  0  0
 53158  1  0  0  0  0
 53159  1  0  0  0  0
 53160  1  0  0  0  0
 54161  1  0  0  0  0
 55162  1  0  0  0  0
 61163  1  0  0  0  0
 62164  1  0  0  0  0
 63165  1  0  0  0  0
 65166  1  0  0  0  0
 65167  1  0  0  0  0
 66168  1  0  0  0  0
 66169  1  0  0  0  0
 66170  1  0  0  0  0
 67171  1  0  0  0  0
 83172  1  0  0  0  0
 84173  1  0  0  0  0
 85174  1  0  0  0  0
 87175  1  0  0  0  0
 87176  1  0  0  0  0
 88177  1  0  0  0  0
 88178  1  0  0  0  0
 88179  1  0  0  0  0
 89180  1  0  0  0  0
101181  1  0  0  0  0
101182  1  0  0  0  0
102183  1  0  0  0  0
102184  1  0  0  0  0
102185  1  0  0  0  0
103186  1  0  0  0  0
103187  1  0  0  0  0
104188  1  0  0  0  0
104189  1  0  0  0  0
104190  1  0  0  0  0
106191  1  0  0  0  0
109192  1  0  0  0  0
109193  1  0  0  0  0
110194  1  0  0  0  0
110195  1  0  0  0  0
110196  1  0  0  0  0
113197  1  0  0  0  0
118198  1  0  0  0  0
123199  1  0  0  0  0
123200  1  0  0  0  0
123201  1  0  0  0  0
124202  1  0  0  0  0
125203  1  0  0  0  0
M  END
