249

C          0.41930       -2.71300       12.09620
C          0.66970       -1.80500       13.11250
C          1.77180       -0.84900       13.15680
O          2.58550       -0.58850       12.29190
C          1.72730       -0.25320       14.51630
C          0.65220       -0.80660       15.23290
C          0.39720       -0.40790       16.53310
C          1.23360        0.54400       17.10040
F          1.00730        0.94050       18.35690
C          2.30290        1.09950       16.40400
F          3.08640        2.01410       16.98640
C          2.55230        0.69420       15.09100
F          3.57730        1.22640       14.42600
C         -0.03770       -1.76380       14.36290
C         -1.17330       -2.46100       14.70850
C         -1.76500       -2.42730       15.98590
N         -2.28500       -2.46230       17.00970
C         -1.92370       -3.27940       13.84380
N         -2.61250       -3.94040       13.20240
C          1.01060       -2.85460       10.85080
C          0.68830       -3.90510        9.94060
N         -0.05570       -5.00840       10.23810
C         -0.05770       -5.61230       11.51180
C          1.11040       -5.69090       12.26570
C          1.08470       -6.27380       13.51680
C         -0.08900       -6.80720       14.03730
C         -0.12790       -7.41850       15.40330
C         -1.23980       -6.75710       13.25920
C         -1.23360       -6.16490       12.01220
C         -0.76940       -5.65080        9.20480
C         -1.54370       -4.90350        8.32160
C         -2.24160       -5.53500        7.31230
C         -2.19260       -6.91660        7.16210
C         -2.93620       -7.58610        6.04880
C         -1.42660       -7.65330        8.05760
C         -0.71990       -7.03400        9.06930
C          1.26510       -3.66350        8.68330
S          1.25980       -4.50740        7.16470
C          2.35150       -3.31330        6.48760
C          2.64380       -2.28080        7.37010
N          3.36690       -1.14520        7.05990
C          3.27240       -0.55020        5.79560
C          2.07660       -0.56020        5.08260
C          2.02340       -0.04790        3.80000
C          3.14720        0.49720        3.19650
C          3.10610        1.00670        1.78790
C          4.32050        0.56870        3.94070
C          4.38520        0.06290        5.22190
C          4.11290       -0.52340        8.07920
C          4.09430        0.85990        8.22510
C          4.78320        1.45410        9.26330
C          5.49830        0.69430       10.18120
C          6.17760        1.33720       11.34850
C          5.53250       -0.68350       10.00980
C          4.85330       -1.29080        8.97280
C          2.04220       -2.51080        8.63050
S          2.12210       -1.67950       10.13690
C          2.85180       -3.39550        5.14700
C          4.17040       -3.21600        4.77890
C          5.27910       -3.29340        5.72810
C          5.25070       -4.22670        6.76270
C          6.29410       -4.28990        7.66630
C          7.36120       -3.41480        7.56290
C          7.41180       -2.48520        6.53170
C          8.53830       -1.49630        6.45390
C          8.26680       -0.31260        7.38550
C          6.37760       -2.44860        5.60960
C          4.28180       -2.98230        3.39220
S          5.62740       -2.58080        2.35730
C          4.53100       -2.39560        1.03110
C          4.54760       -1.99690       -0.31920
C          5.58210       -1.74330       -1.24840
C          5.24280       -1.45520       -2.62000
N          6.31470       -1.31410       -3.38300
S          7.63330       -1.51470       -2.46610
N          6.89030       -1.79080       -1.05430
C          3.88540       -1.27050       -2.97050
C          3.24640       -0.78720       -4.12780
S          3.64770       -0.29300       -5.73950
C          1.98540        0.19170       -5.97660
C          1.31850        0.79710       -7.04940
C          1.96720        1.06960       -8.34120
C          2.86410        2.12050       -8.48440
C          3.48270        2.32700       -9.70270
C          3.21360        1.49440      -10.77440
C          2.33220        0.43050      -10.64160
C          2.00700       -0.46760      -11.79960
C          0.63060       -0.12270      -12.37020
C          1.71780        0.22480       -9.41560
C         -0.00920        1.06050       -6.74380
S         -0.44410        0.48670       -5.13670
C          1.17380       -0.04200       -4.86190
C          1.89510       -0.60940       -3.80830
N          1.65670       -0.99940       -2.51250
C          2.86740       -1.42650       -1.99570
C          3.19130       -1.96000       -0.73130
N          2.38200       -2.40270        0.29820
C          3.19970       -2.65520        1.37080
C          3.06120       -3.00970        2.71780
S          1.75200       -3.39040        3.77680
C          1.10270       -3.06680        0.15860
C          1.25190       -4.58400        0.26540
C          0.58820       -0.37240       -1.75980
C          0.79710        1.13840       -1.66110
C         -0.97060        1.72390       -7.54650
C         -2.27420        2.08140       -7.20440
N         -2.90650        1.85710       -5.97990
C         -2.47730        2.50800       -4.82320
C         -1.62970        3.61330       -4.89150
C         -1.18300        4.22250       -3.73680
C         -1.57010        3.76430       -2.48300
C         -1.08240        4.44890       -1.24220
C         -2.41290        2.66160       -2.42160
C         -2.85540        2.03300       -3.56740
C         -4.18500        1.26800       -6.06880
C         -4.35770        0.16180       -6.89560
C         -5.59550       -0.44060       -7.00480
C         -6.68840        0.03360       -6.29080
C         -8.02460       -0.63180       -6.38150
C         -6.51220        1.15780       -5.49020
C         -5.28310        1.77650       -5.38130
C         -2.93210        2.69960       -8.28300
S         -4.52950        3.31430       -8.47490
C         -4.15460        3.81440      -10.12950
C         -2.82970        3.47790      -10.49530
N         -2.29690        3.69240      -11.73120
C         -3.10970        3.68050      -12.88970
C         -2.93590        4.65170      -13.87040
C         -3.73470        4.64340      -14.99630
C         -4.71800        3.67570      -15.17050
C         -5.60320        3.70360      -16.37690
C         -4.86920        2.70190      -14.19030
C         -4.07300        2.69230      -13.06200
C         -0.91580        3.89860      -11.89050
C         -0.25550        3.38910      -13.00560
C          1.08800        3.64520      -13.19190
C          1.80990        4.40420      -12.27770
C          3.25000        4.72970      -12.52250
C          1.14610        4.89590      -11.16090
C         -0.20000        4.65770      -10.96800
C         -2.15720        2.85720       -9.42460
S         -0.56580        2.20720       -9.18900
C         -5.03270        4.60950      -10.86180
C         -6.35740        4.88560      -10.60530
C         -6.95170        6.12700      -11.13290
O         -6.47370        6.87970      -11.95010
C         -8.24680        6.26450      -10.40960
C         -8.45190        5.12980       -9.60320
C         -9.56690        5.02780       -8.79220
C        -10.47590        6.07690       -8.80030
F        -11.55460        6.00910       -8.01260
C        -10.29780        7.20070       -9.60110
F        -11.20010        8.18830       -9.58610
C         -9.16760        7.29500      -10.41830
F         -9.00510        8.37480      -11.17940
C         -7.34310        4.19710       -9.82630
C         -7.39470        2.84390       -9.57550
C         -8.44040        2.21630       -8.87980
N         -9.27080        1.65940       -8.31290
C         -6.47110        1.92700      -10.11330
N         -5.78320        1.14350      -10.59640
H         -0.35630       -3.43740       12.30690
H         -0.41460       -0.80190       17.12150
H          2.03110       -5.28590       11.87200
H          1.99600       -6.32120       14.09520
H         -0.51200       -8.43630       15.35500
H         -0.79130       -6.84570       16.05080
H          0.86170       -7.43880       15.85220
H         -2.16020       -7.16940       13.64330
H         -2.13920       -6.11300       11.42900
H         -1.60150       -3.83130        8.43980
H         -2.84050       -4.94680        6.63270
H         -2.38300       -7.47670        5.11560
H         -3.06260       -8.64730        6.24690
H         -3.91550       -7.13270        5.91100
H         -1.37700       -8.72780        7.95950
H         -0.12340       -7.61600        9.75590
H          1.18830       -0.97820        5.53390
H          1.08820       -0.08280        3.25880
H          3.27300        2.08340        1.76690
H          3.88750        0.53750        1.19060
H          2.14260        0.79680        1.32930
H          5.20080        1.01360        3.49950
H          5.30130        0.12200        5.78860
H          3.52500        1.46180        7.53160
H          4.74710        2.52820        9.37460
H          7.08850        0.80480       11.61310
H          5.51000        1.31170       12.21020
H          6.42070        2.37590       11.13830
H          6.09120       -1.29300       10.70480
H          4.89010       -2.36260        8.84890
H          4.42130       -4.91380        6.84360
H          6.27200       -5.02310        8.45980
H          8.16540       -3.45760        8.28290
H          9.47420       -1.97590        6.74810
H          8.64580       -1.13600        5.42920
H          8.15960       -0.65210        8.41300
H          7.34500        0.19300        7.10640
H          9.08300        0.40430        7.33760
H          6.41640       -1.74330        4.79360
H          3.07010        2.76700       -7.64430
H          4.18640        3.13830       -9.81410
H          3.70300        1.66320      -11.72200
H          2.01010       -1.50900      -11.46990
H          2.76180       -0.35540      -12.57990
H          0.39880       -0.76150      -13.21910
H          0.61010        0.91520      -12.69330
H         -0.13960       -0.25610      -11.61440
H          1.03660       -0.60480       -9.28780
H          0.68720       -2.82900       -0.82000
H          0.42940       -2.70780        0.94450
H          1.61090       -4.87130        1.24960
H          0.28790       -5.05650        0.09840
H          1.95370       -4.94560       -0.48310
H         -0.35980       -0.58280       -2.26390
H          0.56570       -0.78650       -0.75420
H          0.02830        1.57120       -1.02830
H          1.77320        1.35410       -1.23110
H          0.73240        1.60580       -2.63960
H         -1.32430        3.99600       -5.85470
H         -0.52720        5.07830       -3.80980
H         -1.47620        3.96770       -0.35040
H         -1.39550        5.49220       -1.23700
H          0.00620        4.42970       -1.19780
H         -2.72570        2.28090       -1.45950
H         -3.49160        1.16370       -3.49930
H         -3.51380       -0.22680       -7.44730
H         -5.71040       -1.29890       -7.65040
H         -8.45930       -0.75600       -5.39160
H         -8.70610       -0.01660       -6.96970
H         -7.94340       -1.60520       -6.85820
H         -7.35690        1.55810       -4.94850
H         -5.16890        2.65680       -4.76600
H         -2.18390        5.41580      -13.73840
H         -3.60060        5.40790      -15.74700
H         -6.37560        4.46240      -16.24930
H         -6.09060        2.74350      -16.52580
H         -5.03400        3.95540      -17.26930
H         -5.61810        1.93310      -14.30960
H         -4.20820        1.93000      -12.30960
H         -0.80540        2.80150      -13.72600
H          1.58510        3.25050      -14.06630
H          3.76890        4.92640      -11.58830
H          3.32520        5.62310      -13.14390
H          3.75070        3.91860      -13.04540
H          1.68510        5.49200      -10.43960
H         -0.70800        5.08320      -10.11520
H         -4.60410        5.18680      -11.67380
H         -9.75030        4.18030       -8.15280
