262

C          5.60090       -3.03880       -9.63720
C          4.97200       -2.12240      -10.47000
C          3.53440       -1.91130      -10.58210
O          2.63650       -2.47110       -9.98070
C          3.36310       -0.87520      -11.63300
C          4.62380       -0.51720      -12.14070
C          4.73320        0.43060      -13.14260
C          3.56760        1.01210      -13.62300
F          3.65120        1.93000      -14.59200
C          2.31330        0.67490      -13.12450
F          1.21280        1.26530      -13.60520
C          2.21140       -0.28420      -12.11410
F          1.00850       -0.59590      -11.63050
C          5.64640       -1.27160      -11.40890
C          7.00420       -1.12330      -11.59160
C          8.00720       -1.71010      -10.79900
N          8.89250       -2.11000      -10.18280
C          7.58550       -0.32010      -12.59110
N          8.12580        0.29950      -13.39380
C          5.08780       -3.83450       -8.62920
C          5.90840       -4.64490       -7.78220
N          7.20040       -4.99410       -8.04300
C          8.06710       -5.28540       -6.96960
C          8.12970       -4.43570       -5.86920
C          8.97090       -4.73110       -4.81500
C          9.77280       -5.86540       -4.83330
C         10.70760       -6.16220       -3.70330
C          9.71470       -6.69790       -5.94510
C          8.87410       -6.41810       -7.00350
C          7.66530       -5.22330       -9.35380
C          6.83860       -5.80710      -10.31020
C          7.30560       -6.01280      -11.59270
C          8.60300       -5.66300      -11.94940
C          9.10490       -5.86010      -13.34610
C          9.43070       -5.11450      -10.97650
C          8.97430       -4.89080       -9.69300
C          5.20160       -5.02910       -6.63560
S          5.61620       -5.89600       -5.18560
C          3.97480       -5.69980       -4.57970
C          3.13510       -5.09840       -5.52020
N          1.77120       -4.91470       -5.37350
C          1.21920       -3.77340       -5.99720
C          1.77720       -2.52480       -5.74890
C          1.30690       -1.41060       -6.41740
C          0.27320       -1.51390       -7.33790
C         -0.20620       -0.32580       -8.10990
C         -0.29870       -2.76350       -7.55420
C          0.16420       -3.88400       -6.89720
C          0.93310       -5.94130       -4.92840
C         -0.30330       -5.62440       -4.36700
C         -1.13040       -6.62210       -3.89120
C         -0.75360       -7.95740       -3.95020
C         -1.64280       -9.04470       -3.42910
C          0.47770       -8.26710       -4.51790
C          1.31020       -7.28090       -5.00510
C          3.85580       -4.67380       -6.65580
S          3.41050       -3.79110       -8.07060
C          3.67880       -5.94440       -3.21580
C          4.47450       -6.54910       -2.24920
C          5.66280       -7.34820       -2.54440
C          6.84590       -7.14270       -1.84160
C          7.96110       -7.90180       -2.13840
C          7.90920       -8.86350       -3.13200
C          6.72990       -9.09890       -3.82690
C          6.66930      -10.11520       -4.93040
C          6.91350       -9.43760       -6.27980
C          5.61210       -8.34020       -3.51970
C          3.98160       -6.31040       -0.95440
S          4.56270       -6.72420        0.64460
C          3.22100       -5.86910        1.33610
C          2.76160       -5.42790        2.59010
C          3.35160       -5.43820        3.87540
C          2.79500       -4.60510        4.91120
N          3.51890       -4.62910        6.01860
S          4.77880       -5.62130        5.79160
N          4.45770       -6.05140        4.26360
C          1.59000       -3.90980        4.66550
C          0.81620       -3.01480        5.43100
S          0.92300       -2.08660        6.89270
C         -0.51510       -1.20420        6.42830
C         -1.11530       -0.01360        6.90620
C         -0.68650        0.68150        8.11910
C          0.66780        0.82370        8.40950
C          1.06220        1.45900        9.57080
C          0.11650        1.93970       10.45900
C         -1.23890        1.78970       10.19470
C         -2.26660        2.23570       11.19250
C         -2.52350        1.13030       12.21820
C         -1.62890        1.16320        9.02130
C         -2.10370        0.41950        6.04830
S         -2.41200       -0.72720        4.74120
C         -1.07690       -1.68540        5.25000
C         -0.31450       -2.70480        4.67380
N         -0.28210       -3.36580        3.47560
C          0.91040       -4.06300        3.42800
C          1.57210       -4.68840        2.34610
N          1.34310       -4.64410        0.98540
C          2.34950       -5.34350        0.37680
C          2.79540       -5.57360       -0.92750
S          2.28500       -5.12900       -2.51210
C          0.49770       -3.76330        0.21060
C         -0.57200       -4.52480       -0.57140
C         -1.50340       -3.65450        2.75710
C         -2.54500       -4.30140        3.66940
C         -2.69030        1.71590        5.83660
C         -2.55330        2.38930        4.63040
N         -1.77040        1.99660        3.55520
C         -2.29330        2.19100        2.26320
C         -1.48350        2.66420        1.23620
C         -2.01210        2.86850       -0.02340
C         -3.35250        2.61900       -0.28970
C         -3.93770        2.86850       -1.64530
C         -4.15270        2.14000        0.74160
C         -3.63420        1.92030        2.00120
C         -0.52020        1.38630        3.71240
C          0.32860        1.73430        4.76020
C          1.54550        1.09830        4.90710
C          1.94960        0.09350        4.03570
C          3.25510       -0.61230        4.23820
C          1.10470       -0.23660        2.98390
C         -0.10910        0.39890        2.81690
C         -3.34430        3.56100        4.61050
S         -3.67650        4.72830        3.39080
C         -4.80960        5.55740        4.46520
C         -4.95420        4.89070        5.70000
N         -5.91920        5.13650        6.63610
C         -7.16200        5.68770        6.28890
C         -7.76280        6.63700        7.11260
C         -8.96380        7.21700        6.74700
C         -9.59860        6.86840        5.56330
C        -10.87490        7.52400        5.13870
C         -9.01510        5.88320        4.76900
C         -7.81770        5.29860        5.12110
C         -5.68420        4.83650        7.99160
C         -6.69580        4.26070        8.75600
C         -6.49790        4.03400       10.10200
C         -5.29650        4.37170       10.71740
C         -5.12550        4.15880       12.19050
C         -4.28580        4.92090        9.93850
C         -4.46900        5.15140        8.58850
C         -4.06970        3.78620        5.77140
S         -3.74170        2.56330        6.95810
C         -5.44960        6.67690        3.92700
C         -6.05480        7.69750        4.62540
C         -5.68400        8.10160        5.98990
O         -4.84620        7.59010        6.71000
C         -6.44030        9.34540        6.25580
C         -6.40750       10.11890        7.41190
C         -7.22810       11.22210        7.37180
C         -8.01850       11.53760        6.26060
C         -8.05680       10.78470        5.11050
C         -7.23260        9.65790        5.13430
C         -7.02520        8.62640        4.12080
C         -7.75070        8.47170        2.96380
C         -8.77810        9.33590        2.54500
N         -9.63730        9.99140        2.15330
C         -7.61580        7.37600        2.08900
N         -7.58710        6.49840        1.34740
C         -8.57390       12.78320        6.90620
C         -7.98000       14.12720        6.43540
C         -8.34190       15.09060        7.54250
C         -7.59440       14.79180        8.59730
C         -6.71440       13.62180        8.22040
C         -6.48830       13.92950        6.73460
C         -7.69310       12.43070        8.14770
H          6.67190       -3.12110       -9.76890
H          5.67640        0.73610      -13.56370
H          7.52390       -3.54180       -5.85130
H          9.00950       -4.06490       -3.96600
H         10.84650       -7.23410       -3.58740
H         11.68280       -5.71580       -3.90170
H         10.33070       -5.74860       -2.77160
H         10.33620       -7.58100       -5.98060
H          8.83280       -7.07430       -7.86030
H          5.83070       -6.09230      -10.04690
H          6.65110       -6.46010      -12.32670
H         10.04740       -6.40480      -13.34120
H          8.38480       -6.40930      -13.94720
H          9.28400       -4.89410      -13.81780
H         10.44260       -4.83940      -11.23190
H          9.62170       -4.44640       -8.95410
H          2.59060       -2.43900       -5.04210
H          1.75940       -0.44810       -6.22570
H          0.23460        0.59320       -7.73160
H         -1.29060       -0.24380       -8.06070
H          0.07010       -0.43960       -9.15720
H         -1.10240       -2.86010       -8.26880
H         -0.27090       -4.85330       -7.09230
H         -0.60250       -4.58920       -4.29960
H         -2.08280       -6.35430       -3.45630
H         -1.10550       -9.67030       -2.71760
H         -2.51850       -8.62890       -2.93730
H         -1.97700       -9.68410       -4.24590
H          0.78600       -9.30080       -4.58390
H          2.25580       -7.54730       -5.45420
H          6.88860       -6.38310       -1.07590
H          8.87710       -7.74360       -1.58910
H          8.78790       -9.44840       -3.36260
H          7.42530      -10.88610       -4.77050
H          5.68840      -10.59490       -4.93900
H          7.89150       -8.96310       -6.28850
H          6.16590       -8.66760       -6.45750
H          6.86660      -10.16440       -7.08760
H          4.68010       -8.52610       -4.03530
H          1.40530        0.44510        7.72040
H          2.11410        1.57450        9.78740
H          0.43150        2.42920       11.36950
H         -3.19710        2.47840       10.67730
H         -1.91260        3.12910       11.71090
H         -3.25790        1.45330       12.95230
H         -1.60330        0.87410       12.73880
H         -2.89550        0.23590       11.72350
H         -2.68090        1.02190        8.81760
H          0.05730       -3.01830        0.87260
H          1.13770       -3.23740       -0.50780
H         -0.11070       -5.16350       -1.32000
H         -1.17710       -5.15260        0.07870
H         -1.22250       -3.81810       -1.07860
H         -1.27360       -4.34780        1.95300
H         -1.90740       -2.72400        2.34300
H         -2.85410       -3.61780        4.45490
H         -3.42040       -4.57140        3.08500
H         -2.13840       -5.20040        4.12790
H         -0.44250        2.87390        1.43390
H         -1.37200        3.24120       -0.81010
H         -4.49120        1.99700       -1.99150
H         -4.63230        3.70690       -1.60220
H         -3.16120        3.10120       -2.36950
H         -5.19640        1.93500        0.55260
H         -4.26330        1.53530        2.79120
H          0.03340        2.50680        5.45540
H          2.19940        1.39260        5.71490
H          3.46080       -1.29410        3.41620
H          3.23580       -1.18950        5.16270
H          4.07130        0.10490        4.31230
H          1.39950       -1.00960        2.28760
H         -0.75930        0.12390        1.99890
H         -7.27750        6.92580        8.03270
H         -9.40220        7.96810        7.38810
H        -11.20330        8.25100        5.87700
H        -10.74130        8.03600        4.18590
H        -11.65920        6.78030        5.00480
H         -9.50470        5.57770        3.85590
H         -7.38200        4.54150        4.48630
H         -7.63650        4.00430        8.29080
H         -7.29060        3.59420       10.68980
H         -5.28800        3.11260       12.44580
H         -5.85560        4.75030       12.74220
H         -4.12990        4.44790       12.51510
H         -3.34580        5.19340       10.39540
H         -3.69730        5.62190        8.00020
H         -5.42640        6.74200        2.84530
H         -5.78550        9.84090        8.24870
H         -8.66400       11.04120        4.25830
H         -9.65530       12.81510        7.02670
H         -8.25460       14.41710        5.42480
H         -9.11810       15.82930        7.46540
H         -7.62180       15.23110        9.57740
H         -5.83510       13.45260        8.83630
H         -6.02850       13.11500        6.17820
H         -5.91400       14.84250        6.58580
H         -8.18810       12.22820        9.09600
