222

C          6.24940      -10.07920       -1.76860
C          5.88060      -11.22040       -2.46010
C          4.52800      -11.56880       -2.88440
O          3.47960      -11.02470       -2.59560
C          4.68380      -12.74220       -3.78180
C          6.04330      -13.09080       -3.86230
C          6.44880      -14.16110       -4.64000
C          5.47810      -14.86790       -5.33690
F          5.84870      -15.90190       -6.09800
C          4.12880      -14.53280       -5.27070
F          3.22280      -15.23540       -5.95910
C          3.72740      -13.45420       -4.47940
F          2.43490      -13.13430       -4.41890
C          6.80700      -12.16840       -3.01770
C          8.16500      -12.23800       -2.80600
C          8.88880      -11.45110       -1.89050
N          9.55090      -10.87750       -1.14550
C          9.02440      -13.13750       -3.46610
N          9.78270      -13.82470       -3.98770
C          5.47870       -9.06730       -1.21690
C          6.03200       -7.88670       -0.64110
N          7.34400       -7.51230       -0.68860
C          8.17500       -7.76570       -1.79690
C          9.52310       -8.05420       -1.60200
C         10.33880       -8.30050       -2.68860
C          9.83730       -8.27720       -3.98460
C         10.72550       -8.59580       -5.14650
C          8.49420       -7.96600       -4.16820
C          7.66960       -7.70190       -3.09340
C          7.85800       -6.73120        0.36720
C          8.64190       -5.61290        0.10600
C          9.13970       -4.86060        1.15190
C          8.87100       -5.19970        2.47230
C          9.39030       -4.37290        3.60680
C          8.09240       -6.32510        2.72180
C          7.59150       -7.08730        1.68690
C          5.03090       -7.12130       -0.02480
S          5.01800       -5.58640        0.78220
C          3.26100       -5.65060        0.91660
C          2.73670       -6.85230        0.43980
N          1.41630       -7.25030        0.47620
C          0.97500       -8.03460       -0.61600
C          0.41450       -9.29250       -0.42060
C          0.05530      -10.05990       -1.50910
C          0.24670       -9.60140       -2.80830
C         -0.09210      -10.47370       -3.97400
C          0.78700       -8.33530       -2.99010
C          1.14720       -7.55430       -1.90900
C          0.61270       -7.12720        1.61120
C          1.15740       -6.95900        2.88290
C          0.33220       -6.80200        3.97950
C         -1.05000       -6.83090        3.85090
C         -1.95000       -6.62550        5.02890
C         -1.58560       -7.03610        2.58400
C         -0.77560       -7.16890        1.47730
C          3.75340       -7.65700       -0.13320
S          3.72150       -9.12790       -1.03520
C          2.59900       -4.47310        1.34310
C          3.21630       -3.29400        1.71990
C          2.29570       -2.26740        1.91600
S          2.44750       -0.58820        2.34430
C          0.71180       -0.38940        2.21240
C          0.03790        0.80390        2.40530
C          0.68630        2.05860        2.75610
S          1.84210        2.84430        1.72780
C          1.94510        4.21970        2.77130
C          2.75460        5.41660        2.41290
C          1.87920        6.46350        1.71790
C          1.13190        4.05920        3.85340
Cl         0.96360        5.22300        5.09730
C          0.41700        2.83410        3.84950
Cl        -0.65280        2.36900        5.10530
C         -1.35590        0.78500        2.24520
C         -2.03720       -0.42930        1.99340
C         -1.36230       -1.62690        1.80260
C         -2.10720       -2.84140        1.49570
S         -1.99730       -3.62970       -0.04700
C         -3.21570       -4.78430        0.36980
C         -3.67660       -5.80360       -0.61250
C         -4.78770       -5.24170       -1.50290
C         -3.67920       -4.55060        1.62960
C         -3.04950       -3.45210        2.27190
Cl        -3.40650       -2.97800        3.87870
Cl        -4.91410       -5.47030        2.38550
C          0.03740       -1.59560        1.88180
C          0.97300       -2.64110        1.70250
S          0.85710       -4.29950        1.25300
S         -3.76780       -0.21060        1.81970
C         -3.57380        1.51150        1.95020
C         -4.43230        2.59460        1.73150
C         -3.75120        3.78820        1.75540
S         -2.05760        3.58310        2.15610
C         -2.25630        1.87380        2.19110
C         -4.20010        5.07620        1.33800
C         -5.01680        5.36390        0.24880
N         -5.50260        4.43270       -0.65000
C         -6.75900        4.63550       -1.24050
C         -7.79670        5.20280       -0.50580
C         -9.02770        5.41730       -1.09420
C         -9.26200        5.06310       -2.41640
C        -10.59100        5.31510       -3.05900
C         -8.22280        4.48620       -3.13840
C         -6.98470        4.27680       -2.56680
C         -4.71340        3.32380       -0.99860
C         -5.29050        2.06770       -1.16650
C         -4.49560        0.96110       -1.39370
C         -3.11160        1.06880       -1.44960
C         -2.24890       -0.13990       -1.64200
C         -2.54620        2.33340       -1.33150
C         -3.33080        3.44880       -1.12180
C         -5.18170        6.76270        0.11190
S         -6.01480        7.75010       -1.02970
C         -5.39460        9.21830       -0.24750
C         -4.47690        8.91170        0.79140
N         -3.62770        9.76910        1.40990
C         -3.22970       11.00120        0.87170
C         -2.96500       11.15140       -0.48910
C         -2.60870       12.38430       -0.99210
C         -2.50410       13.50010       -0.16350
C         -2.17170       14.83940       -0.74010
C         -2.71930       13.32960        1.19750
C         -3.07340       12.09780        1.71660
C         -3.02870        9.38110        2.63590
C         -3.81980        9.02970        3.72350
C         -3.22010        8.64330        4.90600
C         -1.83540        8.59700        5.02740
C         -1.19570        8.13780        6.29930
C         -1.05860        8.96960        3.93600
C         -1.64340        9.36420        2.74860
C         -4.44150        7.51640        1.01410
S         -3.54420        6.50910        2.10030
C         -5.85790       10.43160       -0.73390
C         -5.83070       11.64380       -0.05700
C         -5.86580       11.74950        1.40280
O         -5.90150       10.84510        2.21340
C         -5.97830       13.20660        1.68340
C         -6.01490       13.91490        0.47030
C         -6.12390       15.29270        0.45940
C         -6.18540       15.95160        1.68020
F         -6.28710       17.28540        1.69510
C         -6.13830       15.26750        2.89020
F         -6.18260       15.93820        4.04750
C         -6.03790       13.87370        2.89040
F         -5.97900       13.22480        4.05350
C         -5.89430       12.95210       -0.62710
C         -5.69460       13.27010       -1.95060
C         -5.64290       14.58390       -2.44810
N         -5.57080       15.63780       -2.90030
C         -5.42420       12.31540       -2.95010
N         -5.16270       11.59180       -3.80320
H          7.31590       -9.93250       -1.65930
H          7.47790      -14.46650       -4.73030
H          9.92120       -8.09810       -0.60070
H         11.37930       -8.53570       -2.52450
H         10.95040       -9.66250       -5.16070
H         10.24930       -8.33300       -6.08760
H         11.66960       -8.06050       -5.06660
H          8.08820       -7.92020       -5.16840
H          6.63040       -7.45300       -3.25190
H          8.85230       -5.33560       -0.91610
H          9.74330       -3.99120        0.93650
H          8.58130       -3.78330        4.03850
H         10.16740       -3.69180        3.27040
H          9.79360       -5.00840        4.39270
H          7.88280       -6.61130        3.74200
H          7.00080       -7.96810        1.89180
H          0.28090       -9.66560        0.58410
H         -0.36180      -11.04340       -1.35120
H         -0.14990       -9.89670       -4.89360
H         -1.03850      -10.98640       -3.81530
H          0.68180      -11.23130       -4.09090
H          0.93610       -7.95620       -3.99080
H          1.57420       -6.57220       -2.05660
H          2.22980       -6.95010        3.01260
H          0.77530       -6.66080        4.95490
H         -1.41350       -6.77030        5.96320
H         -2.79360       -7.31190        4.99410
H         -2.34840       -5.61050        5.01760
H         -2.65670       -7.08550        2.46470
H         -1.20990       -7.30380        0.49870
H          4.28060       -3.19380        1.82850
H          3.57040        5.12070        1.75220
H          3.17810        5.84430        3.32410
H          2.47000        7.34290        1.47590
H          1.05770        6.75900        2.36610
H          1.46390        6.05680        0.79910
H         -2.83520       -6.11300       -1.23510
H         -4.05040       -6.67330       -0.06890
H         -5.64030       -4.94250       -0.89870
H         -5.11220       -5.99560       -2.21480
H         -4.42810       -4.37440       -2.05150
H         -5.48760        2.51140        1.55480
H         -7.63710        5.46710        0.52970
H         -9.82170        5.86070       -0.51110
H        -10.83670        4.52450       -3.76460
H        -11.37840        5.38040       -2.31210
H        -10.56540        6.25740       -3.60730
H         -8.38390        4.20490       -4.16900
H         -6.18360        3.83880       -3.14360
H         -6.36290        1.96050       -1.09300
H         -4.95810       -0.00960       -1.49760
H         -1.31530       -0.04030       -1.09140
H         -2.00340       -0.26410       -2.69700
H         -2.75890       -1.03960       -1.30620
H         -1.47310        2.44450       -1.39540
H         -2.87160        4.42220       -1.02910
H         -3.04130       10.30210       -1.15120
H         -2.41470       12.48780       -2.04970
H         -2.96950       15.17430       -1.40330
H         -2.04120       15.58080        0.04350
H         -1.25770       14.78510       -1.32910
H         -2.62030       14.17420        1.86360
H         -3.24760       11.97910        2.77560
H         -4.89300        9.09040        3.63230
H         -3.83750        8.37730        5.75110
H         -1.07880        7.05390        6.27970
H         -1.81020        8.39330        7.15910
H         -0.20940        8.57850        6.42240
H          0.01850        8.94820        4.01660
H         -1.03460        9.65130        1.90330
H         -6.31990       10.40280       -1.71320
H         -6.16640       15.87200       -0.44790
