203

C         -6.95300        5.55480       -5.28070
C         -8.07820        4.85780       -5.69000
C         -8.37090        3.45680       -5.40400
O         -7.76880        2.68910       -4.67850
C         -9.56980        3.12720       -6.21700
C         -9.97900        4.26860       -6.92780
C        -11.08290        4.21800       -7.76060
C        -11.76280        3.01270       -7.87230
F        -12.82950        2.94120       -8.67480
C        -11.36890        1.87360       -7.17660
F        -12.04920        0.72990       -7.31170
C        -10.25510        1.93390       -6.33590
F         -9.87850        0.84130       -5.67160
C         -9.07250        5.37050       -6.59260
C         -9.19850        6.65850       -7.06180
C         -8.41660        7.75630       -6.65730
N         -7.85260        8.71290       -6.35850
C        -10.15690        7.06640       -8.00960
N        -10.89470        7.45820       -8.79810
C         -5.92970        5.19030       -4.41960
C         -4.79230        6.01320       -4.16530
N         -4.44830        7.10880       -4.90570
C         -3.82730        8.21350       -4.29580
C         -2.81050        8.89890       -4.95690
C         -2.28570       10.05030       -4.40980
C         -2.74990       10.54540       -3.19460
C         -2.22150       11.84140       -2.66290
C         -3.72550        9.82450       -2.51780
C         -4.26370        8.67180       -3.05700
C         -4.66150        7.14640       -6.29930
C         -5.04670        8.33150       -6.92160
C         -5.26600        8.35310       -8.28430
C         -5.11580        7.20700       -9.05710
C         -5.38940        7.24710      -10.52840
C         -4.70700        6.03630       -8.42890
C         -4.47230        6.00150       -7.06900
C         -4.03710        5.50260       -3.09930
S         -2.57590        5.99350       -2.30090
C         -2.57250        4.51000       -1.35980
C         -3.69220        3.71990       -1.60200
N         -4.00670        2.53640       -0.96490
C         -4.75110        1.57780       -1.68810
C         -5.88480        1.00180       -1.12580
C         -6.64130        0.11270       -1.86150
C         -6.29230       -0.22190       -3.16520
C         -7.16180       -1.12740       -3.97740
C         -5.13910        0.33310       -3.70390
C         -4.37000        1.22080       -2.97700
C         -3.66090        2.26180        0.36320
C         -3.30700        0.96210        0.72510
C         -2.88700        0.68420        2.01050
C         -2.81830        1.68180        2.97480
C         -2.30720        1.40180        4.35450
C         -3.22880        2.96170        2.62110
C         -3.64200        3.25790        1.33730
C         -4.51490        4.29430       -2.60130
S         -5.93500        3.74330       -3.41000
C         -1.50110        4.12940       -0.48560
C         -1.00130        4.74220        0.64310
C         -1.25480        6.12310        1.05800
C         -1.68470        6.39980        2.35260
C         -1.87680        7.70860        2.74970
C         -1.62300        8.74840        1.87190
C         -1.17380        8.49020        0.58370
C         -0.81620        9.60860       -0.34940
C          0.68210        9.90710       -0.27230
C         -0.99740        7.17360        0.18610
C         -0.21470        3.84870        1.40180
S          0.52540        3.98650        2.97700
C          1.01540        2.32980        2.86330
C          1.61880        1.34200        3.65690
C          2.03880        1.37660        5.00370
C          2.52020        0.17020        5.60970
N          2.82730        0.33180        6.88710
S          2.53750        1.87290        7.29200
N          2.00690        2.39220        5.85260
C          2.65810       -0.98400        4.80880
C          3.23870       -2.22810        5.09560
S          3.97680       -3.05590        6.42420
C          4.32770       -4.39710        5.35990
C          5.01230       -5.60990        5.55740
C          5.66520       -5.96580        6.81880
C          6.99540       -6.38040        6.83610
C          7.60520       -6.67840        8.03890
C          6.90230       -6.56340        9.22640
C          5.58120       -6.13430        9.22810
C          4.80420       -6.03890       10.50910
C          4.09880       -7.36400       10.80510
C          4.97310       -5.83610        8.01750
C          5.06690       -6.34710        4.38460
S          4.30680       -5.52430        3.03180
C          3.88340       -4.19440        4.04930
C          3.24820       -2.95610        3.90320
N          2.67580       -2.21900        2.90260
C          2.28770       -1.00190        3.43210
C          1.65900        0.14840        2.87940
N          1.04150        0.40800        1.66760
C          0.65780        1.72030        1.66000
C         -0.06270        2.58780        0.82910
S         -0.87940        2.49070       -0.68600
C          0.53610       -0.47210        0.63950
C          1.28440       -0.30520       -0.68270
C          2.76110       -2.69300        1.54160
C          1.74130       -3.79460        1.25270
C          5.62060       -7.63820        4.17670
C          5.84560       -8.63700        5.10100
C          6.45370       -9.76470        4.55170
S          6.88020      -11.17600        5.51430
C          8.70820      -11.16440        5.34930
C          9.31370       -9.95900        6.03760
C          6.70860       -9.66430        3.18690
S          6.14970       -8.11900        2.59160
C          7.21630      -10.67860        2.35360
C          7.72570      -10.56950        1.09260
C          7.75560      -11.75100        0.19370
O          7.61320      -12.90960        0.50720
C          7.96300      -11.19020       -1.16290
C          7.95250      -11.84920       -2.37510
C          8.16670      -11.08820       -3.52110
O          8.23810      -11.64110       -4.78460
C          7.40650      -12.63640       -5.17190
O          6.50280      -13.05730       -4.50900
C          7.78630      -13.10630       -6.54760
C          8.38470       -9.71400       -3.43870
C          8.40260       -9.06190       -2.21740
C          8.19040       -9.80570       -1.06710
C          8.19670       -9.42760        0.34360
C          8.80690       -8.31280        0.86180
C          9.31550       -7.25860        0.07930
N          9.72690       -6.36330       -0.51030
C          9.07560       -8.14860        2.23490
N          9.36540       -8.01180        3.33790
H         -6.84450        6.54350       -5.70690
H        -11.43500        5.06590       -8.32390
H         -2.44910        8.53100       -5.90550
H         -1.50870       10.58330       -4.93780
H         -2.61100       12.04540       -1.66960
H         -2.51610       12.65830       -3.32140
H         -1.13400       11.82710       -2.62070
H         -4.08860       10.17910       -1.56460
H         -5.04850        8.14280       -2.53690
H         -5.19070        9.22390       -6.33380
H         -5.57880        9.27360       -8.75330
H         -6.41790        7.55590      -10.71190
H         -4.73610        7.96880      -11.01690
H         -5.23230        6.27230      -10.98260
H         -4.56270        5.13850       -9.01220
H         -4.14950        5.08530       -6.59660
H         -6.17230        1.26890       -0.11920
H         -7.53140       -0.31480       -1.42380
H         -7.64230       -1.87550       -3.35110
H         -6.59000       -1.62720       -4.75560
H         -7.94290       -0.53680       -4.45580
H         -4.84280        0.07470       -4.71000
H         -3.47560        1.65170       -3.40490
H         -3.34300        0.18030       -0.01990
H         -2.59830       -0.32570        2.26720
H         -2.17950        0.33370        4.51460
H         -2.99360        1.78990        5.10520
H         -1.34250        1.88810        4.50520
H         -3.22460        3.74100        3.36900
H         -3.95150        4.26170        1.08490
H         -1.87060        5.58880        3.03860
H         -2.21810        7.92010        3.75230
H         -1.76510        9.77050        2.19270
H         -1.07950        9.33110       -1.37180
H         -1.37440       10.50600       -0.07910
H          1.25840        9.02730       -0.54880
H          0.94470       10.71960       -0.94590
H          0.96000       10.19250        0.73990
H         -0.62340        6.96270       -0.80570
H          7.54850       -6.45320        5.91160
H          8.63690       -6.99680        8.04970
H          7.38670       -6.79930       10.16290
H          5.47830       -5.79790       11.33320
H          4.06080       -5.24350       10.43080
H          3.41150       -7.61550       10.00030
H          3.53630       -7.29630       11.73320
H          4.82550       -8.16810       10.89730
H          3.94370       -5.50790        8.00300
H          0.57190       -1.49780        0.99600
H         -0.51590       -0.21070        0.47630
H          0.94100       -1.05100       -1.39400
H          2.35980       -0.40980       -0.55470
H          1.09220        0.67990       -1.09870
H          3.76620       -3.10590        1.39920
H          2.64990       -1.85290        0.86240
H          1.97480       -4.68330        1.83260
H          0.73090       -3.48360        1.50960
H          1.77170       -4.05520        0.19860
H          5.58160       -8.55830        6.13880
H          8.96080      -11.19380        4.29090
H          9.01750      -12.09560        5.82300
H          8.96910       -9.89520        7.06770
H         10.39840      -10.04390        6.03390
H          9.04160       -9.04480        5.51530
H          7.10200      -11.69140        2.73240
H          7.78250      -12.91290       -2.41840
H          8.04380      -12.25870       -7.17610
H          8.66080      -13.74960       -6.46640
H          6.96670      -13.67170       -6.97970
H          8.54450       -9.16410       -4.35300
H          8.56580       -7.99700       -2.17840
