
  xtb     02082209553D
 energy: -433.813102071139 gnorm: 0.000278749984 xtb: 6.4.1 (unknown)
262290  0     0  0            999 V2000
    5.6009   -3.0388   -9.6372 C   0  0  0  0  0  0  0  0  0  0  0  0
    4.9720   -2.1224  -10.4700 C   0  0  0  0  0  0  0  0  0  0  0  0
    3.5344   -1.9113  -10.5821 C   0  0  0  0  0  0  0  0  0  0  0  0
    2.6365   -2.4711   -9.9807 O   0  0  0  0  0  0  0  0  0  0  0  0
    3.3631   -0.8752  -11.6330 C   0  0  0  0  0  0  0  0  0  0  0  0
    4.6238   -0.5172  -12.1407 C   0  0  0  0  0  0  0  0  0  0  0  0
    4.7332    0.4306  -13.1426 C   0  0  0  0  0  0  0  0  0  0  0  0
    3.5676    1.0121  -13.6230 C   0  0  0  0  0  0  0  0  0  0  0  0
    3.6512    1.9300  -14.5920 F   0  0  0  0  0  0  0  0  0  0  0  0
    2.3133    0.6749  -13.1245 C   0  0  0  0  0  0  0  0  0  0  0  0
    1.2128    1.2653  -13.6052 F   0  0  0  0  0  0  0  0  0  0  0  0
    2.2114   -0.2842  -12.1141 C   0  0  0  0  0  0  0  0  0  0  0  0
    1.0085   -0.5959  -11.6305 F   0  0  0  0  0  0  0  0  0  0  0  0
    5.6464   -1.2716  -11.4089 C   0  0  0  0  0  0  0  0  0  0  0  0
    7.0042   -1.1233  -11.5916 C   0  0  0  0  0  0  0  0  0  0  0  0
    8.0072   -1.7101  -10.7990 C   0  0  0  0  0  0  0  0  0  0  0  0
    8.8925   -2.1100  -10.1828 N   0  0  0  0  0  0  0  0  0  0  0  0
    7.5855   -0.3201  -12.5911 C   0  0  0  0  0  0  0  0  0  0  0  0
    8.1258    0.2995  -13.3938 N   0  0  0  0  0  0  0  0  0  0  0  0
    5.0878   -3.8345   -8.6292 C   0  0  0  0  0  0  0  0  0  0  0  0
    5.9084   -4.6449   -7.7822 C   0  0  0  0  0  0  0  0  0  0  0  0
    7.2004   -4.9941   -8.0430 N   0  0  0  0  0  0  0  0  0  0  0  0
    8.0671   -5.2854   -6.9696 C   0  0  0  0  0  0  0  0  0  0  0  0
    8.1297   -4.4357   -5.8692 C   0  0  0  0  0  0  0  0  0  0  0  0
    8.9709   -4.7311   -4.8150 C   0  0  0  0  0  0  0  0  0  0  0  0
    9.7728   -5.8654   -4.8333 C   0  0  0  0  0  0  0  0  0  0  0  0
   10.7076   -6.1622   -3.7033 C   0  0  0  0  0  0  0  0  0  0  0  0
    9.7147   -6.6979   -5.9451 C   0  0  0  0  0  0  0  0  0  0  0  0
    8.8741   -6.4181   -7.0035 C   0  0  0  0  0  0  0  0  0  0  0  0
    7.6653   -5.2233   -9.3538 C   0  0  0  0  0  0  0  0  0  0  0  0
    6.8386   -5.8071  -10.3102 C   0  0  0  0  0  0  0  0  0  0  0  0
    7.3056   -6.0128  -11.5927 C   0  0  0  0  0  0  0  0  0  0  0  0
    8.6030   -5.6630  -11.9494 C   0  0  0  0  0  0  0  0  0  0  0  0
    9.1049   -5.8601  -13.3461 C   0  0  0  0  0  0  0  0  0  0  0  0
    9.4307   -5.1145  -10.9765 C   0  0  0  0  0  0  0  0  0  0  0  0
    8.9743   -4.8908   -9.6930 C   0  0  0  0  0  0  0  0  0  0  0  0
    5.2016   -5.0291   -6.6356 C   0  0  0  0  0  0  0  0  0  0  0  0
    5.6162   -5.8960   -5.1856 S   0  0  0  0  0  0  0  0  0  0  0  0
    3.9748   -5.6998   -4.5797 C   0  0  0  0  0  0  0  0  0  0  0  0
    3.1351   -5.0984   -5.5202 C   0  0  0  0  0  0  0  0  0  0  0  0
    1.7712   -4.9147   -5.3735 N   0  0  0  0  0  0  0  0  0  0  0  0
    1.2192   -3.7734   -5.9972 C   0  0  0  0  0  0  0  0  0  0  0  0
    1.7772   -2.5248   -5.7489 C   0  0  0  0  0  0  0  0  0  0  0  0
    1.3069   -1.4106   -6.4174 C   0  0  0  0  0  0  0  0  0  0  0  0
    0.2732   -1.5139   -7.3379 C   0  0  0  0  0  0  0  0  0  0  0  0
   -0.2062   -0.3258   -8.1099 C   0  0  0  0  0  0  0  0  0  0  0  0
   -0.2987   -2.7635   -7.5542 C   0  0  0  0  0  0  0  0  0  0  0  0
    0.1642   -3.8840   -6.8972 C   0  0  0  0  0  0  0  0  0  0  0  0
    0.9331   -5.9413   -4.9284 C   0  0  0  0  0  0  0  0  0  0  0  0
   -0.3033   -5.6244   -4.3670 C   0  0  0  0  0  0  0  0  0  0  0  0
   -1.1304   -6.6221   -3.8912 C   0  0  0  0  0  0  0  0  0  0  0  0
   -0.7536   -7.9574   -3.9502 C   0  0  0  0  0  0  0  0  0  0  0  0
   -1.6428   -9.0447   -3.4291 C   0  0  0  0  0  0  0  0  0  0  0  0
    0.4777   -8.2671   -4.5179 C   0  0  0  0  0  0  0  0  0  0  0  0
    1.3102   -7.2809   -5.0051 C   0  0  0  0  0  0  0  0  0  0  0  0
    3.8558   -4.6738   -6.6558 C   0  0  0  0  0  0  0  0  0  0  0  0
    3.4105   -3.7911   -8.0706 S   0  0  0  0  0  0  0  0  0  0  0  0
    3.6788   -5.9444   -3.2158 C   0  0  0  0  0  0  0  0  0  0  0  0
    4.4745   -6.5491   -2.2492 C   0  0  0  0  0  0  0  0  0  0  0  0
    5.6628   -7.3482   -2.5444 C   0  0  0  0  0  0  0  0  0  0  0  0
    6.8459   -7.1427   -1.8416 C   0  0  0  0  0  0  0  0  0  0  0  0
    7.9611   -7.9018   -2.1384 C   0  0  0  0  0  0  0  0  0  0  0  0
    7.9092   -8.8635   -3.1320 C   0  0  0  0  0  0  0  0  0  0  0  0
    6.7299   -9.0989   -3.8269 C   0  0  0  0  0  0  0  0  0  0  0  0
    6.6693  -10.1152   -4.9304 C   0  0  0  0  0  0  0  0  0  0  0  0
    6.9135   -9.4376   -6.2798 C   0  0  0  0  0  0  0  0  0  0  0  0
    5.6121   -8.3402   -3.5197 C   0  0  0  0  0  0  0  0  0  0  0  0
    3.9816   -6.3104   -0.9544 C   0  0  0  0  0  0  0  0  0  0  0  0
    4.5627   -6.7242    0.6446 S   0  0  0  0  0  0  0  0  0  0  0  0
    3.2210   -5.8691    1.3361 C   0  0  0  0  0  0  0  0  0  0  0  0
    2.7616   -5.4279    2.5901 C   0  0  0  0  0  0  0  0  0  0  0  0
    3.3516   -5.4382    3.8754 C   0  0  0  0  0  0  0  0  0  0  0  0
    2.7950   -4.6051    4.9112 C   0  0  0  0  0  0  0  0  0  0  0  0
    3.5189   -4.6291    6.0186 N   0  0  0  0  0  0  0  0  0  0  0  0
    4.7788   -5.6213    5.7916 S   0  0  0  0  0  0  0  0  0  0  0  0
    4.4577   -6.0514    4.2636 N   0  0  0  0  0  0  0  0  0  0  0  0
    1.5900   -3.9098    4.6655 C   0  0  0  0  0  0  0  0  0  0  0  0
    0.8162   -3.0148    5.4310 C   0  0  0  0  0  0  0  0  0  0  0  0
    0.9230   -2.0866    6.8927 S   0  0  0  0  0  0  0  0  0  0  0  0
   -0.5151   -1.2042    6.4283 C   0  0  0  0  0  0  0  0  0  0  0  0
   -1.1153   -0.0136    6.9062 C   0  0  0  0  0  0  0  0  0  0  0  0
   -0.6865    0.6815    8.1191 C   0  0  0  0  0  0  0  0  0  0  0  0
    0.6678    0.8237    8.4095 C   0  0  0  0  0  0  0  0  0  0  0  0
    1.0622    1.4590    9.5708 C   0  0  0  0  0  0  0  0  0  0  0  0
    0.1165    1.9397   10.4590 C   0  0  0  0  0  0  0  0  0  0  0  0
   -1.2389    1.7897   10.1947 C   0  0  0  0  0  0  0  0  0  0  0  0
   -2.2666    2.2357   11.1925 C   0  0  0  0  0  0  0  0  0  0  0  0
   -2.5235    1.1303   12.2182 C   0  0  0  0  0  0  0  0  0  0  0  0
   -1.6289    1.1632    9.0213 C   0  0  0  0  0  0  0  0  0  0  0  0
   -2.1037    0.4195    6.0483 C   0  0  0  0  0  0  0  0  0  0  0  0
   -2.4120   -0.7272    4.7412 S   0  0  0  0  0  0  0  0  0  0  0  0
   -1.0769   -1.6854    5.2500 C   0  0  0  0  0  0  0  0  0  0  0  0
   -0.3145   -2.7048    4.6738 C   0  0  0  0  0  0  0  0  0  0  0  0
   -0.2821   -3.3658    3.4756 N   0  0  0  0  0  0  0  0  0  0  0  0
    0.9104   -4.0630    3.4280 C   0  0  0  0  0  0  0  0  0  0  0  0
    1.5721   -4.6884    2.3461 C   0  0  0  0  0  0  0  0  0  0  0  0
    1.3431   -4.6441    0.9854 N   0  0  0  0  0  0  0  0  0  0  0  0
    2.3495   -5.3435    0.3768 C   0  0  0  0  0  0  0  0  0  0  0  0
    2.7954   -5.5736   -0.9275 C   0  0  0  0  0  0  0  0  0  0  0  0
    2.2850   -5.1290   -2.5121 S   0  0  0  0  0  0  0  0  0  0  0  0
    0.4977   -3.7633    0.2106 C   0  0  0  0  0  0  0  0  0  0  0  0
   -0.5720   -4.5248   -0.5714 C   0  0  0  0  0  0  0  0  0  0  0  0
   -1.5034   -3.6545    2.7571 C   0  0  0  0  0  0  0  0  0  0  0  0
   -2.5450   -4.3014    3.6694 C   0  0  0  0  0  0  0  0  0  0  0  0
   -2.6903    1.7159    5.8366 C   0  0  0  0  0  0  0  0  0  0  0  0
   -2.5533    2.3893    4.6304 C   0  0  0  0  0  0  0  0  0  0  0  0
   -1.7704    1.9966    3.5552 N   0  0  0  0  0  0  0  0  0  0  0  0
   -2.2933    2.1910    2.2632 C   0  0  0  0  0  0  0  0  0  0  0  0
   -1.4835    2.6642    1.2362 C   0  0  0  0  0  0  0  0  0  0  0  0
   -2.0121    2.8685   -0.0234 C   0  0  0  0  0  0  0  0  0  0  0  0
   -3.3525    2.6190   -0.2897 C   0  0  0  0  0  0  0  0  0  0  0  0
   -3.9377    2.8685   -1.6453 C   0  0  0  0  0  0  0  0  0  0  0  0
   -4.1527    2.1400    0.7416 C   0  0  0  0  0  0  0  0  0  0  0  0
   -3.6342    1.9203    2.0012 C   0  0  0  0  0  0  0  0  0  0  0  0
   -0.5202    1.3863    3.7124 C   0  0  0  0  0  0  0  0  0  0  0  0
    0.3286    1.7343    4.7602 C   0  0  0  0  0  0  0  0  0  0  0  0
    1.5455    1.0983    4.9071 C   0  0  0  0  0  0  0  0  0  0  0  0
    1.9496    0.0935    4.0357 C   0  0  0  0  0  0  0  0  0  0  0  0
    3.2551   -0.6123    4.2382 C   0  0  0  0  0  0  0  0  0  0  0  0
    1.1047   -0.2366    2.9839 C   0  0  0  0  0  0  0  0  0  0  0  0
   -0.1091    0.3989    2.8169 C   0  0  0  0  0  0  0  0  0  0  0  0
   -3.3443    3.5610    4.6105 C   0  0  0  0  0  0  0  0  0  0  0  0
   -3.6765    4.7283    3.3908 S   0  0  0  0  0  0  0  0  0  0  0  0
   -4.8096    5.5574    4.4652 C   0  0  0  0  0  0  0  0  0  0  0  0
   -4.9542    4.8907    5.7000 C   0  0  0  0  0  0  0  0  0  0  0  0
   -5.9192    5.1365    6.6361 N   0  0  0  0  0  0  0  0  0  0  0  0
   -7.1620    5.6877    6.2889 C   0  0  0  0  0  0  0  0  0  0  0  0
   -7.7628    6.6370    7.1126 C   0  0  0  0  0  0  0  0  0  0  0  0
   -8.9638    7.2170    6.7470 C   0  0  0  0  0  0  0  0  0  0  0  0
   -9.5986    6.8684    5.5633 C   0  0  0  0  0  0  0  0  0  0  0  0
  -10.8749    7.5240    5.1387 C   0  0  0  0  0  0  0  0  0  0  0  0
   -9.0151    5.8832    4.7690 C   0  0  0  0  0  0  0  0  0  0  0  0
   -7.8177    5.2986    5.1211 C   0  0  0  0  0  0  0  0  0  0  0  0
   -5.6842    4.8365    7.9916 C   0  0  0  0  0  0  0  0  0  0  0  0
   -6.6958    4.2607    8.7560 C   0  0  0  0  0  0  0  0  0  0  0  0
   -6.4979    4.0340   10.1020 C   0  0  0  0  0  0  0  0  0  0  0  0
   -5.2965    4.3717   10.7174 C   0  0  0  0  0  0  0  0  0  0  0  0
   -5.1255    4.1588   12.1905 C   0  0  0  0  0  0  0  0  0  0  0  0
   -4.2858    4.9209    9.9385 C   0  0  0  0  0  0  0  0  0  0  0  0
   -4.4690    5.1514    8.5885 C   0  0  0  0  0  0  0  0  0  0  0  0
   -4.0697    3.7862    5.7714 C   0  0  0  0  0  0  0  0  0  0  0  0
   -3.7417    2.5633    6.9581 S   0  0  0  0  0  0  0  0  0  0  0  0
   -5.4496    6.6769    3.9270 C   0  0  0  0  0  0  0  0  0  0  0  0
   -6.0548    7.6975    4.6254 C   0  0  0  0  0  0  0  0  0  0  0  0
   -5.6840    8.1016    5.9899 C   0  0  0  0  0  0  0  0  0  0  0  0
   -4.8462    7.5901    6.7100 O   0  0  0  0  0  0  0  0  0  0  0  0
   -6.4403    9.3454    6.2558 C   0  0  0  0  0  0  0  0  0  0  0  0
   -6.4075   10.1189    7.4119 C   0  0  0  0  0  0  0  0  0  0  0  0
   -7.2281   11.2221    7.3718 C   0  0  0  0  0  0  0  0  0  0  0  0
   -8.0185   11.5376    6.2606 C   0  0  0  0  0  0  0  0  0  0  0  0
   -8.0568   10.7847    5.1105 C   0  0  0  0  0  0  0  0  0  0  0  0
   -7.2326    9.6579    5.1343 C   0  0  0  0  0  0  0  0  0  0  0  0
   -7.0252    8.6264    4.1208 C   0  0  0  0  0  0  0  0  0  0  0  0
   -7.7507    8.4717    2.9638 C   0  0  0  0  0  0  0  0  0  0  0  0
   -8.7781    9.3359    2.5450 C   0  0  0  0  0  0  0  0  0  0  0  0
   -9.6373    9.9914    2.1533 N   0  0  0  0  0  0  0  0  0  0  0  0
   -7.6158    7.3760    2.0890 C   0  0  0  0  0  0  0  0  0  0  0  0
   -7.5871    6.4984    1.3474 N   0  0  0  0  0  0  0  0  0  0  0  0
   -8.5739   12.7832    6.9062 C   0  0  0  0  0  0  0  0  0  0  0  0
   -7.9800   14.1272    6.4354 C   0  0  0  0  0  0  0  0  0  0  0  0
   -8.3419   15.0906    7.5425 C   0  0  0  0  0  0  0  0  0  0  0  0
   -7.5944   14.7918    8.5973 C   0  0  0  0  0  0  0  0  0  0  0  0
   -6.7144   13.6218    8.2204 C   0  0  0  0  0  0  0  0  0  0  0  0
   -6.4883   13.9295    6.7346 C   0  0  0  0  0  0  0  0  0  0  0  0
   -7.6931   12.4307    8.1477 C   0  0  0  0  0  0  0  0  0  0  0  0
    6.6719   -3.1211   -9.7689 H   0  0  0  0  0  0  0  0  0  0  0  0
    5.6764    0.7361  -13.5637 H   0  0  0  0  0  0  0  0  0  0  0  0
    7.5239   -3.5418   -5.8513 H   0  0  0  0  0  0  0  0  0  0  0  0
    9.0095   -4.0649   -3.9660 H   0  0  0  0  0  0  0  0  0  0  0  0
   10.8465   -7.2341   -3.5874 H   0  0  0  0  0  0  0  0  0  0  0  0
   11.6828   -5.7158   -3.9017 H   0  0  0  0  0  0  0  0  0  0  0  0
   10.3307   -5.7486   -2.7716 H   0  0  0  0  0  0  0  0  0  0  0  0
   10.3362   -7.5810   -5.9806 H   0  0  0  0  0  0  0  0  0  0  0  0
    8.8328   -7.0743   -7.8603 H   0  0  0  0  0  0  0  0  0  0  0  0
    5.8307   -6.0923  -10.0469 H   0  0  0  0  0  0  0  0  0  0  0  0
    6.6511   -6.4601  -12.3267 H   0  0  0  0  0  0  0  0  0  0  0  0
   10.0474   -6.4048  -13.3412 H   0  0  0  0  0  0  0  0  0  0  0  0
    8.3848   -6.4093  -13.9472 H   0  0  0  0  0  0  0  0  0  0  0  0
    9.2840   -4.8941  -13.8178 H   0  0  0  0  0  0  0  0  0  0  0  0
   10.4426   -4.8394  -11.2319 H   0  0  0  0  0  0  0  0  0  0  0  0
    9.6217   -4.4464   -8.9541 H   0  0  0  0  0  0  0  0  0  0  0  0
    2.5906   -2.4390   -5.0421 H   0  0  0  0  0  0  0  0  0  0  0  0
    1.7594   -0.4481   -6.2257 H   0  0  0  0  0  0  0  0  0  0  0  0
    0.2346    0.5932   -7.7316 H   0  0  0  0  0  0  0  0  0  0  0  0
   -1.2906   -0.2438   -8.0607 H   0  0  0  0  0  0  0  0  0  0  0  0
    0.0701   -0.4396   -9.1572 H   0  0  0  0  0  0  0  0  0  0  0  0
   -1.1024   -2.8601   -8.2688 H   0  0  0  0  0  0  0  0  0  0  0  0
   -0.2709   -4.8533   -7.0923 H   0  0  0  0  0  0  0  0  0  0  0  0
   -0.6025   -4.5892   -4.2996 H   0  0  0  0  0  0  0  0  0  0  0  0
   -2.0828   -6.3543   -3.4563 H   0  0  0  0  0  0  0  0  0  0  0  0
   -1.1055   -9.6703   -2.7176 H   0  0  0  0  0  0  0  0  0  0  0  0
   -2.5185   -8.6289   -2.9373 H   0  0  0  0  0  0  0  0  0  0  0  0
   -1.9770   -9.6841   -4.2459 H   0  0  0  0  0  0  0  0  0  0  0  0
    0.7860   -9.3008   -4.5839 H   0  0  0  0  0  0  0  0  0  0  0  0
    2.2558   -7.5473   -5.4542 H   0  0  0  0  0  0  0  0  0  0  0  0
    6.8886   -6.3831   -1.0759 H   0  0  0  0  0  0  0  0  0  0  0  0
    8.8771   -7.7436   -1.5891 H   0  0  0  0  0  0  0  0  0  0  0  0
    8.7879   -9.4484   -3.3626 H   0  0  0  0  0  0  0  0  0  0  0  0
    7.4253  -10.8861   -4.7705 H   0  0  0  0  0  0  0  0  0  0  0  0
    5.6884  -10.5949   -4.9390 H   0  0  0  0  0  0  0  0  0  0  0  0
    7.8915   -8.9631   -6.2885 H   0  0  0  0  0  0  0  0  0  0  0  0
    6.1659   -8.6676   -6.4575 H   0  0  0  0  0  0  0  0  0  0  0  0
    6.8666  -10.1644   -7.0876 H   0  0  0  0  0  0  0  0  0  0  0  0
    4.6801   -8.5261   -4.0353 H   0  0  0  0  0  0  0  0  0  0  0  0
    1.4053    0.4451    7.7204 H   0  0  0  0  0  0  0  0  0  0  0  0
    2.1141    1.5745    9.7874 H   0  0  0  0  0  0  0  0  0  0  0  0
    0.4315    2.4292   11.3695 H   0  0  0  0  0  0  0  0  0  0  0  0
   -3.1971    2.4784   10.6773 H   0  0  0  0  0  0  0  0  0  0  0  0
   -1.9126    3.1291   11.7109 H   0  0  0  0  0  0  0  0  0  0  0  0
   -3.2579    1.4533   12.9523 H   0  0  0  0  0  0  0  0  0  0  0  0
   -1.6033    0.8741   12.7388 H   0  0  0  0  0  0  0  0  0  0  0  0
   -2.8955    0.2359   11.7235 H   0  0  0  0  0  0  0  0  0  0  0  0
   -2.6809    1.0219    8.8176 H   0  0  0  0  0  0  0  0  0  0  0  0
    0.0573   -3.0183    0.8726 H   0  0  0  0  0  0  0  0  0  0  0  0
    1.1377   -3.2374   -0.5078 H   0  0  0  0  0  0  0  0  0  0  0  0
   -0.1107   -5.1635   -1.3200 H   0  0  0  0  0  0  0  0  0  0  0  0
   -1.1771   -5.1526    0.0787 H   0  0  0  0  0  0  0  0  0  0  0  0
   -1.2225   -3.8181   -1.0786 H   0  0  0  0  0  0  0  0  0  0  0  0
   -1.2736   -4.3478    1.9530 H   0  0  0  0  0  0  0  0  0  0  0  0
   -1.9074   -2.7240    2.3430 H   0  0  0  0  0  0  0  0  0  0  0  0
   -2.8541   -3.6178    4.4549 H   0  0  0  0  0  0  0  0  0  0  0  0
   -3.4204   -4.5714    3.0850 H   0  0  0  0  0  0  0  0  0  0  0  0
   -2.1384   -5.2004    4.1279 H   0  0  0  0  0  0  0  0  0  0  0  0
   -0.4425    2.8739    1.4339 H   0  0  0  0  0  0  0  0  0  0  0  0
   -1.3720    3.2412   -0.8101 H   0  0  0  0  0  0  0  0  0  0  0  0
   -4.4912    1.9970   -1.9915 H   0  0  0  0  0  0  0  0  0  0  0  0
   -4.6323    3.7069   -1.6022 H   0  0  0  0  0  0  0  0  0  0  0  0
   -3.1612    3.1012   -2.3695 H   0  0  0  0  0  0  0  0  0  0  0  0
   -5.1964    1.9350    0.5526 H   0  0  0  0  0  0  0  0  0  0  0  0
   -4.2633    1.5353    2.7912 H   0  0  0  0  0  0  0  0  0  0  0  0
    0.0334    2.5068    5.4554 H   0  0  0  0  0  0  0  0  0  0  0  0
    2.1994    1.3926    5.7149 H   0  0  0  0  0  0  0  0  0  0  0  0
    3.4608   -1.2941    3.4162 H   0  0  0  0  0  0  0  0  0  0  0  0
    3.2358   -1.1895    5.1627 H   0  0  0  0  0  0  0  0  0  0  0  0
    4.0713    0.1049    4.3123 H   0  0  0  0  0  0  0  0  0  0  0  0
    1.3995   -1.0096    2.2876 H   0  0  0  0  0  0  0  0  0  0  0  0
   -0.7593    0.1239    1.9989 H   0  0  0  0  0  0  0  0  0  0  0  0
   -7.2775    6.9258    8.0327 H   0  0  0  0  0  0  0  0  0  0  0  0
   -9.4022    7.9681    7.3881 H   0  0  0  0  0  0  0  0  0  0  0  0
  -11.2033    8.2510    5.8770 H   0  0  0  0  0  0  0  0  0  0  0  0
  -10.7413    8.0360    4.1859 H   0  0  0  0  0  0  0  0  0  0  0  0
  -11.6592    6.7803    5.0048 H   0  0  0  0  0  0  0  0  0  0  0  0
   -9.5047    5.5777    3.8559 H   0  0  0  0  0  0  0  0  0  0  0  0
   -7.3820    4.5415    4.4863 H   0  0  0  0  0  0  0  0  0  0  0  0
   -7.6365    4.0043    8.2908 H   0  0  0  0  0  0  0  0  0  0  0  0
   -7.2906    3.5942   10.6898 H   0  0  0  0  0  0  0  0  0  0  0  0
   -5.2880    3.1126   12.4458 H   0  0  0  0  0  0  0  0  0  0  0  0
   -5.8556    4.7503   12.7422 H   0  0  0  0  0  0  0  0  0  0  0  0
   -4.1299    4.4479   12.5151 H   0  0  0  0  0  0  0  0  0  0  0  0
   -3.3458    5.1934   10.3954 H   0  0  0  0  0  0  0  0  0  0  0  0
   -3.6973    5.6219    8.0002 H   0  0  0  0  0  0  0  0  0  0  0  0
   -5.4264    6.7420    2.8453 H   0  0  0  0  0  0  0  0  0  0  0  0
   -5.7855    9.8409    8.2487 H   0  0  0  0  0  0  0  0  0  0  0  0
   -8.6640   11.0412    4.2583 H   0  0  0  0  0  0  0  0  0  0  0  0
   -9.6553   12.8151    7.0267 H   0  0  0  0  0  0  0  0  0  0  0  0
   -8.2546   14.4171    5.4248 H   0  0  0  0  0  0  0  0  0  0  0  0
   -9.1181   15.8293    7.4654 H   0  0  0  0  0  0  0  0  0  0  0  0
   -7.6218   15.2311    9.5774 H   0  0  0  0  0  0  0  0  0  0  0  0
   -5.8351   13.4526    8.8363 H   0  0  0  0  0  0  0  0  0  0  0  0
   -6.0285   13.1150    6.1782 H   0  0  0  0  0  0  0  0  0  0  0  0
   -5.9140   14.8425    6.5858 H   0  0  0  0  0  0  0  0  0  0  0  0
   -8.1881   12.2282    9.0960 H   0  0  0  0  0  0  0  0  0  0  0  0
  1  2  2  0  0  0  0
  2  3  1  0  0  0  0
  3  4  2  0  0  0  0
  3  5  1  0  0  0  0
  5  6  2  0  0  0  0
  6  7  1  0  0  0  0
  7  8  2  0  0  0  0
  8  9  1  0  0  0  0
  8 10  1  0  0  0  0
 10 11  1  0  0  0  0
 10 12  2  0  0  0  0
 12 13  1  0  0  0  0
  6 14  1  0  0  0  0
 14 15  2  0  0  0  0
 15 16  1  0  0  0  0
 16 17  3  0  0  0  0
 15 18  1  0  0  0  0
 18 19  3  0  0  0  0
  1 20  1  0  0  0  0
 20 21  2  0  0  0  0
 21 22  1  0  0  0  0
 22 23  1  0  0  0  0
 23 24  2  0  0  0  0
 24 25  1  0  0  0  0
 25 26  2  0  0  0  0
 26 27  1  0  0  0  0
 26 28  1  0  0  0  0
 28 29  2  0  0  0  0
 22 30  1  0  0  0  0
 30 31  2  0  0  0  0
 31 32  1  0  0  0  0
 32 33  2  0  0  0  0
 33 34  1  0  0  0  0
 33 35  1  0  0  0  0
 35 36  2  0  0  0  0
 21 37  1  0  0  0  0
 37 38  1  0  0  0  0
 38 39  1  0  0  0  0
 39 40  2  0  0  0  0
 40 41  1  0  0  0  0
 41 42  1  0  0  0  0
 42 43  2  0  0  0  0
 43 44  1  0  0  0  0
 44 45  2  0  0  0  0
 45 46  1  0  0  0  0
 45 47  1  0  0  0  0
 47 48  2  0  0  0  0
 41 49  1  0  0  0  0
 49 50  2  0  0  0  0
 50 51  1  0  0  0  0
 51 52  2  0  0  0  0
 52 53  1  0  0  0  0
 52 54  1  0  0  0  0
 54 55  2  0  0  0  0
 40 56  1  0  0  0  0
 56 57  1  0  0  0  0
 39 58  1  0  0  0  0
 58 59  2  0  0  0  0
 59 60  1  0  0  0  0
 60 61  2  0  0  0  0
 61 62  1  0  0  0  0
 62 63  2  0  0  0  0
 63 64  1  0  0  0  0
 64 65  1  0  0  0  0
 65 66  1  0  0  0  0
 64 67  2  0  0  0  0
 59 68  1  0  0  0  0
 68 69  1  0  0  0  0
 69 70  1  0  0  0  0
 70 71  1  0  0  0  0
 71 72  1  0  0  0  0
 72 73  1  0  0  0  0
 73 74  2  0  0  0  0
 74 75  1  0  0  0  0
 75 76  1  0  0  0  0
 73 77  1  0  0  0  0
 77 78  1  0  0  0  0
 78 79  1  0  0  0  0
 79 80  1  0  0  0  0
 80 81  1  0  0  0  0
 81 82  1  0  0  0  0
 82 83  2  0  0  0  0
 83 84  1  0  0  0  0
 84 85  2  0  0  0  0
 85 86  1  0  0  0  0
 86 87  1  0  0  0  0
 87 88  1  0  0  0  0
 86 89  2  0  0  0  0
 81 90  2  0  0  0  0
 90 91  1  0  0  0  0
 91 92  1  0  0  0  0
 92 93  1  0  0  0  0
 93 94  1  0  0  0  0
 94 95  1  0  0  0  0
 95 96  1  0  0  0  0
 96 97  1  0  0  0  0
 97 98  1  0  0  0  0
 98 99  1  0  0  0  0
 99100  1  0  0  0  0
 97101  1  0  0  0  0
101102  1  0  0  0  0
 94103  1  0  0  0  0
103104  1  0  0  0  0
 90105  1  0  0  0  0
105106  2  0  0  0  0
106107  1  0  0  0  0
107108  1  0  0  0  0
108109  2  0  0  0  0
109110  1  0  0  0  0
110111  2  0  0  0  0
111112  1  0  0  0  0
111113  1  0  0  0  0
113114  2  0  0  0  0
107115  1  0  0  0  0
115116  2  0  0  0  0
116117  1  0  0  0  0
117118  2  0  0  0  0
118119  1  0  0  0  0
118120  1  0  0  0  0
120121  2  0  0  0  0
106122  1  0  0  0  0
122123  1  0  0  0  0
123124  1  0  0  0  0
124125  2  0  0  0  0
125126  1  0  0  0  0
126127  1  0  0  0  0
127128  2  0  0  0  0
128129  1  0  0  0  0
129130  2  0  0  0  0
130131  1  0  0  0  0
130132  1  0  0  0  0
132133  2  0  0  0  0
126134  1  0  0  0  0
134135  2  0  0  0  0
135136  1  0  0  0  0
136137  2  0  0  0  0
137138  1  0  0  0  0
137139  1  0  0  0  0
139140  2  0  0  0  0
125141  1  0  0  0  0
141142  1  0  0  0  0
124143  1  0  0  0  0
143144  2  0  0  0  0
144145  1  0  0  0  0
145146  2  0  0  0  0
145147  1  0  0  0  0
147148  2  0  0  0  0
148149  1  0  0  0  0
149150  2  0  0  0  0
150151  1  0  0  0  0
151152  2  0  0  0  0
152153  1  0  0  0  0
153154  2  0  0  0  0
154155  1  0  0  0  0
155156  3  0  0  0  0
154157  1  0  0  0  0
157158  3  0  0  0  0
150159  1  0  0  0  0
159160  1  0  0  0  0
160161  1  0  0  0  0
161162  2  0  0  0  0
162163  1  0  0  0  0
163164  1  0  0  0  0
163165  1  0  0  0  0
 14  2  1  0  0  0  0
 57 20  1  0  0  0  0
100 58  1  0  0  0  0
142105  1  0  0  0  0
153144  1  0  0  0  0
165159  1  0  0  0  0
 12  5  1  0  0  0  0
 29 23  1  0  0  0  0
 36 30  1  0  0  0  0
 56 37  2  0  0  0  0
 67 60  1  0  0  0  0
 99 68  2  0  0  0  0
114108  1  0  0  0  0
121115  1  0  0  0  0
141122  2  0  0  0  0
152147  1  0  0  0  0
164160  1  0  0  0  0
 48 42  1  0  0  0  0
 55 49  1  0  0  0  0
 98 70  2  0  0  0  0
133127  1  0  0  0  0
140134  1  0  0  0  0
165149  1  0  0  0  0
 96 71  2  0  0  0  0
 76 72  2  0  0  0  0
 95 77  2  0  0  0  0
 93 78  2  0  0  0  0
 92 80  2  0  0  0  0
 89 82  1  0  0  0  0
  1166  1  0  0  0  0
  7167  1  0  0  0  0
 24168  1  0  0  0  0
 25169  1  0  0  0  0
 27170  1  0  0  0  0
 27171  1  0  0  0  0
 27172  1  0  0  0  0
 28173  1  0  0  0  0
 29174  1  0  0  0  0
 31175  1  0  0  0  0
 32176  1  0  0  0  0
 34177  1  0  0  0  0
 34178  1  0  0  0  0
 34179  1  0  0  0  0
 35180  1  0  0  0  0
 36181  1  0  0  0  0
 43182  1  0  0  0  0
 44183  1  0  0  0  0
 46184  1  0  0  0  0
 46185  1  0  0  0  0
 46186  1  0  0  0  0
 47187  1  0  0  0  0
 48188  1  0  0  0  0
 50189  1  0  0  0  0
 51190  1  0  0  0  0
 53191  1  0  0  0  0
 53192  1  0  0  0  0
 53193  1  0  0  0  0
 54194  1  0  0  0  0
 55195  1  0  0  0  0
 61196  1  0  0  0  0
 62197  1  0  0  0  0
 63198  1  0  0  0  0
 65199  1  0  0  0  0
 65200  1  0  0  0  0
 66201  1  0  0  0  0
 66202  1  0  0  0  0
 66203  1  0  0  0  0
 67204  1  0  0  0  0
 83205  1  0  0  0  0
 84206  1  0  0  0  0
 85207  1  0  0  0  0
 87208  1  0  0  0  0
 87209  1  0  0  0  0
 88210  1  0  0  0  0
 88211  1  0  0  0  0
 88212  1  0  0  0  0
 89213  1  0  0  0  0
101214  1  0  0  0  0
101215  1  0  0  0  0
102216  1  0  0  0  0
102217  1  0  0  0  0
102218  1  0  0  0  0
103219  1  0  0  0  0
103220  1  0  0  0  0
104221  1  0  0  0  0
104222  1  0  0  0  0
104223  1  0  0  0  0
109224  1  0  0  0  0
110225  1  0  0  0  0
112226  1  0  0  0  0
112227  1  0  0  0  0
112228  1  0  0  0  0
113229  1  0  0  0  0
114230  1  0  0  0  0
116231  1  0  0  0  0
117232  1  0  0  0  0
119233  1  0  0  0  0
119234  1  0  0  0  0
119235  1  0  0  0  0
120236  1  0  0  0  0
121237  1  0  0  0  0
128238  1  0  0  0  0
129239  1  0  0  0  0
131240  1  0  0  0  0
131241  1  0  0  0  0
131242  1  0  0  0  0
132243  1  0  0  0  0
133244  1  0  0  0  0
135245  1  0  0  0  0
136246  1  0  0  0  0
138247  1  0  0  0  0
138248  1  0  0  0  0
138249  1  0  0  0  0
139250  1  0  0  0  0
140251  1  0  0  0  0
143252  1  0  0  0  0
148253  1  0  0  0  0
151254  1  0  0  0  0
159255  1  0  0  0  0
160256  1  0  0  0  0
161257  1  0  0  0  0
162258  1  0  0  0  0
163259  1  0  0  0  0
164260  1  0  0  0  0
164261  1  0  0  0  0
165262  1  0  0  0  0
M  END
