
  xtb     02072219513D
 energy: -429.615012594742 gnorm: 0.000945021489 xtb: 6.4.1 (unknown)
255281  0     0  0            999 V2000
   -5.7177  -11.2931    4.3140 C   0  0  0  0  0  0  0  0  0  0  0  0
   -6.7770  -11.5396    5.1719 C   0  0  0  0  0  0  0  0  0  0  0  0
   -8.0225  -10.7813    5.2397 C   0  0  0  0  0  0  0  0  0  0  0  0
   -8.3136   -9.7483    4.6684 O   0  0  0  0  0  0  0  0  0  0  0  0
   -8.9065  -11.5499    6.1532 C   0  0  0  0  0  0  0  0  0  0  0  0
   -8.2214  -12.6856    6.6184 C   0  0  0  0  0  0  0  0  0  0  0  0
   -8.8354  -13.5665    7.4913 C   0  0  0  0  0  0  0  0  0  0  0  0
  -10.1388  -13.2949    7.8846 C   0  0  0  0  0  0  0  0  0  0  0  0
  -10.7518  -14.1348    8.7248 F   0  0  0  0  0  0  0  0  0  0  0  0
  -10.8306  -12.1755    7.4315 C   0  0  0  0  0  0  0  0  0  0  0  0
  -12.0861  -11.9486    7.8334 F   0  0  0  0  0  0  0  0  0  0  0  0
  -10.2031  -11.2899    6.5523 C   0  0  0  0  0  0  0  0  0  0  0  0
  -10.8679  -10.2193    6.1186 F   0  0  0  0  0  0  0  0  0  0  0  0
   -6.8760  -12.6832    6.0369 C   0  0  0  0  0  0  0  0  0  0  0  0
   -5.9009  -13.6151    6.3126 C   0  0  0  0  0  0  0  0  0  0  0  0
   -4.5648  -13.5532    5.8750 C   0  0  0  0  0  0  0  0  0  0  0  0
   -3.4495  -13.5620    5.5939 N   0  0  0  0  0  0  0  0  0  0  0  0
   -6.1033  -14.7624    7.1036 C   0  0  0  0  0  0  0  0  0  0  0  0
   -6.2052  -15.7268    7.7194 N   0  0  0  0  0  0  0  0  0  0  0  0
   -5.4972  -10.2508    3.4273 C   0  0  0  0  0  0  0  0  0  0  0  0
   -4.3772  -10.1959    2.5465 C   0  0  0  0  0  0  0  0  0  0  0  0
   -3.4997  -11.2154    2.3131 N   0  0  0  0  0  0  0  0  0  0  0  0
   -2.1781  -10.8982    1.9399 C   0  0  0  0  0  0  0  0  0  0  0  0
   -1.4745   -9.9202    2.6379 C   0  0  0  0  0  0  0  0  0  0  0  0
   -0.1830   -9.6036    2.2695 C   0  0  0  0  0  0  0  0  0  0  0  0
    0.4396  -10.2522    1.2087 C   0  0  0  0  0  0  0  0  0  0  0  0
    1.8473   -9.9115    0.8304 C   0  0  0  0  0  0  0  0  0  0  0  0
   -0.2676  -11.2359    0.5277 C   0  0  0  0  0  0  0  0  0  0  0  0
   -1.5622  -11.5592    0.8825 C   0  0  0  0  0  0  0  0  0  0  0  0
   -3.8936  -12.5677    2.2911 C   0  0  0  0  0  0  0  0  0  0  0  0
   -3.0271  -13.5508    2.7617 C   0  0  0  0  0  0  0  0  0  0  0  0
   -3.4127  -14.8763    2.7386 C   0  0  0  0  0  0  0  0  0  0  0  0
   -4.6619  -15.2540    2.2599 C   0  0  0  0  0  0  0  0  0  0  0  0
   -5.0777  -16.6919    2.2837 C   0  0  0  0  0  0  0  0  0  0  0  0
   -5.5093  -14.2656    1.7713 C   0  0  0  0  0  0  0  0  0  0  0  0
   -5.1327  -12.9376    1.7741 C   0  0  0  0  0  0  0  0  0  0  0  0
   -4.3082   -8.9483    1.9090 C   0  0  0  0  0  0  0  0  0  0  0  0
   -3.2431   -8.2595    0.7242 S   0  0  0  0  0  0  0  0  0  0  0  0
   -4.2768   -6.8447    0.6111 C   0  0  0  0  0  0  0  0  0  0  0  0
   -5.3225   -6.8605    1.5240 C   0  0  0  0  0  0  0  0  0  0  0  0
   -6.1821   -5.8111    1.7761 N   0  0  0  0  0  0  0  0  0  0  0  0
   -7.4865   -6.1187    2.2156 C   0  0  0  0  0  0  0  0  0  0  0  0
   -8.2339   -7.0843    1.5498 C   0  0  0  0  0  0  0  0  0  0  0  0
   -9.4819   -7.4387    2.0218 C   0  0  0  0  0  0  0  0  0  0  0  0
  -10.0141   -6.8428    3.1581 C   0  0  0  0  0  0  0  0  0  0  0  0
  -11.3340   -7.2835    3.7061 C   0  0  0  0  0  0  0  0  0  0  0  0
   -9.2724   -5.8546    3.7947 C   0  0  0  0  0  0  0  0  0  0  0  0
   -8.0220   -5.4926    3.3356 C   0  0  0  0  0  0  0  0  0  0  0  0
   -5.7482   -4.4829    1.7173 C   0  0  0  0  0  0  0  0  0  0  0  0
   -6.6356   -3.4693    1.3602 C   0  0  0  0  0  0  0  0  0  0  0  0
   -6.1826   -2.1775    1.1837 C   0  0  0  0  0  0  0  0  0  0  0  0
   -4.8444   -1.8500    1.3698 C   0  0  0  0  0  0  0  0  0  0  0  0
   -4.3428   -0.4693    1.0754 C   0  0  0  0  0  0  0  0  0  0  0  0
   -3.9865   -2.8448    1.8183 C   0  0  0  0  0  0  0  0  0  0  0  0
   -4.4281   -4.1402    2.0025 C   0  0  0  0  0  0  0  0  0  0  0  0
   -5.3539   -8.0885    2.2310 C   0  0  0  0  0  0  0  0  0  0  0  0
   -6.4785   -8.7821    3.3383 S   0  0  0  0  0  0  0  0  0  0  0  0
   -4.0108   -5.8013   -0.3334 C   0  0  0  0  0  0  0  0  0  0  0  0
   -4.9172   -5.2062   -1.1851 C   0  0  0  0  0  0  0  0  0  0  0  0
   -6.2817   -5.6714   -1.4723 C   0  0  0  0  0  0  0  0  0  0  0  0
   -7.2982   -4.7187   -1.4025 C   0  0  0  0  0  0  0  0  0  0  0  0
   -8.6145   -5.0524   -1.6427 C   0  0  0  0  0  0  0  0  0  0  0  0
   -8.9333   -6.3513   -1.9977 C   0  0  0  0  0  0  0  0  0  0  0  0
   -7.9253   -7.2858   -2.1306 C   0  0  0  0  0  0  0  0  0  0  0  0
   -6.5936   -6.9763   -1.8711 C   0  0  0  0  0  0  0  0  0  0  0  0
   -5.5583   -8.0427   -2.1154 C   0  0  0  0  0  0  0  0  0  0  0  0
   -5.8198   -9.3162   -1.3092 C   0  0  0  0  0  0  0  0  0  0  0  0
   -4.3685   -4.0436   -1.7688 C   0  0  0  0  0  0  0  0  0  0  0  0
   -5.0314   -2.8406   -2.8457 S   0  0  0  0  0  0  0  0  0  0  0  0
   -3.5401   -1.9678   -2.7516 C   0  0  0  0  0  0  0  0  0  0  0  0
   -2.9741   -0.7733   -3.2322 C   0  0  0  0  0  0  0  0  0  0  0  0
   -3.4303    0.1820   -4.1664 C   0  0  0  0  0  0  0  0  0  0  0  0
   -2.5699    1.2789   -4.5165 C   0  0  0  0  0  0  0  0  0  0  0  0
   -3.1009    2.0613   -5.4425 N   0  0  0  0  0  0  0  0  0  0  0  0
   -4.5578    1.4748   -5.8372 S   0  0  0  0  0  0  0  0  0  0  0  0
   -4.5693    0.1989   -4.8405 N   0  0  0  0  0  0  0  0  0  0  0  0
   -1.3559    1.4474   -3.8141 C   0  0  0  0  0  0  0  0  0  0  0  0
   -0.4461    2.5160   -3.7706 C   0  0  0  0  0  0  0  0  0  0  0  0
   -0.2266    4.0704   -4.5035 S   0  0  0  0  0  0  0  0  0  0  0  0
    1.0865    4.3746   -3.3904 C   0  0  0  0  0  0  0  0  0  0  0  0
    1.8851    5.5051   -3.1620 C   0  0  0  0  0  0  0  0  0  0  0  0
    1.7431    6.7485   -3.9365 C   0  0  0  0  0  0  0  0  0  0  0  0
    2.2335    6.8389   -5.2408 C   0  0  0  0  0  0  0  0  0  0  0  0
    2.9959    5.7084   -5.8725 C   0  0  0  0  0  0  0  0  0  0  0  0
    4.4511    5.6866   -5.4020 C   0  0  0  0  0  0  0  0  0  0  0  0
    2.0301    8.0197   -5.9407 C   0  0  0  0  0  0  0  0  0  0  0  0
    1.3397    9.0776   -5.3797 C   0  0  0  0  0  0  0  0  0  0  0  0
    0.8473    8.9755   -4.0909 C   0  0  0  0  0  0  0  0  0  0  0  0
    1.0524    7.8153   -3.3716 C   0  0  0  0  0  0  0  0  0  0  0  0
    2.7594    5.3094   -2.1051 C   0  0  0  0  0  0  0  0  0  0  0  0
    2.6232    3.6880   -1.4346 S   0  0  0  0  0  0  0  0  0  0  0  0
    1.3439    3.3066   -2.5270 C   0  0  0  0  0  0  0  0  0  0  0  0
    0.4642    2.2396   -2.7457 C   0  0  0  0  0  0  0  0  0  0  0  0
    0.1725    1.0270   -2.1745 N   0  0  0  0  0  0  0  0  0  0  0  0
   -0.9370    0.5162   -2.8252 C   0  0  0  0  0  0  0  0  0  0  0  0
   -1.6845   -0.6734   -2.6447 C   0  0  0  0  0  0  0  0  0  0  0  0
   -1.4503   -1.8068   -1.8826 N   0  0  0  0  0  0  0  0  0  0  0  0
   -2.5807   -2.5830   -1.9451 C   0  0  0  0  0  0  0  0  0  0  0  0
   -3.0521   -3.7803   -1.3918 C   0  0  0  0  0  0  0  0  0  0  0  0
   -2.4442   -4.9973   -0.3302 S   0  0  0  0  0  0  0  0  0  0  0  0
   -0.1751   -2.4204   -1.5848 C   0  0  0  0  0  0  0  0  0  0  0  0
    0.1542   -3.5310   -2.5822 C   0  0  0  0  0  0  0  0  0  0  0  0
    0.6867    0.7029   -0.8603 C   0  0  0  0  0  0  0  0  0  0  0  0
    2.1502    0.2663   -0.8975 C   0  0  0  0  0  0  0  0  0  0  0  0
    3.7441    6.2033   -1.6101 C   0  0  0  0  0  0  0  0  0  0  0  0
    4.6168    6.0107   -0.5412 C   0  0  0  0  0  0  0  0  0  0  0  0
    4.6165    4.9316    0.3414 N   0  0  0  0  0  0  0  0  0  0  0  0
    5.8740    4.3742    0.6347 C   0  0  0  0  0  0  0  0  0  0  0  0
    6.7715    4.1439   -0.4052 C   0  0  0  0  0  0  0  0  0  0  0  0
    8.0260    3.6333   -0.1417 C   0  0  0  0  0  0  0  0  0  0  0  0
    8.4171    3.3293    1.1568 C   0  0  0  0  0  0  0  0  0  0  0  0
    9.7900    2.8013    1.4367 C   0  0  0  0  0  0  0  0  0  0  0  0
    7.5129    3.5562    2.1873 C   0  0  0  0  0  0  0  0  0  0  0  0
    6.2587    4.0776    1.9385 C   0  0  0  0  0  0  0  0  0  0  0  0
    3.4885    4.6309    1.1074 C   0  0  0  0  0  0  0  0  0  0  0  0
    2.4937    5.5825    1.3283 C   0  0  0  0  0  0  0  0  0  0  0  0
    1.3524    5.2476    2.0274 C   0  0  0  0  0  0  0  0  0  0  0  0
    1.1664    3.9665    2.5346 C   0  0  0  0  0  0  0  0  0  0  0  0
   -0.0828    3.6225    3.2875 C   0  0  0  0  0  0  0  0  0  0  0  0
    2.1681    3.0273    2.3245 C   0  0  0  0  0  0  0  0  0  0  0  0
    3.3113    3.3455    1.6203 C   0  0  0  0  0  0  0  0  0  0  0  0
    5.5548    7.0605   -0.4552 C   0  0  0  0  0  0  0  0  0  0  0  0
    6.9294    7.3340    0.5463 S   0  0  0  0  0  0  0  0  0  0  0  0
    7.2390    8.8797   -0.2630 C   0  0  0  0  0  0  0  0  0  0  0  0
    6.3373    9.1054   -1.3298 C   0  0  0  0  0  0  0  0  0  0  0  0
    6.4171   10.0935   -2.2691 N   0  0  0  0  0  0  0  0  0  0  0  0
    5.2432   10.5770   -2.8848 C   0  0  0  0  0  0  0  0  0  0  0  0
    5.2443   10.8663   -4.2453 C   0  0  0  0  0  0  0  0  0  0  0  0
    4.1381   11.4534   -4.8278 C   0  0  0  0  0  0  0  0  0  0  0  0
    3.0112   11.7605   -4.0760 C   0  0  0  0  0  0  0  0  0  0  0  0
    1.8584   12.5018   -4.6804 C   0  0  0  0  0  0  0  0  0  0  0  0
    3.0019   11.4160   -2.7288 C   0  0  0  0  0  0  0  0  0  0  0  0
    4.1001   10.8306   -2.1330 C   0  0  0  0  0  0  0  0  0  0  0  0
    7.6352   10.6955   -2.6171 C   0  0  0  0  0  0  0  0  0  0  0  0
    7.6987   12.0676   -2.8538 C   0  0  0  0  0  0  0  0  0  0  0  0
    8.9067   12.6677   -3.1569 C   0  0  0  0  0  0  0  0  0  0  0  0
   10.0776   11.9261   -3.2372 C   0  0  0  0  0  0  0  0  0  0  0  0
   11.3942   12.5804   -3.5137 C   0  0  0  0  0  0  0  0  0  0  0  0
    9.9984   10.5493   -3.0396 C   0  0  0  0  0  0  0  0  0  0  0  0
    8.8004    9.9384   -2.7354 C   0  0  0  0  0  0  0  0  0  0  0  0
    5.3800    8.0698   -1.3924 C   0  0  0  0  0  0  0  0  0  0  0  0
    4.0357    7.7319   -2.4355 S   0  0  0  0  0  0  0  0  0  0  0  0
    8.3153    9.6250    0.2132 C   0  0  0  0  0  0  0  0  0  0  0  0
    8.4966   10.9873    0.0593 C   0  0  0  0  0  0  0  0  0  0  0  0
    7.3886   11.9414   -0.0832 C   0  0  0  0  0  0  0  0  0  0  0  0
    6.1976   11.6920   -0.1299 O   0  0  0  0  0  0  0  0  0  0  0  0
    8.0093   13.2819   -0.0236 C   0  0  0  0  0  0  0  0  0  0  0  0
    7.4149   14.5051   -0.1031 C   0  0  0  0  0  0  0  0  0  0  0  0
    8.2185   15.6675   -0.0380 C   0  0  0  0  0  0  0  0  0  0  0  0
    7.6582   16.9572   -0.1252 C   0  0  0  0  0  0  0  0  0  0  0  0
    8.4444   18.0746   -0.0573 C   0  0  0  0  0  0  0  0  0  0  0  0
    9.8270   17.9195    0.1000 C   0  0  0  0  0  0  0  0  0  0  0  0
   10.5871   19.0307    0.1637 F   0  0  0  0  0  0  0  0  0  0  0  0
   10.4217   16.6914    0.1888 C   0  0  0  0  0  0  0  0  0  0  0  0
    9.6270   15.5312    0.1209 C   0  0  0  0  0  0  0  0  0  0  0  0
   10.2138   14.2454    0.2076 C   0  0  0  0  0  0  0  0  0  0  0  0
    9.4163   13.1378    0.1307 C   0  0  0  0  0  0  0  0  0  0  0  0
    9.7280   11.7109    0.1625 C   0  0  0  0  0  0  0  0  0  0  0  0
   10.9891   11.1613    0.1260 C   0  0  0  0  0  0  0  0  0  0  0  0
   12.1747   11.9156    0.1156 C   0  0  0  0  0  0  0  0  0  0  0  0
   13.1725   12.4857    0.0821 N   0  0  0  0  0  0  0  0  0  0  0  0
   11.2402    9.7812    0.0125 C   0  0  0  0  0  0  0  0  0  0  0  0
   11.5142    8.6721   -0.1125 N   0  0  0  0  0  0  0  0  0  0  0  0
   -4.9362  -12.0415    4.3216 H   0  0  0  0  0  0  0  0  0  0  0  0
   -8.3510  -14.4488    7.8750 H   0  0  0  0  0  0  0  0  0  0  0  0
   -1.9441   -9.4195    3.4719 H   0  0  0  0  0  0  0  0  0  0  0  0
    0.3539   -8.8435    2.8177 H   0  0  0  0  0  0  0  0  0  0  0  0
    2.5452  -10.4137    1.5009 H   0  0  0  0  0  0  0  0  0  0  0  0
    2.0652  -10.2299   -0.1858 H   0  0  0  0  0  0  0  0  0  0  0  0
    2.0193   -8.8404    0.9107 H   0  0  0  0  0  0  0  0  0  0  0  0
    0.1985  -11.7523   -0.2987 H   0  0  0  0  0  0  0  0  0  0  0  0
   -2.1049  -12.3186    0.3394 H   0  0  0  0  0  0  0  0  0  0  0  0
   -2.0633  -13.2702    3.1557 H   0  0  0  0  0  0  0  0  0  0  0  0
   -2.7385  -15.6288    3.1181 H   0  0  0  0  0  0  0  0  0  0  0  0
   -6.0107  -16.8390    1.7457 H   0  0  0  0  0  0  0  0  0  0  0  0
   -4.3101  -17.3204    1.8360 H   0  0  0  0  0  0  0  0  0  0  0  0
   -5.2167  -17.0227    3.3130 H   0  0  0  0  0  0  0  0  0  0  0  0
   -6.4761  -14.5388    1.3740 H   0  0  0  0  0  0  0  0  0  0  0  0
   -5.7977  -12.1816    1.3827 H   0  0  0  0  0  0  0  0  0  0  0  0
   -7.8294   -7.5521    0.6643 H   0  0  0  0  0  0  0  0  0  0  0  0
  -10.0485   -8.1979    1.5032 H   0  0  0  0  0  0  0  0  0  0  0  0
  -11.8106   -6.4865    4.2717 H   0  0  0  0  0  0  0  0  0  0  0  0
  -12.0015   -7.6038    2.9093 H   0  0  0  0  0  0  0  0  0  0  0  0
  -11.1783   -8.1287    4.3766 H   0  0  0  0  0  0  0  0  0  0  0  0
   -9.6717   -5.3745    4.6763 H   0  0  0  0  0  0  0  0  0  0  0  0
   -7.4460   -4.7360    3.8488 H   0  0  0  0  0  0  0  0  0  0  0  0
   -7.6761   -3.7105    1.2047 H   0  0  0  0  0  0  0  0  0  0  0  0
   -6.8785   -1.4106    0.8751 H   0  0  0  0  0  0  0  0  0  0  0  0
   -4.1639   -0.3605    0.0040 H   0  0  0  0  0  0  0  0  0  0  0  0
   -5.0739    0.2808    1.3686 H   0  0  0  0  0  0  0  0  0  0  0  0
   -3.4081   -0.2744    1.5965 H   0  0  0  0  0  0  0  0  0  0  0  0
   -2.9516   -2.6076    2.0216 H   0  0  0  0  0  0  0  0  0  0  0  0
   -3.7443   -4.8943    2.3641 H   0  0  0  0  0  0  0  0  0  0  0  0
   -7.0411   -3.7036   -1.1450 H   0  0  0  0  0  0  0  0  0  0  0  0
   -9.3852   -4.3007   -1.5642 H   0  0  0  0  0  0  0  0  0  0  0  0
   -9.9584   -6.6293   -2.1921 H   0  0  0  0  0  0  0  0  0  0  0  0
   -8.1739   -8.2850   -2.4573 H   0  0  0  0  0  0  0  0  0  0  0  0
   -4.5621   -7.6653   -1.8884 H   0  0  0  0  0  0  0  0  0  0  0  0
   -5.5751   -8.2954   -3.1803 H   0  0  0  0  0  0  0  0  0  0  0  0
   -5.9598   -9.0835   -0.2564 H   0  0  0  0  0  0  0  0  0  0  0  0
   -4.9777   -9.9985   -1.4034 H   0  0  0  0  0  0  0  0  0  0  0  0
   -6.7123   -9.8269   -1.6618 H   0  0  0  0  0  0  0  0  0  0  0  0
    2.9737    5.8256   -6.9575 H   0  0  0  0  0  0  0  0  0  0  0  0
    2.5249    4.7548   -5.6277 H   0  0  0  0  0  0  0  0  0  0  0  0
    4.5061    5.4806   -4.3361 H   0  0  0  0  0  0  0  0  0  0  0  0
    4.9232    6.6487   -5.5889 H   0  0  0  0  0  0  0  0  0  0  0  0
    5.0068    4.9155   -5.9308 H   0  0  0  0  0  0  0  0  0  0  0  0
    2.4098    8.1036   -6.9490 H   0  0  0  0  0  0  0  0  0  0  0  0
    1.1784    9.9764   -5.9538 H   0  0  0  0  0  0  0  0  0  0  0  0
    0.2960    9.7906   -3.6477 H   0  0  0  0  0  0  0  0  0  0  0  0
    0.6702    7.7199   -2.3653 H   0  0  0  0  0  0  0  0  0  0  0  0
    0.6024   -1.6664   -1.6399 H   0  0  0  0  0  0  0  0  0  0  0  0
   -0.2161   -2.8339   -0.5717 H   0  0  0  0  0  0  0  0  0  0  0  0
   -0.5717   -4.3370   -2.5222 H   0  0  0  0  0  0  0  0  0  0  0  0
    0.1551   -3.1365   -3.5962 H   0  0  0  0  0  0  0  0  0  0  0  0
    1.1380   -3.9370   -2.3631 H   0  0  0  0  0  0  0  0  0  0  0  0
    0.0497   -0.0606   -0.4122 H   0  0  0  0  0  0  0  0  0  0  0  0
    0.6150    1.6045   -0.2394 H   0  0  0  0  0  0  0  0  0  0  0  0
    2.7795    1.0950   -1.2087 H   0  0  0  0  0  0  0  0  0  0  0  0
    2.4621   -0.0452    0.0953 H   0  0  0  0  0  0  0  0  0  0  0  0
    2.3108   -0.5566   -1.5905 H   0  0  0  0  0  0  0  0  0  0  0  0
    6.4775    4.3708   -1.4202 H   0  0  0  0  0  0  0  0  0  0  0  0
    8.7135    3.4662   -0.9581 H   0  0  0  0  0  0  0  0  0  0  0  0
   10.4923    3.6300    1.5313 H   0  0  0  0  0  0  0  0  0  0  0  0
    9.8086    2.2348    2.3646 H   0  0  0  0  0  0  0  0  0  0  0  0
   10.1334    2.1637    0.6249 H   0  0  0  0  0  0  0  0  0  0  0  0
    7.7995    3.3347    3.2052 H   0  0  0  0  0  0  0  0  0  0  0  0
    5.5774    4.2691    2.7541 H   0  0  0  0  0  0  0  0  0  0  0  0
    2.6184    6.5856    0.9473 H   0  0  0  0  0  0  0  0  0  0  0  0
    0.5901    5.9969    2.1864 H   0  0  0  0  0  0  0  0  0  0  0  0
   -0.9650    3.8560    2.6927 H   0  0  0  0  0  0  0  0  0  0  0  0
   -0.1045    2.5663    3.5446 H   0  0  0  0  0  0  0  0  0  0  0  0
   -0.1419    4.2024    4.2082 H   0  0  0  0  0  0  0  0  0  0  0  0
    2.0479    2.0240    2.7084 H   0  0  0  0  0  0  0  0  0  0  0  0
    4.0672    2.5955    1.4430 H   0  0  0  0  0  0  0  0  0  0  0  0
    6.1225   10.6504   -4.8364 H   0  0  0  0  0  0  0  0  0  0  0  0
    4.1593   11.6908   -5.8815 H   0  0  0  0  0  0  0  0  0  0  0  0
    1.8811   12.4449   -5.7657 H   0  0  0  0  0  0  0  0  0  0  0  0
    0.9092   12.1112   -4.3217 H   0  0  0  0  0  0  0  0  0  0  0  0
    1.9112   13.5540   -4.3976 H   0  0  0  0  0  0  0  0  0  0  0  0
    2.1320   11.6394   -2.1287 H   0  0  0  0  0  0  0  0  0  0  0  0
    4.1078   10.6238   -1.0748 H   0  0  0  0  0  0  0  0  0  0  0  0
    6.7992   12.6608   -2.7882 H   0  0  0  0  0  0  0  0  0  0  0  0
    8.9384   13.7356   -3.3184 H   0  0  0  0  0  0  0  0  0  0  0  0
   11.9801   12.6489   -2.5962 H   0  0  0  0  0  0  0  0  0  0  0  0
   11.9713   11.9982   -4.2292 H   0  0  0  0  0  0  0  0  0  0  0  0
   11.2555   13.5858   -3.9030 H   0  0  0  0  0  0  0  0  0  0  0  0
   10.8923    9.9481   -3.1192 H   0  0  0  0  0  0  0  0  0  0  0  0
    8.7653    8.8699   -2.5837 H   0  0  0  0  0  0  0  0  0  0  0  0
    9.0449    9.0734    0.7946 H   0  0  0  0  0  0  0  0  0  0  0  0
    6.3448   14.5903   -0.2208 H   0  0  0  0  0  0  0  0  0  0  0  0
    6.5891   17.0511   -0.2453 H   0  0  0  0  0  0  0  0  0  0  0  0
    8.0302   19.0684   -0.1200 H   0  0  0  0  0  0  0  0  0  0  0  0
   11.4907   16.6100    0.3091 H   0  0  0  0  0  0  0  0  0  0  0  0
   11.2817   14.1739    0.3389 H   0  0  0  0  0  0  0  0  0  0  0  0
  1  2  2  0  0  0  0
  2  3  1  0  0  0  0
  3  4  2  0  0  0  0
  3  5  1  0  0  0  0
  5  6  2  0  0  0  0
  6  7  1  0  0  0  0
  7  8  2  0  0  0  0
  8  9  1  0  0  0  0
  8 10  1  0  0  0  0
 10 11  1  0  0  0  0
 10 12  2  0  0  0  0
 12 13  1  0  0  0  0
  6 14  1  0  0  0  0
 14 15  2  0  0  0  0
 15 16  1  0  0  0  0
 16 17  3  0  0  0  0
 15 18  1  0  0  0  0
 18 19  3  0  0  0  0
  1 20  1  0  0  0  0
 20 21  2  0  0  0  0
 21 22  1  0  0  0  0
 22 23  1  0  0  0  0
 23 24  2  0  0  0  0
 24 25  1  0  0  0  0
 25 26  2  0  0  0  0
 26 27  1  0  0  0  0
 26 28  1  0  0  0  0
 28 29  2  0  0  0  0
 22 30  1  0  0  0  0
 30 31  2  0  0  0  0
 31 32  1  0  0  0  0
 32 33  2  0  0  0  0
 33 34  1  0  0  0  0
 33 35  1  0  0  0  0
 35 36  2  0  0  0  0
 21 37  1  0  0  0  0
 37 38  1  0  0  0  0
 38 39  1  0  0  0  0
 39 40  2  0  0  0  0
 40 41  1  0  0  0  0
 41 42  1  0  0  0  0
 42 43  2  0  0  0  0
 43 44  1  0  0  0  0
 44 45  2  0  0  0  0
 45 46  1  0  0  0  0
 45 47  1  0  0  0  0
 47 48  2  0  0  0  0
 41 49  1  0  0  0  0
 49 50  2  0  0  0  0
 50 51  1  0  0  0  0
 51 52  2  0  0  0  0
 52 53  1  0  0  0  0
 52 54  1  0  0  0  0
 54 55  2  0  0  0  0
 40 56  1  0  0  0  0
 56 57  1  0  0  0  0
 39 58  1  0  0  0  0
 58 59  2  0  0  0  0
 59 60  1  0  0  0  0
 60 61  2  0  0  0  0
 61 62  1  0  0  0  0
 62 63  2  0  0  0  0
 63 64  1  0  0  0  0
 64 65  2  0  0  0  0
 65 66  1  0  0  0  0
 66 67  1  0  0  0  0
 59 68  1  0  0  0  0
 68 69  1  0  0  0  0
 69 70  1  0  0  0  0
 70 71  1  0  0  0  0
 71 72  1  0  0  0  0
 72 73  1  0  0  0  0
 73 74  2  0  0  0  0
 74 75  1  0  0  0  0
 75 76  1  0  0  0  0
 73 77  1  0  0  0  0
 77 78  1  0  0  0  0
 78 79  1  0  0  0  0
 79 80  1  0  0  0  0
 80 81  1  0  0  0  0
 81 82  1  0  0  0  0
 82 83  2  0  0  0  0
 83 84  1  0  0  0  0
 84 85  1  0  0  0  0
 83 86  1  0  0  0  0
 86 87  2  0  0  0  0
 87 88  1  0  0  0  0
 88 89  2  0  0  0  0
 81 90  2  0  0  0  0
 90 91  1  0  0  0  0
 91 92  1  0  0  0  0
 92 93  1  0  0  0  0
 93 94  1  0  0  0  0
 94 95  1  0  0  0  0
 95 96  1  0  0  0  0
 96 97  1  0  0  0  0
 97 98  1  0  0  0  0
 98 99  1  0  0  0  0
 99100  1  0  0  0  0
 97101  1  0  0  0  0
101102  1  0  0  0  0
 94103  1  0  0  0  0
103104  1  0  0  0  0
 90105  1  0  0  0  0
105106  2  0  0  0  0
106107  1  0  0  0  0
107108  1  0  0  0  0
108109  2  0  0  0  0
109110  1  0  0  0  0
110111  2  0  0  0  0
111112  1  0  0  0  0
111113  1  0  0  0  0
113114  2  0  0  0  0
107115  1  0  0  0  0
115116  2  0  0  0  0
116117  1  0  0  0  0
117118  2  0  0  0  0
118119  1  0  0  0  0
118120  1  0  0  0  0
120121  2  0  0  0  0
106122  1  0  0  0  0
122123  1  0  0  0  0
123124  1  0  0  0  0
124125  2  0  0  0  0
125126  1  0  0  0  0
126127  1  0  0  0  0
127128  2  0  0  0  0
128129  1  0  0  0  0
129130  2  0  0  0  0
130131  1  0  0  0  0
130132  1  0  0  0  0
132133  2  0  0  0  0
126134  1  0  0  0  0
134135  2  0  0  0  0
135136  1  0  0  0  0
136137  2  0  0  0  0
137138  1  0  0  0  0
137139  1  0  0  0  0
139140  2  0  0  0  0
125141  1  0  0  0  0
141142  1  0  0  0  0
124143  1  0  0  0  0
143144  2  0  0  0  0
144145  1  0  0  0  0
145146  2  0  0  0  0
145147  1  0  0  0  0
147148  2  0  0  0  0
148149  1  0  0  0  0
149150  2  0  0  0  0
150151  1  0  0  0  0
151152  2  0  0  0  0
152153  1  0  0  0  0
152154  1  0  0  0  0
154155  2  0  0  0  0
155156  1  0  0  0  0
156157  2  0  0  0  0
157158  1  0  0  0  0
158159  2  0  0  0  0
159160  1  0  0  0  0
160161  3  0  0  0  0
159162  1  0  0  0  0
162163  3  0  0  0  0
 14  2  1  0  0  0  0
 57 20  1  0  0  0  0
100 58  1  0  0  0  0
142105  1  0  0  0  0
158144  1  0  0  0  0
 12  5  1  0  0  0  0
 29 23  1  0  0  0  0
 36 30  1  0  0  0  0
 56 37  2  0  0  0  0
 65 60  1  0  0  0  0
 99 68  2  0  0  0  0
114108  1  0  0  0  0
121115  1  0  0  0  0
141122  2  0  0  0  0
157147  1  0  0  0  0
 48 42  1  0  0  0  0
 55 49  1  0  0  0  0
 98 70  2  0  0  0  0
133127  1  0  0  0  0
140134  1  0  0  0  0
155149  1  0  0  0  0
 96 71  2  0  0  0  0
 76 72  2  0  0  0  0
 95 77  2  0  0  0  0
 93 78  2  0  0  0  0
 92 80  2  0  0  0  0
 89 82  1  0  0  0  0
  1164  1  0  0  0  0
  7165  1  0  0  0  0
 24166  1  0  0  0  0
 25167  1  0  0  0  0
 27168  1  0  0  0  0
 27169  1  0  0  0  0
 27170  1  0  0  0  0
 28171  1  0  0  0  0
 29172  1  0  0  0  0
 31173  1  0  0  0  0
 32174  1  0  0  0  0
 34175  1  0  0  0  0
 34176  1  0  0  0  0
 34177  1  0  0  0  0
 35178  1  0  0  0  0
 36179  1  0  0  0  0
 43180  1  0  0  0  0
 44181  1  0  0  0  0
 46182  1  0  0  0  0
 46183  1  0  0  0  0
 46184  1  0  0  0  0
 47185  1  0  0  0  0
 48186  1  0  0  0  0
 50187  1  0  0  0  0
 51188  1  0  0  0  0
 53189  1  0  0  0  0
 53190  1  0  0  0  0
 53191  1  0  0  0  0
 54192  1  0  0  0  0
 55193  1  0  0  0  0
 61194  1  0  0  0  0
 62195  1  0  0  0  0
 63196  1  0  0  0  0
 64197  1  0  0  0  0
 66198  1  0  0  0  0
 66199  1  0  0  0  0
 67200  1  0  0  0  0
 67201  1  0  0  0  0
 67202  1  0  0  0  0
 84203  1  0  0  0  0
 84204  1  0  0  0  0
 85205  1  0  0  0  0
 85206  1  0  0  0  0
 85207  1  0  0  0  0
 86208  1  0  0  0  0
 87209  1  0  0  0  0
 88210  1  0  0  0  0
 89211  1  0  0  0  0
101212  1  0  0  0  0
101213  1  0  0  0  0
102214  1  0  0  0  0
102215  1  0  0  0  0
102216  1  0  0  0  0
103217  1  0  0  0  0
103218  1  0  0  0  0
104219  1  0  0  0  0
104220  1  0  0  0  0
104221  1  0  0  0  0
109222  1  0  0  0  0
110223  1  0  0  0  0
112224  1  0  0  0  0
112225  1  0  0  0  0
112226  1  0  0  0  0
113227  1  0  0  0  0
114228  1  0  0  0  0
116229  1  0  0  0  0
117230  1  0  0  0  0
119231  1  0  0  0  0
119232  1  0  0  0  0
119233  1  0  0  0  0
120234  1  0  0  0  0
121235  1  0  0  0  0
128236  1  0  0  0  0
129237  1  0  0  0  0
131238  1  0  0  0  0
131239  1  0  0  0  0
131240  1  0  0  0  0
132241  1  0  0  0  0
133242  1  0  0  0  0
135243  1  0  0  0  0
136244  1  0  0  0  0
138245  1  0  0  0  0
138246  1  0  0  0  0
138247  1  0  0  0  0
139248  1  0  0  0  0
140249  1  0  0  0  0
143250  1  0  0  0  0
148251  1  0  0  0  0
150252  1  0  0  0  0
151253  1  0  0  0  0
154254  1  0  0  0  0
156255  1  0  0  0  0
M  END
