225

C         11.39010        8.73670        5.33460
C         12.22910        9.18200        6.32480
C         12.75000        8.37690        7.44000
O         12.51630        7.21700        7.69970
C         13.64290        9.28440        8.20060
C         13.65420       10.55270        7.59430
C         14.42380       11.57550        8.12350
C         15.17240       11.30900        9.26090
F         15.92150       12.28100        9.78660
C         15.16840       10.05840        9.87480
F         15.90170        9.84380       10.97050
C         14.39190        9.03070        9.33560
F         14.38910        7.83740        9.92180
C         12.76670       10.52250        6.42970
C         12.49650       11.59920        5.62400
C         11.61330       11.61010        4.52310
N         10.90930       11.71900        3.62210
C         13.06170       12.88090        5.79580
N         13.48500       13.94460        5.87760
C         10.79200        7.48160        5.13170
C          9.96620        7.24280        4.04160
C          9.44070        5.94780        3.99730
C          8.56360        5.39190        3.03270
C          8.20640        6.11810        1.82940
S          6.54990        6.27710        1.32430
C          6.98430        7.17800       -0.08740
C          5.95070        7.62370       -1.06110
C          5.51980        6.46650       -1.96540
C          8.33790        7.32610       -0.15820
Cl         9.14780        8.14840       -1.42810
C          9.03380        6.73360        0.92910
Cl        10.74790        6.72410        1.02600
C          8.08950        4.11970        3.29110
C          8.47470        3.36670        4.43300
C          9.39170        3.89290        5.36230
C          9.83800        3.10790        6.49620
C          9.10170        2.32870        7.34490
C          9.88250        1.68060        8.32080
C         11.21350        1.94810        8.21380
C         12.32910        1.48520        9.08570
C         12.76600        2.59440       10.04570
S         11.52780        3.03390        6.90340
C          9.85870        5.17960        5.11820
S         10.93610        6.06600        6.15410
C          7.89630        2.08200        4.43870
C          7.11300        1.81760        3.34960
S          7.02870        3.19530        2.26140
C          6.38920        0.62870        3.05330
C          6.44510       -0.61060        3.67620
C          7.36320       -0.99300        4.75510
C          6.84910       -1.52830        5.93140
C          7.70030       -1.83790        6.97690
C          9.05960       -1.61380        6.85970
C          9.59410       -1.10290        5.68210
C         11.07380       -0.88800        5.54850
C         11.77280       -2.18440        5.13610
C          8.73870       -0.81500        4.63040
C          5.46860       -1.48090        3.15850
S          5.03240       -3.13110        3.53860
C          3.77270       -3.04820        2.35330
C          2.73440       -3.84610        1.83940
C          2.37540       -5.19580        2.05100
C          1.25140       -5.74030        1.33810
N          1.06640       -7.02530        1.59500
S          2.20000       -7.50940        2.64480
N          2.97260       -6.09690        2.81450
C          0.45150       -4.87610        0.55680
C         -0.82080       -5.04210       -0.01700
S         -2.02030       -6.27390       -0.22740
C         -3.10550       -5.08530       -0.90690
C         -4.43640       -5.15110       -1.38080
C         -5.28710       -6.33670       -1.31070
C         -4.73670       -7.61290       -1.40360
C         -5.55240       -8.72330       -1.31460
C         -6.91580       -8.58470       -1.12170
C         -7.48480       -7.32240       -1.00650
C         -8.95560       -7.12690       -0.74730
C         -9.85090       -8.19430       -1.37000
C         -6.65830       -6.21220       -1.10210
C         -4.85630       -3.91550       -1.83440
S         -3.65520       -2.65670       -1.60120
C         -2.54170       -3.81110       -0.96800
C         -1.23150       -3.78720       -0.47190
N         -0.24960       -2.86190       -0.24200
C          0.79900       -3.50810        0.38400
C          2.02670       -3.03680        0.91010
N          2.66330       -1.81080        0.80310
C          3.70740       -1.81750        1.69410
C          4.68490       -0.92480        2.14330
S          5.15270        0.70120        1.80660
C          2.73420       -0.94940       -0.35810
C          3.98190       -1.24390       -1.19120
C         -0.53550       -1.45040       -0.36260
C         -0.55790       -0.99520       -1.82180
C         -6.04000       -3.57100       -2.56340
C         -6.54610       -4.19100       -3.70000
N         -5.96050       -5.26310       -4.34490
C         -6.76690       -6.19650       -5.01270
C         -8.00640       -6.56130       -4.49240
C         -8.80940       -7.45270       -5.17430
C         -8.39810       -8.01910       -6.37510
C         -9.28910       -8.97860       -7.10210
C         -7.15260       -7.66390       -6.87670
C         -6.34630       -6.75970       -6.21380
C         -4.56200       -5.38990       -4.35780
C         -3.74950       -4.26450       -4.46910
C         -2.37780       -4.38120       -4.35650
C         -1.77790       -5.61630       -4.15260
C         -0.29950       -5.73860       -3.94700
C         -2.59120       -6.74390       -4.12390
C         -3.96350       -6.63990       -4.22560
C         -7.70230       -3.51420       -4.15830
S         -8.81260       -3.79450       -5.44680
C         -9.69590       -2.30880       -5.04530
C         -9.18290       -1.69150       -3.87630
N         -9.73890       -0.66180       -3.18260
C        -11.10290       -0.34460       -3.22680
C        -12.07930       -1.33970       -3.27190
C        -13.41270       -0.99890       -3.34800
C        -13.81750        0.33440       -3.37990
C        -15.26650        0.68120       -3.51100
C        -12.84230        1.31800       -3.28680
C        -11.50110        0.99090       -3.20870
C         -8.91320        0.12570       -2.34460
C         -7.73040        0.66900       -2.83620
C         -6.93380        1.43420       -2.00930
C         -7.29450        1.67660       -0.68760
C         -6.40550        2.49080        0.20020
C         -8.48670        1.14220       -0.21540
C         -9.29450        0.37310       -1.03150
C         -8.03220       -2.37820       -3.42850
S         -6.92710       -2.12390       -2.12040
C        -10.74250       -1.95790       -5.88780
C        -11.28160       -0.68710       -6.03160
C        -10.51100        0.53830       -5.80920
O         -9.35100        0.63330       -5.46180
C        -11.41250        1.64490       -6.22970
C        -12.63300        1.10990       -6.67570
C        -13.64370        1.93720       -7.12780
C        -13.41810        3.30750       -7.11810
F        -14.38290        4.12880       -7.54740
C        -12.22040        3.85440       -6.66980
F        -12.04550        5.18130       -6.65960
C        -11.20130        3.00900       -6.22330
F        -10.06080        3.53990       -5.78130
C        -12.57560       -0.34670       -6.53170
C        -13.63850       -1.20810       -6.67820
C        -13.57300       -2.58240       -6.37750
N        -13.59580       -3.70060       -6.11550
C        -14.93360       -0.80760       -7.05000
N        -16.01240       -0.52810       -7.32970
H         11.12820        9.45340        4.56550
H         14.46860       12.56250        7.69460
H          9.74200        8.00650        3.31840
H          6.36620        8.43040       -1.66720
H          5.08170        8.00340       -0.52050
H          6.37160        6.08810       -2.52470
H          4.76350        6.80450       -2.66860
H          5.10780        5.65600       -1.36860
H          8.02930        2.25860        7.30430
H          9.46790        1.03500        9.07460
H         13.18160        1.19050        8.46880
H         11.99750        0.61410        9.65530
H         13.58760        2.25120       10.66910
H         13.09190        3.46930        9.48820
H         11.93840        2.88530       10.68840
H          8.06640        1.37290        5.22340
H          5.78470       -1.67720        6.03220
H          7.29630       -2.24450        7.89210
H          9.71710       -1.83470        7.68790
H         11.26910       -0.11610        4.80140
H         11.47870       -0.54580        6.50350
H         12.84370       -2.02390        5.03760
H         11.38470       -2.53660        4.18300
H         11.60420       -2.95930        5.88040
H          9.13900       -0.42430        3.70540
H         -3.67690       -7.73250       -1.56110
H         -5.12040       -9.71000       -1.39350
H         -7.53150       -9.46700       -1.04980
H         -9.24970       -6.14390       -1.12540
H         -9.11710       -7.11120        0.33580
H         -9.74970       -9.14490       -0.85260
H         -9.59500       -8.34030       -2.41680
H        -10.89260       -7.88810       -1.30550
H         -7.08670       -5.22660       -0.98470
H          2.75340        0.09090       -0.01760
H          1.86070       -1.11340       -0.97890
H          3.99070       -2.28770       -1.49870
H          4.88660       -1.04030       -0.62560
H          3.98290       -0.61680       -2.07860
H          0.18740       -0.88780        0.22850
H         -1.52750       -1.27440        0.06900
H         -0.68680        0.08230       -1.86870
H         -1.38750       -1.46420       -2.34340
H          0.35970       -1.26220       -2.34180
H         -8.32970       -6.14940       -3.54900
H         -9.77650       -7.71510       -4.77040
H         -8.78460       -9.40100       -7.96710
H        -10.19090       -8.46980       -7.44160
H         -9.59490       -9.79070       -6.44410
H         -6.81090       -8.09010       -7.80890
H         -5.38830       -6.48010       -6.62680
H         -4.19780       -3.29450       -4.62960
H         -1.76530       -3.49300       -4.42390
H          0.20820       -4.81240       -4.20470
H          0.11000       -6.54520       -4.55190
H         -0.08710       -5.96740       -2.90170
H         -2.14170       -7.71790       -3.99610
H         -4.58450       -7.52160       -4.17650
H        -11.79060       -2.37980       -3.25080
H        -14.15660       -1.78090       -3.39040
H        -15.66950        0.28550       -4.44320
H        -15.83820        0.24230       -2.69460
H        -15.41270        1.75790       -3.50040
H        -13.13200        2.35880       -3.28760
H        -10.75230        1.76640       -3.14690
H         -7.46940        0.50950       -3.87050
H         -6.01980        1.85890       -2.39720
H         -6.92170        2.78000        1.11180
H         -6.06800        3.38840       -0.31420
H         -5.52330        1.91180        0.47370
H         -8.78830        1.32600        0.80540
H        -10.21920       -0.04040       -0.65580
H        -11.12710       -2.75130       -6.51750
H        -14.58970        1.56760       -7.48720
