
  xtb     02182214073D
 energy: -405.340095686383 gnorm: 0.000785916993 xtb: 6.4.1 (unknown)
225249  0     0  0            999 V2000
   11.3901    8.7367    5.3346 C   0  0  0  0  0  0  0  0  0  0  0  0
   12.2291    9.1820    6.3248 C   0  0  0  0  0  0  0  0  0  0  0  0
   12.7500    8.3769    7.4400 C   0  0  0  0  0  0  0  0  0  0  0  0
   12.5163    7.2170    7.6997 O   0  0  0  0  0  0  0  0  0  0  0  0
   13.6429    9.2844    8.2006 C   0  0  0  0  0  0  0  0  0  0  0  0
   13.6542   10.5527    7.5943 C   0  0  0  0  0  0  0  0  0  0  0  0
   14.4238   11.5755    8.1235 C   0  0  0  0  0  0  0  0  0  0  0  0
   15.1724   11.3090    9.2609 C   0  0  0  0  0  0  0  0  0  0  0  0
   15.9215   12.2810    9.7866 F   0  0  0  0  0  0  0  0  0  0  0  0
   15.1684   10.0584    9.8748 C   0  0  0  0  0  0  0  0  0  0  0  0
   15.9017    9.8438   10.9705 F   0  0  0  0  0  0  0  0  0  0  0  0
   14.3919    9.0307    9.3356 C   0  0  0  0  0  0  0  0  0  0  0  0
   14.3891    7.8374    9.9218 F   0  0  0  0  0  0  0  0  0  0  0  0
   12.7667   10.5225    6.4297 C   0  0  0  0  0  0  0  0  0  0  0  0
   12.4965   11.5992    5.6240 C   0  0  0  0  0  0  0  0  0  0  0  0
   11.6133   11.6101    4.5231 C   0  0  0  0  0  0  0  0  0  0  0  0
   10.9093   11.7190    3.6221 N   0  0  0  0  0  0  0  0  0  0  0  0
   13.0617   12.8809    5.7958 C   0  0  0  0  0  0  0  0  0  0  0  0
   13.4850   13.9446    5.8776 N   0  0  0  0  0  0  0  0  0  0  0  0
   10.7920    7.4816    5.1317 C   0  0  0  0  0  0  0  0  0  0  0  0
    9.9662    7.2428    4.0416 C   0  0  0  0  0  0  0  0  0  0  0  0
    9.4407    5.9478    3.9973 C   0  0  0  0  0  0  0  0  0  0  0  0
    8.5636    5.3919    3.0327 C   0  0  0  0  0  0  0  0  0  0  0  0
    8.2064    6.1181    1.8294 C   0  0  0  0  0  0  0  0  0  0  0  0
    6.5499    6.2771    1.3243 S   0  0  0  0  0  0  0  0  0  0  0  0
    6.9843    7.1780   -0.0874 C   0  0  0  0  0  0  0  0  0  0  0  0
    5.9507    7.6237   -1.0611 C   0  0  0  0  0  0  0  0  0  0  0  0
    5.5198    6.4665   -1.9654 C   0  0  0  0  0  0  0  0  0  0  0  0
    8.3379    7.3261   -0.1582 C   0  0  0  0  0  0  0  0  0  0  0  0
    9.1478    8.1484   -1.4281 Cl  0  0  0  0  0  0  0  0  0  0  0  0
    9.0338    6.7336    0.9291 C   0  0  0  0  0  0  0  0  0  0  0  0
   10.7479    6.7241    1.0260 Cl  0  0  0  0  0  0  0  0  0  0  0  0
    8.0895    4.1197    3.2911 C   0  0  0  0  0  0  0  0  0  0  0  0
    8.4747    3.3667    4.4330 C   0  0  0  0  0  0  0  0  0  0  0  0
    9.3917    3.8929    5.3623 C   0  0  0  0  0  0  0  0  0  0  0  0
    9.8380    3.1079    6.4962 C   0  0  0  0  0  0  0  0  0  0  0  0
    9.1017    2.3287    7.3449 C   0  0  0  0  0  0  0  0  0  0  0  0
    9.8825    1.6806    8.3208 C   0  0  0  0  0  0  0  0  0  0  0  0
   11.2135    1.9481    8.2138 C   0  0  0  0  0  0  0  0  0  0  0  0
   12.3291    1.4852    9.0857 C   0  0  0  0  0  0  0  0  0  0  0  0
   12.7660    2.5944   10.0457 C   0  0  0  0  0  0  0  0  0  0  0  0
   11.5278    3.0339    6.9034 S   0  0  0  0  0  0  0  0  0  0  0  0
    9.8587    5.1796    5.1182 C   0  0  0  0  0  0  0  0  0  0  0  0
   10.9361    6.0660    6.1541 S   0  0  0  0  0  0  0  0  0  0  0  0
    7.8963    2.0820    4.4387 C   0  0  0  0  0  0  0  0  0  0  0  0
    7.1130    1.8176    3.3496 C   0  0  0  0  0  0  0  0  0  0  0  0
    7.0287    3.1953    2.2614 S   0  0  0  0  0  0  0  0  0  0  0  0
    6.3892    0.6287    3.0533 C   0  0  0  0  0  0  0  0  0  0  0  0
    6.4451   -0.6106    3.6762 C   0  0  0  0  0  0  0  0  0  0  0  0
    7.3632   -0.9930    4.7551 C   0  0  0  0  0  0  0  0  0  0  0  0
    6.8491   -1.5283    5.9314 C   0  0  0  0  0  0  0  0  0  0  0  0
    7.7003   -1.8379    6.9769 C   0  0  0  0  0  0  0  0  0  0  0  0
    9.0596   -1.6138    6.8597 C   0  0  0  0  0  0  0  0  0  0  0  0
    9.5941   -1.1029    5.6821 C   0  0  0  0  0  0  0  0  0  0  0  0
   11.0738   -0.8880    5.5485 C   0  0  0  0  0  0  0  0  0  0  0  0
   11.7728   -2.1844    5.1361 C   0  0  0  0  0  0  0  0  0  0  0  0
    8.7387   -0.8150    4.6304 C   0  0  0  0  0  0  0  0  0  0  0  0
    5.4686   -1.4809    3.1585 C   0  0  0  0  0  0  0  0  0  0  0  0
    5.0324   -3.1311    3.5386 S   0  0  0  0  0  0  0  0  0  0  0  0
    3.7727   -3.0482    2.3533 C   0  0  0  0  0  0  0  0  0  0  0  0
    2.7344   -3.8461    1.8394 C   0  0  0  0  0  0  0  0  0  0  0  0
    2.3754   -5.1958    2.0510 C   0  0  0  0  0  0  0  0  0  0  0  0
    1.2514   -5.7403    1.3381 C   0  0  0  0  0  0  0  0  0  0  0  0
    1.0664   -7.0253    1.5950 N   0  0  0  0  0  0  0  0  0  0  0  0
    2.2000   -7.5094    2.6448 S   0  0  0  0  0  0  0  0  0  0  0  0
    2.9726   -6.0969    2.8145 N   0  0  0  0  0  0  0  0  0  0  0  0
    0.4515   -4.8761    0.5568 C   0  0  0  0  0  0  0  0  0  0  0  0
   -0.8208   -5.0421   -0.0170 C   0  0  0  0  0  0  0  0  0  0  0  0
   -2.0203   -6.2739   -0.2274 S   0  0  0  0  0  0  0  0  0  0  0  0
   -3.1055   -5.0853   -0.9069 C   0  0  0  0  0  0  0  0  0  0  0  0
   -4.4364   -5.1511   -1.3808 C   0  0  0  0  0  0  0  0  0  0  0  0
   -5.2871   -6.3367   -1.3107 C   0  0  0  0  0  0  0  0  0  0  0  0
   -4.7367   -7.6129   -1.4036 C   0  0  0  0  0  0  0  0  0  0  0  0
   -5.5524   -8.7233   -1.3146 C   0  0  0  0  0  0  0  0  0  0  0  0
   -6.9158   -8.5847   -1.1217 C   0  0  0  0  0  0  0  0  0  0  0  0
   -7.4848   -7.3224   -1.0065 C   0  0  0  0  0  0  0  0  0  0  0  0
   -8.9556   -7.1269   -0.7473 C   0  0  0  0  0  0  0  0  0  0  0  0
   -9.8509   -8.1943   -1.3700 C   0  0  0  0  0  0  0  0  0  0  0  0
   -6.6583   -6.2122   -1.1021 C   0  0  0  0  0  0  0  0  0  0  0  0
   -4.8563   -3.9155   -1.8344 C   0  0  0  0  0  0  0  0  0  0  0  0
   -3.6552   -2.6567   -1.6012 S   0  0  0  0  0  0  0  0  0  0  0  0
   -2.5417   -3.8111   -0.9680 C   0  0  0  0  0  0  0  0  0  0  0  0
   -1.2315   -3.7872   -0.4719 C   0  0  0  0  0  0  0  0  0  0  0  0
   -0.2496   -2.8619   -0.2420 N   0  0  0  0  0  0  0  0  0  0  0  0
    0.7990   -3.5081    0.3840 C   0  0  0  0  0  0  0  0  0  0  0  0
    2.0267   -3.0368    0.9101 C   0  0  0  0  0  0  0  0  0  0  0  0
    2.6633   -1.8108    0.8031 N   0  0  0  0  0  0  0  0  0  0  0  0
    3.7074   -1.8175    1.6941 C   0  0  0  0  0  0  0  0  0  0  0  0
    4.6849   -0.9248    2.1433 C   0  0  0  0  0  0  0  0  0  0  0  0
    5.1527    0.7012    1.8066 S   0  0  0  0  0  0  0  0  0  0  0  0
    2.7342   -0.9494   -0.3581 C   0  0  0  0  0  0  0  0  0  0  0  0
    3.9819   -1.2439   -1.1912 C   0  0  0  0  0  0  0  0  0  0  0  0
   -0.5355   -1.4504   -0.3626 C   0  0  0  0  0  0  0  0  0  0  0  0
   -0.5579   -0.9952   -1.8218 C   0  0  0  0  0  0  0  0  0  0  0  0
   -6.0400   -3.5710   -2.5634 C   0  0  0  0  0  0  0  0  0  0  0  0
   -6.5461   -4.1910   -3.7000 C   0  0  0  0  0  0  0  0  0  0  0  0
   -5.9605   -5.2631   -4.3449 N   0  0  0  0  0  0  0  0  0  0  0  0
   -6.7669   -6.1965   -5.0127 C   0  0  0  0  0  0  0  0  0  0  0  0
   -8.0064   -6.5613   -4.4924 C   0  0  0  0  0  0  0  0  0  0  0  0
   -8.8094   -7.4527   -5.1743 C   0  0  0  0  0  0  0  0  0  0  0  0
   -8.3981   -8.0191   -6.3751 C   0  0  0  0  0  0  0  0  0  0  0  0
   -9.2891   -8.9786   -7.1021 C   0  0  0  0  0  0  0  0  0  0  0  0
   -7.1526   -7.6639   -6.8767 C   0  0  0  0  0  0  0  0  0  0  0  0
   -6.3463   -6.7597   -6.2138 C   0  0  0  0  0  0  0  0  0  0  0  0
   -4.5620   -5.3899   -4.3578 C   0  0  0  0  0  0  0  0  0  0  0  0
   -3.7495   -4.2645   -4.4691 C   0  0  0  0  0  0  0  0  0  0  0  0
   -2.3778   -4.3812   -4.3565 C   0  0  0  0  0  0  0  0  0  0  0  0
   -1.7779   -5.6163   -4.1526 C   0  0  0  0  0  0  0  0  0  0  0  0
   -0.2995   -5.7386   -3.9470 C   0  0  0  0  0  0  0  0  0  0  0  0
   -2.5912   -6.7439   -4.1239 C   0  0  0  0  0  0  0  0  0  0  0  0
   -3.9635   -6.6399   -4.2256 C   0  0  0  0  0  0  0  0  0  0  0  0
   -7.7023   -3.5142   -4.1583 C   0  0  0  0  0  0  0  0  0  0  0  0
   -8.8126   -3.7945   -5.4468 S   0  0  0  0  0  0  0  0  0  0  0  0
   -9.6959   -2.3088   -5.0453 C   0  0  0  0  0  0  0  0  0  0  0  0
   -9.1829   -1.6915   -3.8763 C   0  0  0  0  0  0  0  0  0  0  0  0
   -9.7389   -0.6618   -3.1826 N   0  0  0  0  0  0  0  0  0  0  0  0
  -11.1029   -0.3446   -3.2268 C   0  0  0  0  0  0  0  0  0  0  0  0
  -12.0793   -1.3397   -3.2719 C   0  0  0  0  0  0  0  0  0  0  0  0
  -13.4127   -0.9989   -3.3480 C   0  0  0  0  0  0  0  0  0  0  0  0
  -13.8175    0.3344   -3.3799 C   0  0  0  0  0  0  0  0  0  0  0  0
  -15.2665    0.6812   -3.5110 C   0  0  0  0  0  0  0  0  0  0  0  0
  -12.8423    1.3180   -3.2868 C   0  0  0  0  0  0  0  0  0  0  0  0
  -11.5011    0.9909   -3.2087 C   0  0  0  0  0  0  0  0  0  0  0  0
   -8.9132    0.1257   -2.3446 C   0  0  0  0  0  0  0  0  0  0  0  0
   -7.7304    0.6690   -2.8362 C   0  0  0  0  0  0  0  0  0  0  0  0
   -6.9338    1.4342   -2.0093 C   0  0  0  0  0  0  0  0  0  0  0  0
   -7.2945    1.6766   -0.6876 C   0  0  0  0  0  0  0  0  0  0  0  0
   -6.4055    2.4908    0.2002 C   0  0  0  0  0  0  0  0  0  0  0  0
   -8.4867    1.1422   -0.2154 C   0  0  0  0  0  0  0  0  0  0  0  0
   -9.2945    0.3731   -1.0315 C   0  0  0  0  0  0  0  0  0  0  0  0
   -8.0322   -2.3782   -3.4285 C   0  0  0  0  0  0  0  0  0  0  0  0
   -6.9271   -2.1239   -2.1204 S   0  0  0  0  0  0  0  0  0  0  0  0
  -10.7425   -1.9579   -5.8878 C   0  0  0  0  0  0  0  0  0  0  0  0
  -11.2816   -0.6871   -6.0316 C   0  0  0  0  0  0  0  0  0  0  0  0
  -10.5110    0.5383   -5.8092 C   0  0  0  0  0  0  0  0  0  0  0  0
   -9.3510    0.6333   -5.4618 O   0  0  0  0  0  0  0  0  0  0  0  0
  -11.4125    1.6449   -6.2297 C   0  0  0  0  0  0  0  0  0  0  0  0
  -12.6330    1.1099   -6.6757 C   0  0  0  0  0  0  0  0  0  0  0  0
  -13.6437    1.9372   -7.1278 C   0  0  0  0  0  0  0  0  0  0  0  0
  -13.4181    3.3075   -7.1181 C   0  0  0  0  0  0  0  0  0  0  0  0
  -14.3829    4.1288   -7.5474 F   0  0  0  0  0  0  0  0  0  0  0  0
  -12.2204    3.8544   -6.6698 C   0  0  0  0  0  0  0  0  0  0  0  0
  -12.0455    5.1813   -6.6596 F   0  0  0  0  0  0  0  0  0  0  0  0
  -11.2013    3.0090   -6.2233 C   0  0  0  0  0  0  0  0  0  0  0  0
  -10.0608    3.5399   -5.7813 F   0  0  0  0  0  0  0  0  0  0  0  0
  -12.5756   -0.3467   -6.5317 C   0  0  0  0  0  0  0  0  0  0  0  0
  -13.6385   -1.2081   -6.6782 C   0  0  0  0  0  0  0  0  0  0  0  0
  -13.5730   -2.5824   -6.3775 C   0  0  0  0  0  0  0  0  0  0  0  0
  -13.5958   -3.7006   -6.1155 N   0  0  0  0  0  0  0  0  0  0  0  0
  -14.9336   -0.8076   -7.0500 C   0  0  0  0  0  0  0  0  0  0  0  0
  -16.0124   -0.5281   -7.3297 N   0  0  0  0  0  0  0  0  0  0  0  0
   11.1282    9.4534    4.5655 H   0  0  0  0  0  0  0  0  0  0  0  0
   14.4686   12.5625    7.6946 H   0  0  0  0  0  0  0  0  0  0  0  0
    9.7420    8.0065    3.3184 H   0  0  0  0  0  0  0  0  0  0  0  0
    6.3662    8.4304   -1.6672 H   0  0  0  0  0  0  0  0  0  0  0  0
    5.0817    8.0034   -0.5205 H   0  0  0  0  0  0  0  0  0  0  0  0
    6.3716    6.0881   -2.5247 H   0  0  0  0  0  0  0  0  0  0  0  0
    4.7635    6.8045   -2.6686 H   0  0  0  0  0  0  0  0  0  0  0  0
    5.1078    5.6560   -1.3686 H   0  0  0  0  0  0  0  0  0  0  0  0
    8.0293    2.2586    7.3043 H   0  0  0  0  0  0  0  0  0  0  0  0
    9.4679    1.0350    9.0746 H   0  0  0  0  0  0  0  0  0  0  0  0
   13.1816    1.1905    8.4688 H   0  0  0  0  0  0  0  0  0  0  0  0
   11.9975    0.6141    9.6553 H   0  0  0  0  0  0  0  0  0  0  0  0
   13.5876    2.2512   10.6691 H   0  0  0  0  0  0  0  0  0  0  0  0
   13.0919    3.4693    9.4882 H   0  0  0  0  0  0  0  0  0  0  0  0
   11.9384    2.8853   10.6884 H   0  0  0  0  0  0  0  0  0  0  0  0
    8.0664    1.3729    5.2234 H   0  0  0  0  0  0  0  0  0  0  0  0
    5.7847   -1.6772    6.0322 H   0  0  0  0  0  0  0  0  0  0  0  0
    7.2963   -2.2445    7.8921 H   0  0  0  0  0  0  0  0  0  0  0  0
    9.7171   -1.8347    7.6879 H   0  0  0  0  0  0  0  0  0  0  0  0
   11.2691   -0.1161    4.8014 H   0  0  0  0  0  0  0  0  0  0  0  0
   11.4787   -0.5458    6.5035 H   0  0  0  0  0  0  0  0  0  0  0  0
   12.8437   -2.0239    5.0376 H   0  0  0  0  0  0  0  0  0  0  0  0
   11.3847   -2.5366    4.1830 H   0  0  0  0  0  0  0  0  0  0  0  0
   11.6042   -2.9593    5.8804 H   0  0  0  0  0  0  0  0  0  0  0  0
    9.1390   -0.4243    3.7054 H   0  0  0  0  0  0  0  0  0  0  0  0
   -3.6769   -7.7325   -1.5611 H   0  0  0  0  0  0  0  0  0  0  0  0
   -5.1204   -9.7100   -1.3935 H   0  0  0  0  0  0  0  0  0  0  0  0
   -7.5315   -9.4670   -1.0498 H   0  0  0  0  0  0  0  0  0  0  0  0
   -9.2497   -6.1439   -1.1254 H   0  0  0  0  0  0  0  0  0  0  0  0
   -9.1171   -7.1112    0.3358 H   0  0  0  0  0  0  0  0  0  0  0  0
   -9.7497   -9.1449   -0.8526 H   0  0  0  0  0  0  0  0  0  0  0  0
   -9.5950   -8.3403   -2.4168 H   0  0  0  0  0  0  0  0  0  0  0  0
  -10.8926   -7.8881   -1.3055 H   0  0  0  0  0  0  0  0  0  0  0  0
   -7.0867   -5.2266   -0.9847 H   0  0  0  0  0  0  0  0  0  0  0  0
    2.7534    0.0909   -0.0176 H   0  0  0  0  0  0  0  0  0  0  0  0
    1.8607   -1.1134   -0.9789 H   0  0  0  0  0  0  0  0  0  0  0  0
    3.9907   -2.2877   -1.4987 H   0  0  0  0  0  0  0  0  0  0  0  0
    4.8866   -1.0403   -0.6256 H   0  0  0  0  0  0  0  0  0  0  0  0
    3.9829   -0.6168   -2.0786 H   0  0  0  0  0  0  0  0  0  0  0  0
    0.1874   -0.8878    0.2285 H   0  0  0  0  0  0  0  0  0  0  0  0
   -1.5275   -1.2744    0.0690 H   0  0  0  0  0  0  0  0  0  0  0  0
   -0.6868    0.0823   -1.8687 H   0  0  0  0  0  0  0  0  0  0  0  0
   -1.3875   -1.4642   -2.3434 H   0  0  0  0  0  0  0  0  0  0  0  0
    0.3597   -1.2622   -2.3418 H   0  0  0  0  0  0  0  0  0  0  0  0
   -8.3297   -6.1494   -3.5490 H   0  0  0  0  0  0  0  0  0  0  0  0
   -9.7765   -7.7151   -4.7704 H   0  0  0  0  0  0  0  0  0  0  0  0
   -8.7846   -9.4010   -7.9671 H   0  0  0  0  0  0  0  0  0  0  0  0
  -10.1909   -8.4698   -7.4416 H   0  0  0  0  0  0  0  0  0  0  0  0
   -9.5949   -9.7907   -6.4441 H   0  0  0  0  0  0  0  0  0  0  0  0
   -6.8109   -8.0901   -7.8089 H   0  0  0  0  0  0  0  0  0  0  0  0
   -5.3883   -6.4801   -6.6268 H   0  0  0  0  0  0  0  0  0  0  0  0
   -4.1978   -3.2945   -4.6296 H   0  0  0  0  0  0  0  0  0  0  0  0
   -1.7653   -3.4930   -4.4239 H   0  0  0  0  0  0  0  0  0  0  0  0
    0.2082   -4.8124   -4.2047 H   0  0  0  0  0  0  0  0  0  0  0  0
    0.1100   -6.5452   -4.5519 H   0  0  0  0  0  0  0  0  0  0  0  0
   -0.0871   -5.9674   -2.9017 H   0  0  0  0  0  0  0  0  0  0  0  0
   -2.1417   -7.7179   -3.9961 H   0  0  0  0  0  0  0  0  0  0  0  0
   -4.5845   -7.5216   -4.1765 H   0  0  0  0  0  0  0  0  0  0  0  0
  -11.7906   -2.3798   -3.2508 H   0  0  0  0  0  0  0  0  0  0  0  0
  -14.1566   -1.7809   -3.3904 H   0  0  0  0  0  0  0  0  0  0  0  0
  -15.6695    0.2855   -4.4432 H   0  0  0  0  0  0  0  0  0  0  0  0
  -15.8382    0.2423   -2.6946 H   0  0  0  0  0  0  0  0  0  0  0  0
  -15.4127    1.7579   -3.5004 H   0  0  0  0  0  0  0  0  0  0  0  0
  -13.1320    2.3588   -3.2876 H   0  0  0  0  0  0  0  0  0  0  0  0
  -10.7523    1.7664   -3.1469 H   0  0  0  0  0  0  0  0  0  0  0  0
   -7.4694    0.5095   -3.8705 H   0  0  0  0  0  0  0  0  0  0  0  0
   -6.0198    1.8589   -2.3972 H   0  0  0  0  0  0  0  0  0  0  0  0
   -6.9217    2.7800    1.1118 H   0  0  0  0  0  0  0  0  0  0  0  0
   -6.0680    3.3884   -0.3142 H   0  0  0  0  0  0  0  0  0  0  0  0
   -5.5233    1.9118    0.4737 H   0  0  0  0  0  0  0  0  0  0  0  0
   -8.7883    1.3260    0.8054 H   0  0  0  0  0  0  0  0  0  0  0  0
  -10.2192   -0.0404   -0.6558 H   0  0  0  0  0  0  0  0  0  0  0  0
  -11.1271   -2.7513   -6.5175 H   0  0  0  0  0  0  0  0  0  0  0  0
  -14.5897    1.5676   -7.4872 H   0  0  0  0  0  0  0  0  0  0  0  0
  1  2  2  0  0  0  0
  2  3  1  0  0  0  0
  3  4  2  0  0  0  0
  3  5  1  0  0  0  0
  5  6  2  0  0  0  0
  6  7  1  0  0  0  0
  7  8  2  0  0  0  0
  8  9  1  0  0  0  0
  8 10  1  0  0  0  0
 10 11  1  0  0  0  0
 10 12  2  0  0  0  0
 12 13  1  0  0  0  0
  6 14  1  0  0  0  0
 14 15  2  0  0  0  0
 15 16  1  0  0  0  0
 16 17  3  0  0  0  0
 15 18  1  0  0  0  0
 18 19  3  0  0  0  0
  1 20  1  0  0  0  0
 20 21  2  0  0  0  0
 21 22  1  0  0  0  0
 22 23  2  0  0  0  0
 23 24  1  0  0  0  0
 24 25  1  0  0  0  0
 25 26  1  0  0  0  0
 26 27  1  0  0  0  0
 27 28  1  0  0  0  0
 26 29  2  0  0  0  0
 29 30  1  0  0  0  0
 29 31  1  0  0  0  0
 31 32  1  0  0  0  0
 23 33  1  0  0  0  0
 33 34  2  0  0  0  0
 34 35  1  0  0  0  0
 35 36  1  0  0  0  0
 36 37  2  0  0  0  0
 37 38  1  0  0  0  0
 38 39  2  0  0  0  0
 39 40  1  0  0  0  0
 40 41  1  0  0  0  0
 39 42  1  0  0  0  0
 35 43  2  0  0  0  0
 43 44  1  0  0  0  0
 34 45  1  0  0  0  0
 45 46  2  0  0  0  0
 46 47  1  0  0  0  0
 46 48  1  0  0  0  0
 48 49  2  0  0  0  0
 49 50  1  0  0  0  0
 50 51  2  0  0  0  0
 51 52  1  0  0  0  0
 52 53  2  0  0  0  0
 53 54  1  0  0  0  0
 54 55  1  0  0  0  0
 55 56  1  0  0  0  0
 54 57  2  0  0  0  0
 49 58  1  0  0  0  0
 58 59  1  0  0  0  0
 59 60  1  0  0  0  0
 60 61  1  0  0  0  0
 61 62  1  0  0  0  0
 62 63  1  0  0  0  0
 63 64  2  0  0  0  0
 64 65  1  0  0  0  0
 65 66  1  0  0  0  0
 63 67  1  0  0  0  0
 67 68  1  0  0  0  0
 68 69  1  0  0  0  0
 69 70  1  0  0  0  0
 70 71  1  0  0  0  0
 71 72  1  0  0  0  0
 72 73  2  0  0  0  0
 73 74  1  0  0  0  0
 74 75  2  0  0  0  0
 75 76  1  0  0  0  0
 76 77  1  0  0  0  0
 77 78  1  0  0  0  0
 76 79  2  0  0  0  0
 71 80  2  0  0  0  0
 80 81  1  0  0  0  0
 81 82  1  0  0  0  0
 82 83  1  0  0  0  0
 83 84  1  0  0  0  0
 84 85  1  0  0  0  0
 85 86  1  0  0  0  0
 86 87  1  0  0  0  0
 87 88  1  0  0  0  0
 88 89  1  0  0  0  0
 89 90  1  0  0  0  0
 87 91  1  0  0  0  0
 91 92  1  0  0  0  0
 84 93  1  0  0  0  0
 93 94  1  0  0  0  0
 80 95  1  0  0  0  0
 95 96  2  0  0  0  0
 96 97  1  0  0  0  0
 97 98  1  0  0  0  0
 98 99  2  0  0  0  0
 99100  1  0  0  0  0
100101  2  0  0  0  0
101102  1  0  0  0  0
101103  1  0  0  0  0
103104  2  0  0  0  0
 97105  1  0  0  0  0
105106  2  0  0  0  0
106107  1  0  0  0  0
107108  2  0  0  0  0
108109  1  0  0  0  0
108110  1  0  0  0  0
110111  2  0  0  0  0
 96112  1  0  0  0  0
112113  1  0  0  0  0
113114  1  0  0  0  0
114115  2  0  0  0  0
115116  1  0  0  0  0
116117  1  0  0  0  0
117118  2  0  0  0  0
118119  1  0  0  0  0
119120  2  0  0  0  0
120121  1  0  0  0  0
120122  1  0  0  0  0
122123  2  0  0  0  0
116124  1  0  0  0  0
124125  2  0  0  0  0
125126  1  0  0  0  0
126127  2  0  0  0  0
127128  1  0  0  0  0
127129  1  0  0  0  0
129130  2  0  0  0  0
115131  1  0  0  0  0
131132  1  0  0  0  0
114133  1  0  0  0  0
133134  2  0  0  0  0
134135  1  0  0  0  0
135136  2  0  0  0  0
135137  1  0  0  0  0
137138  2  0  0  0  0
138139  1  0  0  0  0
139140  2  0  0  0  0
140141  1  0  0  0  0
140142  1  0  0  0  0
142143  1  0  0  0  0
142144  2  0  0  0  0
144145  1  0  0  0  0
138146  1  0  0  0  0
146147  2  0  0  0  0
147148  1  0  0  0  0
148149  3  0  0  0  0
147150  1  0  0  0  0
150151  3  0  0  0  0
 14  2  1  0  0  0  0
 44 20  1  0  0  0  0
 90 48  1  0  0  0  0
132 95  1  0  0  0  0
146134  1  0  0  0  0
 12  5  1  0  0  0  0
 43 22  1  0  0  0  0
 57 50  1  0  0  0  0
 89 58  2  0  0  0  0
104 98  1  0  0  0  0
111105  1  0  0  0  0
131112  2  0  0  0  0
144137  1  0  0  0  0
 31 24  2  0  0  0  0
 47 33  1  0  0  0  0
 88 60  2  0  0  0  0
123117  1  0  0  0  0
130124  1  0  0  0  0
 42 36  1  0  0  0  0
 86 61  2  0  0  0  0
 66 62  2  0  0  0  0
 85 67  2  0  0  0  0
 83 68  2  0  0  0  0
 82 70  2  0  0  0  0
 79 72  1  0  0  0  0
  1152  1  0  0  0  0
  7153  1  0  0  0  0
 21154  1  0  0  0  0
 27155  1  0  0  0  0
 27156  1  0  0  0  0
 28157  1  0  0  0  0
 28158  1  0  0  0  0
 28159  1  0  0  0  0
 37160  1  0  0  0  0
 38161  1  0  0  0  0
 40162  1  0  0  0  0
 40163  1  0  0  0  0
 41164  1  0  0  0  0
 41165  1  0  0  0  0
 41166  1  0  0  0  0
 45167  1  0  0  0  0
 51168  1  0  0  0  0
 52169  1  0  0  0  0
 53170  1  0  0  0  0
 55171  1  0  0  0  0
 55172  1  0  0  0  0
 56173  1  0  0  0  0
 56174  1  0  0  0  0
 56175  1  0  0  0  0
 57176  1  0  0  0  0
 73177  1  0  0  0  0
 74178  1  0  0  0  0
 75179  1  0  0  0  0
 77180  1  0  0  0  0
 77181  1  0  0  0  0
 78182  1  0  0  0  0
 78183  1  0  0  0  0
 78184  1  0  0  0  0
 79185  1  0  0  0  0
 91186  1  0  0  0  0
 91187  1  0  0  0  0
 92188  1  0  0  0  0
 92189  1  0  0  0  0
 92190  1  0  0  0  0
 93191  1  0  0  0  0
 93192  1  0  0  0  0
 94193  1  0  0  0  0
 94194  1  0  0  0  0
 94195  1  0  0  0  0
 99196  1  0  0  0  0
100197  1  0  0  0  0
102198  1  0  0  0  0
102199  1  0  0  0  0
102200  1  0  0  0  0
103201  1  0  0  0  0
104202  1  0  0  0  0
106203  1  0  0  0  0
107204  1  0  0  0  0
109205  1  0  0  0  0
109206  1  0  0  0  0
109207  1  0  0  0  0
110208  1  0  0  0  0
111209  1  0  0  0  0
118210  1  0  0  0  0
119211  1  0  0  0  0
121212  1  0  0  0  0
121213  1  0  0  0  0
121214  1  0  0  0  0
122215  1  0  0  0  0
123216  1  0  0  0  0
125217  1  0  0  0  0
126218  1  0  0  0  0
128219  1  0  0  0  0
128220  1  0  0  0  0
128221  1  0  0  0  0
129222  1  0  0  0  0
130223  1  0  0  0  0
133224  1  0  0  0  0
139225  1  0  0  0  0
M  END
