
  xtb     02052217083D
 energy: -317.834626055757 gnorm: 0.000508258615 xtb: 6.4.1 (unknown)
175193  0     0  0            999 V2000
    3.5169   12.1665    1.3284 C   0  0  0  0  0  0  0  0  0  0  0  0
    4.7133   12.1147    0.6828 C   0  0  0  0  0  0  0  0  0  0  0  0
    5.1818   10.9362   -0.0921 C   0  0  0  0  0  0  0  0  0  0  0  0
    4.6041    9.8912   -0.2860 O   0  0  0  0  0  0  0  0  0  0  0  0
    6.4524   11.3666   -0.7215 C   0  0  0  0  0  0  0  0  0  0  0  0
    6.7091   12.7132   -0.4040 C   0  0  0  0  0  0  0  0  0  0  0  0
    7.8357   13.3421   -0.9123 C   0  0  0  0  0  0  0  0  0  0  0  0
    8.6952   12.6149   -1.7215 C   0  0  0  0  0  0  0  0  0  0  0  0
    8.4419   11.2859   -2.0275 C   0  0  0  0  0  0  0  0  0  0  0  0
    9.6592   10.3442   -3.1236 Br  0  0  0  0  0  0  0  0  0  0  0  0
    7.3037   10.6376   -1.5369 C   0  0  0  0  0  0  0  0  0  0  0  0
    6.9817    8.9994   -1.9198 Cl  0  0  0  0  0  0  0  0  0  0  0  0
    5.6486   13.2009    0.4741 C   0  0  0  0  0  0  0  0  0  0  0  0
    5.6037   14.4384    1.0590 C   0  0  0  0  0  0  0  0  0  0  0  0
    4.6194   14.8605    1.9790 C   0  0  0  0  0  0  0  0  0  0  0  0
    3.8760   15.2683    2.7525 N   0  0  0  0  0  0  0  0  0  0  0  0
    6.5549   15.4567    0.8378 C   0  0  0  0  0  0  0  0  0  0  0  0
    7.2932   16.3238    0.6946 N   0  0  0  0  0  0  0  0  0  0  0  0
    2.7689   11.0015    1.6928 C   0  0  0  0  0  0  0  0  0  0  0  0
    1.3821   10.9764    1.6463 C   0  0  0  0  0  0  0  0  0  0  0  0
    0.7255   12.0585    1.2023 F   0  0  0  0  0  0  0  0  0  0  0  0
    0.6421    9.8363    1.9531 C   0  0  0  0  0  0  0  0  0  0  0  0
   -0.6846    9.8904    1.7509 F   0  0  0  0  0  0  0  0  0  0  0  0
    1.2450    8.6516    2.3651 C   0  0  0  0  0  0  0  0  0  0  0  0
    2.6705    8.6545    2.4501 C   0  0  0  0  0  0  0  0  0  0  0  0
    3.3079    7.5299    2.8138 N   0  0  0  0  0  0  0  0  0  0  0  0
    4.6092    7.5369    2.9533 C   0  0  0  0  0  0  0  0  0  0  0  0
    5.2918    6.2582    3.3333 C   0  0  0  0  0  0  0  0  0  0  0  0
    4.3724    5.0499    3.2424 C   0  0  0  0  0  0  0  0  0  0  0  0
    5.3366    8.7560    2.8148 C   0  0  0  0  0  0  0  0  0  0  0  0
    4.7332    9.8466    2.4201 N   0  0  0  0  0  0  0  0  0  0  0  0
    3.4166    9.8229    2.1678 C   0  0  0  0  0  0  0  0  0  0  0  0
    6.8024    8.8757    3.1014 C   0  0  0  0  0  0  0  0  0  0  0  0
    7.6182    8.6215    1.8316 C   0  0  0  0  0  0  0  0  0  0  0  0
    0.4951    7.4563    2.6258 C   0  0  0  0  0  0  0  0  0  0  0  0
   -0.7726    7.3333    3.1770 C   0  0  0  0  0  0  0  0  0  0  0  0
   -1.4992    8.4079    3.8503 C   0  0  0  0  0  0  0  0  0  0  0  0
   -2.8760    8.5377    3.6954 C   0  0  0  0  0  0  0  0  0  0  0  0
   -3.5476    9.5573    4.3424 C   0  0  0  0  0  0  0  0  0  0  0  0
   -2.8599   10.4479    5.1468 C   0  0  0  0  0  0  0  0  0  0  0  0
   -1.4861   10.3271    5.3222 C   0  0  0  0  0  0  0  0  0  0  0  0
   -0.7462   11.2638    6.2336 C   0  0  0  0  0  0  0  0  0  0  0  0
   -0.7988   10.7589    7.6768 C   0  0  0  0  0  0  0  0  0  0  0  0
   -0.8187    9.2999    4.6763 C   0  0  0  0  0  0  0  0  0  0  0  0
   -1.2252    6.0037    3.1053 C   0  0  0  0  0  0  0  0  0  0  0  0
   -2.7217    5.2408    3.5877 S   0  0  0  0  0  0  0  0  0  0  0  0
   -2.1191    3.7372    2.9825 C   0  0  0  0  0  0  0  0  0  0  0  0
   -2.5747    2.4301    2.7561 C   0  0  0  0  0  0  0  0  0  0  0  0
   -3.8539    1.8520    2.9110 C   0  0  0  0  0  0  0  0  0  0  0  0
   -4.0926    0.5427    2.3731 C   0  0  0  0  0  0  0  0  0  0  0  0
   -5.3520    0.1600    2.5143 N   0  0  0  0  0  0  0  0  0  0  0  0
   -6.1653    1.3401    3.2676 S   0  0  0  0  0  0  0  0  0  0  0  0
   -4.9435    2.3884    3.4373 N   0  0  0  0  0  0  0  0  0  0  0  0
   -3.0100   -0.1775    1.8227 C   0  0  0  0  0  0  0  0  0  0  0  0
   -2.9290   -1.4768    1.2946 C   0  0  0  0  0  0  0  0  0  0  0  0
   -3.9617   -2.8142    0.9232 S   0  0  0  0  0  0  0  0  0  0  0  0
   -2.5690   -3.7144    0.3630 C   0  0  0  0  0  0  0  0  0  0  0  0
   -2.4066   -5.0174   -0.1534 C   0  0  0  0  0  0  0  0  0  0  0  0
   -3.4953   -5.9889   -0.2482 C   0  0  0  0  0  0  0  0  0  0  0  0
   -3.2863   -7.3375    0.0373 C   0  0  0  0  0  0  0  0  0  0  0  0
   -4.3318   -8.2342   -0.0493 C   0  0  0  0  0  0  0  0  0  0  0  0
   -5.6047   -7.7961   -0.3739 C   0  0  0  0  0  0  0  0  0  0  0  0
   -5.8458   -6.4494   -0.6127 C   0  0  0  0  0  0  0  0  0  0  0  0
   -7.2312   -5.9549   -0.9241 C   0  0  0  0  0  0  0  0  0  0  0  0
   -7.4512   -5.7885   -2.4283 C   0  0  0  0  0  0  0  0  0  0  0  0
   -4.7813   -5.5612   -0.5660 C   0  0  0  0  0  0  0  0  0  0  0  0
   -1.0735   -5.2692   -0.4395 C   0  0  0  0  0  0  0  0  0  0  0  0
   -0.0226   -3.9255   -0.0378 S   0  0  0  0  0  0  0  0  0  0  0  0
   -1.3764   -2.9961    0.4808 C   0  0  0  0  0  0  0  0  0  0  0  0
   -1.5847   -1.7148    1.0037 C   0  0  0  0  0  0  0  0  0  0  0  0
   -0.8279   -0.6124    1.3108 N   0  0  0  0  0  0  0  0  0  0  0  0
   -1.6918    0.3591    1.7954 C   0  0  0  0  0  0  0  0  0  0  0  0
   -1.5027    1.7216    2.1416 C   0  0  0  0  0  0  0  0  0  0  0  0
   -0.4488    2.5968    1.9644 N   0  0  0  0  0  0  0  0  0  0  0  0
   -0.8201    3.8150    2.4689 C   0  0  0  0  0  0  0  0  0  0  0  0
   -0.3068    5.1175    2.5298 C   0  0  0  0  0  0  0  0  0  0  0  0
    1.1628    5.9245    2.1076 S   0  0  0  0  0  0  0  0  0  0  0  0
    0.7327    2.4891    1.1409 C   0  0  0  0  0  0  0  0  0  0  0  0
    2.0056    2.4426    1.9858 C   0  0  0  0  0  0  0  0  0  0  0  0
    0.5722   -0.8208    1.6135 C   0  0  0  0  0  0  0  0  0  0  0  0
    0.7416   -1.6223    2.9041 C   0  0  0  0  0  0  0  0  0  0  0  0
   -0.4987   -6.4341   -1.0592 C   0  0  0  0  0  0  0  0  0  0  0  0
    0.7298   -6.9541   -0.6803 C   0  0  0  0  0  0  0  0  0  0  0  0
    1.4484   -6.3506    0.2848 F   0  0  0  0  0  0  0  0  0  0  0  0
    1.2288   -8.1416   -1.2193 C   0  0  0  0  0  0  0  0  0  0  0  0
    2.3918   -8.6155   -0.7466 F   0  0  0  0  0  0  0  0  0  0  0  0
    0.5213   -8.8864   -2.1484 C   0  0  0  0  0  0  0  0  0  0  0  0
   -0.6893   -8.3195   -2.6476 C   0  0  0  0  0  0  0  0  0  0  0  0
   -1.3293   -8.9150   -3.6658 N   0  0  0  0  0  0  0  0  0  0  0  0
   -2.4336   -8.3908   -4.1294 C   0  0  0  0  0  0  0  0  0  0  0  0
   -3.1172   -9.0908   -5.2656 C   0  0  0  0  0  0  0  0  0  0  0  0
   -2.3772  -10.3399   -5.7242 C   0  0  0  0  0  0  0  0  0  0  0  0
   -2.9352   -7.1710   -3.5879 C   0  0  0  0  0  0  0  0  0  0  0  0
   -2.2938   -6.5561   -2.6288 N   0  0  0  0  0  0  0  0  0  0  0  0
   -1.1809   -7.1047   -2.1186 C   0  0  0  0  0  0  0  0  0  0  0  0
   -4.1482   -6.4724   -4.1179 C   0  0  0  0  0  0  0  0  0  0  0  0
   -3.7583   -5.4675   -5.2045 C   0  0  0  0  0  0  0  0  0  0  0  0
    1.0116  -10.1366   -2.6559 C   0  0  0  0  0  0  0  0  0  0  0  0
    0.1999  -11.1880   -2.9340 C   0  0  0  0  0  0  0  0  0  0  0  0
   -1.1729  -11.3455   -2.3741 C   0  0  0  0  0  0  0  0  0  0  0  0
   -1.7370  -10.6349   -1.5711 O   0  0  0  0  0  0  0  0  0  0  0  0
   -1.6556  -12.6439   -2.8824 C   0  0  0  0  0  0  0  0  0  0  0  0
   -2.8699  -13.2360   -2.6843 C   0  0  0  0  0  0  0  0  0  0  0  0
   -3.1239  -14.5004   -3.2600 C   0  0  0  0  0  0  0  0  0  0  0  0
   -4.3635  -15.1519   -3.0955 C   0  0  0  0  0  0  0  0  0  0  0  0
   -4.5944  -16.3776   -3.6549 C   0  0  0  0  0  0  0  0  0  0  0  0
   -3.5759  -16.9850   -4.4024 C   0  0  0  0  0  0  0  0  0  0  0  0
   -3.8233  -18.1900   -4.9466 F   0  0  0  0  0  0  0  0  0  0  0  0
   -2.3563  -16.3976   -4.5927 C   0  0  0  0  0  0  0  0  0  0  0  0
   -2.1006  -15.1347   -4.0231 C   0  0  0  0  0  0  0  0  0  0  0  0
   -0.8492  -14.5020   -4.2032 C   0  0  0  0  0  0  0  0  0  0  0  0
   -0.6292  -13.2703   -3.6446 C   0  0  0  0  0  0  0  0  0  0  0  0
    0.5314  -12.3869   -3.6819 C   0  0  0  0  0  0  0  0  0  0  0  0
    1.6888  -12.6196   -4.3753 C   0  0  0  0  0  0  0  0  0  0  0  0
    1.9475  -13.7930   -5.1150 C   0  0  0  0  0  0  0  0  0  0  0  0
    2.2194  -14.7240   -5.7290 N   0  0  0  0  0  0  0  0  0  0  0  0
    2.7747  -11.7227   -4.4672 C   0  0  0  0  0  0  0  0  0  0  0  0
    3.6889  -11.0431   -4.6101 N   0  0  0  0  0  0  0  0  0  0  0  0
    3.0787   13.1213    1.5888 H   0  0  0  0  0  0  0  0  0  0  0  0
    8.0553   14.3744   -0.6977 H   0  0  0  0  0  0  0  0  0  0  0  0
    9.5788   13.0850   -2.1249 H   0  0  0  0  0  0  0  0  0  0  0  0
    6.1591    6.1148    2.6852 H   0  0  0  0  0  0  0  0  0  0  0  0
    5.6656    6.3615    4.3573 H   0  0  0  0  0  0  0  0  0  0  0  0
    4.0091    4.9393    2.2248 H   0  0  0  0  0  0  0  0  0  0  0  0
    3.5175    5.1799    3.8992 H   0  0  0  0  0  0  0  0  0  0  0  0
    4.9077    4.1480    3.5289 H   0  0  0  0  0  0  0  0  0  0  0  0
    7.0989    8.1743    3.8815 H   0  0  0  0  0  0  0  0  0  0  0  0
    6.9970    9.8928    3.4457 H   0  0  0  0  0  0  0  0  0  0  0  0
    8.6796    8.7296    2.0403 H   0  0  0  0  0  0  0  0  0  0  0  0
    7.3385    9.3388    1.0652 H   0  0  0  0  0  0  0  0  0  0  0  0
    7.4411    7.6213    1.4436 H   0  0  0  0  0  0  0  0  0  0  0  0
   -3.4100    7.8596    3.0482 H   0  0  0  0  0  0  0  0  0  0  0  0
   -4.6143    9.6617    4.2119 H   0  0  0  0  0  0  0  0  0  0  0  0
   -3.3905   11.2479    5.6427 H   0  0  0  0  0  0  0  0  0  0  0  0
    0.2960   11.3448    5.9171 H   0  0  0  0  0  0  0  0  0  0  0  0
   -1.1955   12.2575    6.1834 H   0  0  0  0  0  0  0  0  0  0  0  0
   -1.8300   10.6847    8.0144 H   0  0  0  0  0  0  0  0  0  0  0  0
   -0.3441    9.7733    7.7499 H   0  0  0  0  0  0  0  0  0  0  0  0
   -0.2647   11.4383    8.3371 H   0  0  0  0  0  0  0  0  0  0  0  0
    0.2475    9.1832    4.8204 H   0  0  0  0  0  0  0  0  0  0  0  0
   -2.3083   -7.6850    0.3335 H   0  0  0  0  0  0  0  0  0  0  0  0
   -4.1498   -9.2798    0.1482 H   0  0  0  0  0  0  0  0  0  0  0  0
   -6.4216   -8.5021   -0.4227 H   0  0  0  0  0  0  0  0  0  0  0  0
   -7.3902   -4.9929   -0.4326 H   0  0  0  0  0  0  0  0  0  0  0  0
   -7.9648   -6.6621   -0.5323 H   0  0  0  0  0  0  0  0  0  0  0  0
   -7.2747   -6.7297   -2.9446 H   0  0  0  0  0  0  0  0  0  0  0  0
   -6.7749   -5.0394   -2.8331 H   0  0  0  0  0  0  0  0  0  0  0  0
   -8.4723   -5.4711   -2.6267 H   0  0  0  0  0  0  0  0  0  0  0  0
   -4.9573   -4.5182   -0.7839 H   0  0  0  0  0  0  0  0  0  0  0  0
    0.6356    1.6218    0.4867 H   0  0  0  0  0  0  0  0  0  0  0  0
    0.7733    3.3802    0.5044 H   0  0  0  0  0  0  0  0  0  0  0  0
    1.9635    1.6563    2.7363 H   0  0  0  0  0  0  0  0  0  0  0  0
    2.8684    2.2751    1.3474 H   0  0  0  0  0  0  0  0  0  0  0  0
    2.1361    3.3886    2.5027 H   0  0  0  0  0  0  0  0  0  0  0  0
    1.0799    0.1291    1.7207 H   0  0  0  0  0  0  0  0  0  0  0  0
    1.0133   -1.3703    0.7764 H   0  0  0  0  0  0  0  0  0  0  0  0
    0.2790   -1.0974    3.7377 H   0  0  0  0  0  0  0  0  0  0  0  0
    1.7988   -1.7559    3.1156 H   0  0  0  0  0  0  0  0  0  0  0  0
    0.2827   -2.6030    2.8135 H   0  0  0  0  0  0  0  0  0  0  0  0
   -4.1284   -9.3590   -4.9450 H   0  0  0  0  0  0  0  0  0  0  0  0
   -3.2162   -8.3914   -6.0999 H   0  0  0  0  0  0  0  0  0  0  0  0
   -2.3441  -11.0726   -4.9229 H   0  0  0  0  0  0  0  0  0  0  0  0
   -1.3563  -10.0932   -6.0025 H   0  0  0  0  0  0  0  0  0  0  0  0
   -2.8813  -10.7810   -6.5807 H   0  0  0  0  0  0  0  0  0  0  0  0
   -4.8642   -7.1922   -4.5137 H   0  0  0  0  0  0  0  0  0  0  0  0
   -4.6039   -5.9356   -3.2862 H   0  0  0  0  0  0  0  0  0  0  0  0
   -4.6423   -4.9505   -5.5691 H   0  0  0  0  0  0  0  0  0  0  0  0
   -3.2774   -5.9639   -6.0447 H   0  0  0  0  0  0  0  0  0  0  0  0
   -3.0673   -4.7341   -4.7970 H   0  0  0  0  0  0  0  0  0  0  0  0
    2.0784  -10.2018   -2.8263 H   0  0  0  0  0  0  0  0  0  0  0  0
   -3.6307  -12.7408   -2.0992 H   0  0  0  0  0  0  0  0  0  0  0  0
   -5.1323  -14.6647   -2.5147 H   0  0  0  0  0  0  0  0  0  0  0  0
   -5.5359  -16.8904   -3.5373 H   0  0  0  0  0  0  0  0  0  0  0  0
   -1.5952  -16.8941   -5.1740 H   0  0  0  0  0  0  0  0  0  0  0  0
   -0.0937  -15.0120   -4.7787 H   0  0  0  0  0  0  0  0  0  0  0  0
  1  2  2  0  0  0  0
  2  3  1  0  0  0  0
  3  4  2  0  0  0  0
  3  5  1  0  0  0  0
  5  6  2  0  0  0  0
  6  7  1  0  0  0  0
  7  8  2  0  0  0  0
  8  9  1  0  0  0  0
  9 10  1  0  0  0  0
  9 11  2  0  0  0  0
 11 12  1  0  0  0  0
  6 13  1  0  0  0  0
 13 14  2  0  0  0  0
 14 15  1  0  0  0  0
 15 16  3  0  0  0  0
 14 17  1  0  0  0  0
 17 18  3  0  0  0  0
  1 19  1  0  0  0  0
 19 20  2  0  0  0  0
 20 21  1  0  0  0  0
 20 22  1  0  0  0  0
 22 23  1  0  0  0  0
 22 24  2  0  0  0  0
 24 25  1  0  0  0  0
 25 26  2  0  0  0  0
 26 27  1  0  0  0  0
 27 28  1  0  0  0  0
 28 29  1  0  0  0  0
 27 30  2  0  0  0  0
 30 31  1  0  0  0  0
 31 32  2  0  0  0  0
 30 33  1  0  0  0  0
 33 34  1  0  0  0  0
 24 35  1  0  0  0  0
 35 36  2  0  0  0  0
 36 37  1  0  0  0  0
 37 38  2  0  0  0  0
 38 39  1  0  0  0  0
 39 40  2  0  0  0  0
 40 41  1  0  0  0  0
 41 42  1  0  0  0  0
 42 43  1  0  0  0  0
 41 44  2  0  0  0  0
 36 45  1  0  0  0  0
 45 46  1  0  0  0  0
 46 47  1  0  0  0  0
 47 48  1  0  0  0  0
 48 49  1  0  0  0  0
 49 50  1  0  0  0  0
 50 51  2  0  0  0  0
 51 52  1  0  0  0  0
 52 53  1  0  0  0  0
 50 54  1  0  0  0  0
 54 55  1  0  0  0  0
 55 56  1  0  0  0  0
 56 57  1  0  0  0  0
 57 58  1  0  0  0  0
 58 59  1  0  0  0  0
 59 60  2  0  0  0  0
 60 61  1  0  0  0  0
 61 62  2  0  0  0  0
 62 63  1  0  0  0  0
 63 64  1  0  0  0  0
 64 65  1  0  0  0  0
 63 66  2  0  0  0  0
 58 67  2  0  0  0  0
 67 68  1  0  0  0  0
 68 69  1  0  0  0  0
 69 70  1  0  0  0  0
 70 71  1  0  0  0  0
 71 72  1  0  0  0  0
 72 73  1  0  0  0  0
 73 74  1  0  0  0  0
 74 75  1  0  0  0  0
 75 76  1  0  0  0  0
 76 77  1  0  0  0  0
 74 78  1  0  0  0  0
 78 79  1  0  0  0  0
 71 80  1  0  0  0  0
 80 81  1  0  0  0  0
 67 82  1  0  0  0  0
 82 83  2  0  0  0  0
 83 84  1  0  0  0  0
 83 85  1  0  0  0  0
 85 86  1  0  0  0  0
 85 87  2  0  0  0  0
 87 88  1  0  0  0  0
 88 89  2  0  0  0  0
 89 90  1  0  0  0  0
 90 91  1  0  0  0  0
 91 92  1  0  0  0  0
 90 93  2  0  0  0  0
 93 94  1  0  0  0  0
 94 95  2  0  0  0  0
 93 96  1  0  0  0  0
 96 97  1  0  0  0  0
 87 98  1  0  0  0  0
 98 99  2  0  0  0  0
 99100  1  0  0  0  0
100101  2  0  0  0  0
100102  1  0  0  0  0
102103  2  0  0  0  0
103104  1  0  0  0  0
104105  2  0  0  0  0
105106  1  0  0  0  0
106107  2  0  0  0  0
107108  1  0  0  0  0
107109  1  0  0  0  0
109110  2  0  0  0  0
110111  1  0  0  0  0
111112  2  0  0  0  0
112113  1  0  0  0  0
113114  2  0  0  0  0
114115  1  0  0  0  0
115116  3  0  0  0  0
114117  1  0  0  0  0
117118  3  0  0  0  0
 13  2  1  0  0  0  0
 32 19  1  0  0  0  0
 77 35  1  0  0  0  0
 95 82  1  0  0  0  0
113 99  1  0  0  0  0
 11  5  1  0  0  0  0
 32 25  1  0  0  0  0
 44 37  1  0  0  0  0
 76 45  2  0  0  0  0
 95 88  1  0  0  0  0
112102  1  0  0  0  0
 75 47  2  0  0  0  0
110104  1  0  0  0  0
 73 48  2  0  0  0  0
 53 49  2  0  0  0  0
 72 54  2  0  0  0  0
 70 55  2  0  0  0  0
 69 57  2  0  0  0  0
 66 59  1  0  0  0  0
  1119  1  0  0  0  0
  7120  1  0  0  0  0
  8121  1  0  0  0  0
 28122  1  0  0  0  0
 28123  1  0  0  0  0
 29124  1  0  0  0  0
 29125  1  0  0  0  0
 29126  1  0  0  0  0
 33127  1  0  0  0  0
 33128  1  0  0  0  0
 34129  1  0  0  0  0
 34130  1  0  0  0  0
 34131  1  0  0  0  0
 38132  1  0  0  0  0
 39133  1  0  0  0  0
 40134  1  0  0  0  0
 42135  1  0  0  0  0
 42136  1  0  0  0  0
 43137  1  0  0  0  0
 43138  1  0  0  0  0
 43139  1  0  0  0  0
 44140  1  0  0  0  0
 60141  1  0  0  0  0
 61142  1  0  0  0  0
 62143  1  0  0  0  0
 64144  1  0  0  0  0
 64145  1  0  0  0  0
 65146  1  0  0  0  0
 65147  1  0  0  0  0
 65148  1  0  0  0  0
 66149  1  0  0  0  0
 78150  1  0  0  0  0
 78151  1  0  0  0  0
 79152  1  0  0  0  0
 79153  1  0  0  0  0
 79154  1  0  0  0  0
 80155  1  0  0  0  0
 80156  1  0  0  0  0
 81157  1  0  0  0  0
 81158  1  0  0  0  0
 81159  1  0  0  0  0
 91160  1  0  0  0  0
 91161  1  0  0  0  0
 92162  1  0  0  0  0
 92163  1  0  0  0  0
 92164  1  0  0  0  0
 96165  1  0  0  0  0
 96166  1  0  0  0  0
 97167  1  0  0  0  0
 97168  1  0  0  0  0
 97169  1  0  0  0  0
 98170  1  0  0  0  0
103171  1  0  0  0  0
105172  1  0  0  0  0
106173  1  0  0  0  0
109174  1  0  0  0  0
111175  1  0  0  0  0
M  END
