171

C          2.32780      -12.10670        2.70510
C          2.13640      -13.42580        3.05470
C          1.94170      -14.58690        2.16990
O          1.96870      -14.63810        0.95730
C          1.67780      -15.73500        3.07020
C          1.72810      -15.30710        4.40770
C          1.49900      -16.21120        5.43260
C          1.22610      -17.53150        5.10620
C          1.18240      -17.94940        3.78570
Br         0.80840      -19.76350        3.40640
C          1.40830      -17.05210        2.73660
Cl         1.35170      -17.56900        1.10530
C          2.03810      -13.87750        4.42700
C          2.23010      -13.14410        5.57220
C          2.58030      -11.77970        5.65220
N          2.87480      -10.68320        5.83040
C          2.12210      -13.66810        6.87740
N          2.05080      -14.01810        7.96880
C          2.47700      -11.47470        1.46670
S          2.63210       -9.71580        1.50930
C          2.77490       -9.66200       -0.19500
C          2.92930       -8.55860       -1.05740
C          3.04030       -8.80060       -2.42450
Ge         2.81400      -10.74120       -2.74220
C          1.02700      -11.09630       -3.57640
C         -0.10460      -10.41790       -2.81990
C          4.34390      -11.69120       -3.62630
C          4.28240      -11.59800       -5.14280
C          2.71740      -10.93500       -0.78090
C          2.54760      -11.93670        0.15100
C          3.17100       -7.62560       -3.15670
C          3.15400       -6.48560       -2.37100
S          2.98140       -6.87520       -0.68050
C          3.19120       -5.12340       -2.78310
C          3.70330       -4.57600       -3.94710
C          4.52080       -5.29150       -4.92800
C          4.28150       -5.14510       -6.29090
C          5.08330       -5.80500       -7.20340
C          6.13010       -6.60010       -6.76960
C          6.39520       -6.73980       -5.41280
C          7.51170       -7.61490       -4.92010
C          6.97140       -8.98510       -4.50780
C          5.58180       -6.08400       -4.50220
C          3.42000       -3.19890       -4.02930
S          3.79420       -1.98710       -5.23140
C          2.99900       -0.80310       -4.25040
C          2.62620        0.54920       -4.31020
C          2.72340        1.50030       -5.34960
C          2.05340        2.76240       -5.20210
N          2.16160        3.52070       -6.28180
S          3.03770        2.72230       -7.38470
N          3.30840        1.37380       -6.53030
C          1.42340        3.06390       -3.97500
C          0.76080        4.21800       -3.52140
S          0.26340        5.77010       -4.10770
C         -0.40260        6.12880       -2.53060
C         -1.05460        7.26090       -2.00300
C         -1.23650        8.49960       -2.76330
C         -0.85940        9.72690       -2.22210
C         -1.00720       10.88140       -2.96570
C         -1.52390       10.82460       -4.24930
C         -1.88660        9.60750       -4.81130
C         -2.47320        9.54070       -6.19180
C         -3.99910        9.63480       -6.13060
C         -1.73760        8.45130       -4.05900
C         -1.41380        7.05820       -0.67970
S         -0.90040        5.48990       -0.07420
C         -0.22930        5.09070       -1.61320
C          0.43360        3.99830       -2.18230
N          0.85160        2.75310       -1.78600
C          1.44310        2.14930       -2.88570
C          1.93160        0.83630       -3.10180
N          1.84910       -0.32520       -2.35700
C          2.49350       -1.31400       -3.05150
C          2.72730       -2.68880       -2.92820
S          2.39470       -3.92730       -1.77170
C          0.98200       -0.66530       -1.25170
C          1.76770       -0.95160        0.02870
C          1.13110        2.55130       -0.38000
C          2.30310        3.41920        0.07840
C         -2.18650        7.89140        0.17610
S         -2.16970        7.63040        1.90170
C         -3.29520        8.91870        2.12660
C         -3.86710        9.41150        3.31770
C         -4.75840       10.49130        3.19380
Ge        -4.93200       10.97590        1.28800
C         -6.75770       10.59290        0.55400
C         -7.24790        9.20940        0.95190
C         -4.15100       12.75780        0.79230
C         -3.83330       12.85030       -0.69280
C         -3.66430        9.51210        0.92260
C         -3.04160        8.92350       -0.17070
C         -5.26420       10.86400        4.41590
C         -4.78680       10.09850        5.49260
S         -3.65820        8.87800        4.93360
C         -5.21050       10.31880        6.80450
C         -4.87560        9.67650        7.97550
C         -3.92200        8.57120        8.10270
O         -3.27410        8.03720        7.21890
C         -3.89320        8.22030        9.53520
C         -3.15480        7.24530       10.17670
C         -3.30150        7.09740       11.54710
C         -4.17880        7.92330       12.23910
Cl        -4.35120        7.72330       13.94230
C         -4.92720        8.91050       11.60410
C         -4.77820        9.05730       10.23600
C         -5.40520        9.98060        9.28580
C         -6.32690       10.94220        9.61730
C         -6.79710       11.17250       10.92690
N         -7.22540       11.41800       11.96370
C         -6.94480       11.83930        8.72240
N         -7.49620       12.60500        8.06610
H          2.36330      -11.41170        3.53560
H          1.52420      -15.91770        6.46820
H          1.04390      -18.25060        5.88990
H          1.05130      -10.74810       -4.60900
H          0.87130      -12.17460       -3.59790
H         -0.15000      -10.77890       -1.79410
H          0.04160       -9.33920       -2.79510
H         -1.06080      -10.62310       -3.29760
H          5.27670      -11.26720       -3.25710
H          4.31090      -12.73410       -3.31250
H          3.38280      -12.07950       -5.52040
H          5.14500      -12.08910       -5.58920
H          4.27220      -10.55870       -5.46480
H          2.46930      -12.98140       -0.08940
H          3.25280       -7.58680       -4.22840
H          3.46430       -4.52610       -6.62870
H          4.89240       -5.69530       -8.26060
H          6.75390       -7.10870       -7.49040
H          7.99250       -7.14460       -4.05970
H          8.26100       -7.74120       -5.70350
H          7.76990       -9.60440       -4.10580
H          6.53890       -9.49210       -5.36700
H          6.19880       -8.87320       -3.74860
H          5.78340       -6.17430       -3.44420
H         -0.44480        9.76700       -1.22570
H         -0.71160       11.83170       -2.54560
H         -1.63660       11.73260       -4.82370
H         -2.18870        8.60000       -6.66690
H         -2.08590       10.36160       -6.79800
H         -4.40590        8.81650       -5.54050
H         -4.42310        9.58540       -7.13070
H         -4.30290       10.57280       -5.67060
H         -2.02290        7.49900       -4.48190
H          0.43060       -1.57130       -1.52900
H          0.25140        0.13290       -1.11540
H          2.33950       -1.86890       -0.08110
H          2.46650       -0.15070        0.25990
H          1.08190       -1.07410        0.86230
H          0.22990        2.81940        0.18020
H          1.37190        1.51300       -0.19120
H          2.49880        3.24170        1.13220
H          3.19750        3.17600       -0.49170
H          2.08110        4.47420       -0.05830
H         -6.71800       10.68130       -0.53140
H         -7.44380       11.35680        0.91850
H         -8.23630        9.01950        0.53780
H         -7.30650        9.12060        2.03500
H         -6.56810        8.44240        0.58500
H         -3.24370       12.89840        1.37950
H         -4.85110       13.54160        1.07920
H         -3.38710       13.81510       -0.92690
H         -3.13550       12.06820       -0.98550
H         -4.73720       12.74010       -1.28830
H         -3.21550        9.21580       -1.19080
H         -5.96910       11.66470        4.56390
H         -5.92440       11.12960        6.88550
H         -2.48160        6.61740        9.61390
H         -2.74200        6.34700       12.08270
H         -5.59510        9.52820       12.18090
