179

C         -7.35060        4.06670        6.67970
C         -8.29530        4.43990        7.60770
C         -8.08430        4.90510        8.98880
O         -7.06820        4.89800        9.65270
C         -9.40200        5.40870        9.44490
C        -10.36310        5.19080        8.44280
C        -11.67610        5.58520        8.64420
C        -12.01060        6.19160        9.84610
C        -11.05970        6.40310       10.83210
Br       -11.57870        7.23560       12.44850
C         -9.72910        6.01300       10.64750
Cl        -8.55440        6.28000       11.86410
C         -9.70910        4.54090        7.30780
C        -10.36450        4.06500        6.20000
C         -9.78290        3.35200        5.13000
N         -9.40930        2.74890        4.22640
C        -11.75340        4.18860        5.98730
N        -12.87390        4.25660        5.74570
C         -5.96330        3.89590        6.77490
C         -5.06930        3.87910        7.83560
C         -3.74680        3.63650        7.47290
C         -2.66460        3.47660        8.45070
C         -2.51040        4.42070        9.47800
O         -3.37830        5.46060        9.47610
C         -3.46320        6.27530       10.63220
C         -4.74170        7.09370       10.54370
C         -1.49550        4.25840       10.41520
C         -0.66730        3.15660       10.34450
C         -0.82960        2.19850        9.36260
C         -1.82930        2.34920        8.40910
O         -2.10470        1.44370        7.42820
C         -1.42560        0.20340        7.40260
C         -0.05920        0.27810        6.72650
C         -3.59480        3.48060        6.09110
S         -5.11040        3.58380        5.27070
C         -2.40050        3.25150        5.35180
C         -1.12440        3.72850        5.60090
C         -0.81790        4.78580        6.56160
C          0.31850        4.73590        7.35940
C          0.58020        5.77370        8.23420
C         -0.26860        6.86310        8.30290
C         -1.39620        6.94400        7.49020
C         -2.27580        8.16400        7.55250
C         -3.68710        7.95430        7.01380
C         -1.65560        5.89660        6.62470
C         -0.19250        3.17850        4.70140
S          1.53590        3.36510        4.52440
C          1.48610        2.30840        3.15350
C          2.35030        1.79500        2.17290
C          3.70750        2.06420        1.88680
C          4.28040        1.55390        0.67150
N          5.53030        1.95270        0.49660
S          5.95460        2.88130        1.75350
N          4.55760        2.81490        2.56910
C          3.50990        0.68830       -0.13540
C          3.80040       -0.00800       -1.32130
S          5.07840       -0.14820       -2.48110
C          4.10770       -1.29780       -3.37220
C          4.32350       -1.97590       -4.58340
C          5.56280       -1.79330       -5.34840
C          5.54370       -1.28180       -6.64270
C          6.73200       -1.08820       -7.32150
C          7.93980       -1.39510       -6.71820
C          7.97670       -1.89050       -5.42130
C          9.28360       -2.16410       -4.73490
C          9.72250       -0.93770       -3.93210
C          6.78050       -2.07940       -4.74360
C          3.24070       -2.78070       -4.91110
S          1.94720       -2.67250       -3.72120
C          2.86730       -1.55490       -2.78090
C          2.69340       -0.81370       -1.60710
N          1.72470       -0.63760       -0.65180
C          2.19180        0.31120        0.24090
C          1.55940        0.97890        1.31800
N          0.24070        1.03110        1.74480
C          0.20490        1.83680        2.85390
C         -0.75780        2.33210        3.74220
S         -2.46360        2.17820        3.96490
C         -0.98020        0.80860        0.99310
C         -0.93350        1.45390       -0.38720
C          0.76850       -1.69100       -0.39010
C          1.46820       -3.00780       -0.05500
C          3.07410       -3.69340       -5.98480
C          3.97040       -4.00370       -6.99620
C          3.50220       -4.97120       -7.87220
C          4.28190       -5.41690       -9.03030
C          3.73940       -5.39600      -10.32590
O          2.46380       -4.93170      -10.41910
C          1.82230       -4.87430      -11.67890
C          2.22810       -3.64840      -12.49120
C          4.51880       -5.80900      -11.40040
C          5.81650       -6.22950      -11.18660
C          6.37770       -6.22650       -9.92310
C          5.61630       -5.81220       -8.83780
O          6.05990       -5.78040       -7.55370
C          7.42230       -6.04180       -7.28270
C          7.65120       -5.75420       -5.80700
C          2.22130       -5.45420       -7.52840
S          1.61200       -4.61710       -6.12000
C          1.60100       -6.50800       -8.19550
C          0.35790       -7.07650       -8.01460
C         -0.61980       -6.70450       -6.99190
O         -0.52940       -5.83220       -6.14520
C         -1.76700       -7.61830       -7.17180
C         -2.94400       -7.68580       -6.45290
C         -3.88180       -8.64360       -6.80750
C         -3.61450       -9.50220       -7.86410
Br        -4.91290      -10.81050       -8.33070
C         -2.43520       -9.44620       -8.59850
C         -1.50230       -8.48710       -8.24380
C         -0.18960       -8.15300       -8.80540
C          0.35910       -8.74670       -9.91510
C         -0.25100       -9.79430      -10.63560
N         -0.68610      -10.64860      -11.26780
C          1.57620       -8.39730      -10.53330
N          2.53210       -8.18030      -11.13410
H         -7.72750        3.89780        5.67760
H        -12.43610        5.43890        7.89560
H        -13.02720        6.50770       10.02230
H         -5.38380        4.01900        8.85220
H         -3.49240        5.64270       11.52890
H         -2.58390        6.93210       10.69420
H         -4.88460        7.64980       11.46640
H         -4.69410        7.79050        9.71280
H         -5.58680        6.42790       10.39100
H         -1.34080        4.98790       11.19260
H          0.11970        3.03730       11.07370
H         -0.17440        1.34350        9.35440
H         -2.08410       -0.45340        6.82590
H         -1.33710       -0.20400        8.41660
H         -0.17290        0.55080        5.68100
H          0.42850       -0.69130        6.78350
H          0.57370        1.02080        7.20530
H          0.97930        3.88430        7.30830
H          1.45460        5.73230        8.86650
H         -0.04970        7.66980        8.98880
H         -2.33290        8.49470        8.59250
H         -1.78980        8.96870        6.99000
H         -4.13760        7.07630        7.47170
H         -3.68130        7.82460        5.93400
H         -4.30260        8.82310        7.23920
H         -2.50980        5.93440        5.96820
H          4.59980       -1.03460       -7.10580
H          6.71640       -0.69430       -8.32710
H          8.86380       -1.24340       -7.25730
H         10.04920       -2.40600       -5.47480
H          9.17770       -3.01610       -4.06000
H          8.97110       -0.68400       -3.18780
H          9.85270       -0.08180       -4.59030
H         10.66440       -1.13270       -3.42490
H          6.79230       -2.46660       -3.73460
H         -1.78430        1.26370        1.57670
H         -1.21290       -0.25630        0.91150
H         -0.72260        2.51690       -0.29540
H         -1.89570        1.33140       -0.87640
H         -0.16690        1.00260       -1.01030
H          0.13410       -1.82020       -1.27240
H          0.15960       -1.40270        0.46110
H          0.72430       -3.76030        0.19150
H          2.05210       -3.36610       -0.89750
H          2.12940       -2.87540        0.79900
H          4.93470       -3.54540       -7.09800
H          0.75710       -4.81720      -11.43370
H          1.99700       -5.79910      -12.23980
H          1.67290       -3.62990      -13.42500
H          3.29220       -3.66220      -12.71230
H          2.00590       -2.74440      -11.92950
H          4.12290       -5.82290      -12.40110
H          6.40820       -6.56080      -12.02630
H          7.39630       -6.55310       -9.79270
H          7.66100       -7.09000       -7.51000
H          8.06080       -5.39240       -7.89710
H          8.68790       -5.94920       -5.54830
H          7.00580       -6.38630       -5.20330
H          7.41700       -4.71430       -5.59360
H          2.21560       -6.94090       -8.97420
H         -3.12170       -7.00390       -5.63590
H         -4.81420       -8.72690       -6.27110
H         -2.27330      -10.13660       -9.40990
