
  xtb     02052215163D
 energy: -311.630246874363 gnorm: 0.000490300172 xtb: 6.4.1 (unknown)
169186  0     0  0            999 V2000
   -6.4448   -1.4028   -9.0053 C   0  0  0  0  0  0  0  0  0  0  0  0
   -6.4275   -2.5165   -9.7807 C   0  0  0  0  0  0  0  0  0  0  0  0
   -5.8542   -3.8220   -9.3506 C   0  0  0  0  0  0  0  0  0  0  0  0
   -5.3436   -4.0873   -8.2887 O   0  0  0  0  0  0  0  0  0  0  0  0
   -5.9116   -4.6845  -10.5517 C   0  0  0  0  0  0  0  0  0  0  0  0
   -6.4405   -3.9587  -11.6358 C   0  0  0  0  0  0  0  0  0  0  0  0
   -6.5738   -4.5649  -12.8760 C   0  0  0  0  0  0  0  0  0  0  0  0
   -6.1808   -5.8872  -13.0146 C   0  0  0  0  0  0  0  0  0  0  0  0
   -5.6614   -6.5989  -11.9434 C   0  0  0  0  0  0  0  0  0  0  0  0
   -5.1471   -8.3976  -12.1980 Br  0  0  0  0  0  0  0  0  0  0  0  0
   -5.5117   -6.0051  -10.6848 C   0  0  0  0  0  0  0  0  0  0  0  0
   -4.8707   -6.8777   -9.3609 Cl  0  0  0  0  0  0  0  0  0  0  0  0
   -6.7672   -2.6081  -11.1883 C   0  0  0  0  0  0  0  0  0  0  0  0
   -7.3424   -1.6291  -11.9531 C   0  0  0  0  0  0  0  0  0  0  0  0
   -7.6979   -0.3428  -11.4917 C   0  0  0  0  0  0  0  0  0  0  0  0
   -8.0262    0.7174  -11.1982 N   0  0  0  0  0  0  0  0  0  0  0  0
   -7.6668   -1.7745  -13.3189 C   0  0  0  0  0  0  0  0  0  0  0  0
   -7.9475   -1.8231  -14.4307 N   0  0  0  0  0  0  0  0  0  0  0  0
   -6.2266   -1.3773   -7.5862 C   0  0  0  0  0  0  0  0  0  0  0  0
   -6.7463   -2.3112   -6.7012 C   0  0  0  0  0  0  0  0  0  0  0  0
   -7.5676   -3.2709   -7.1429 F   0  0  0  0  0  0  0  0  0  0  0  0
   -6.5065   -2.2493   -5.3273 C   0  0  0  0  0  0  0  0  0  0  0  0
   -7.0103   -3.2386   -4.5738 F   0  0  0  0  0  0  0  0  0  0  0  0
   -5.7386   -1.2446   -4.7497 C   0  0  0  0  0  0  0  0  0  0  0  0
   -5.1884   -0.2704   -5.6379 C   0  0  0  0  0  0  0  0  0  0  0  0
   -4.4151    0.7089   -5.1407 N   0  0  0  0  0  0  0  0  0  0  0  0
   -3.9453    1.6337   -5.9403 C   0  0  0  0  0  0  0  0  0  0  0  0
   -3.0854    2.7109   -5.3511 C   0  0  0  0  0  0  0  0  0  0  0  0
   -2.8574    2.5467   -3.8555 C   0  0  0  0  0  0  0  0  0  0  0  0
   -4.2537    1.6052   -7.3330 C   0  0  0  0  0  0  0  0  0  0  0  0
   -4.9752    0.6364   -7.8380 N   0  0  0  0  0  0  0  0  0  0  0  0
   -5.4636   -0.3150   -7.0244 C   0  0  0  0  0  0  0  0  0  0  0  0
   -3.8258    2.6729   -8.2916 C   0  0  0  0  0  0  0  0  0  0  0  0
   -4.8782    3.7840   -8.3474 C   0  0  0  0  0  0  0  0  0  0  0  0
   -5.4518   -1.1807   -3.3454 C   0  0  0  0  0  0  0  0  0  0  0  0
   -6.2373   -1.5614   -2.2668 C   0  0  0  0  0  0  0  0  0  0  0  0
   -7.6611   -1.8836   -2.3333 C   0  0  0  0  0  0  0  0  0  0  0  0
   -8.1908   -2.9109   -1.5586 C   0  0  0  0  0  0  0  0  0  0  0  0
   -9.5420   -3.1929   -1.6220 C   0  0  0  0  0  0  0  0  0  0  0  0
  -10.3724   -2.4553   -2.4466 C   0  0  0  0  0  0  0  0  0  0  0  0
   -9.8625   -1.4182   -3.2192 C   0  0  0  0  0  0  0  0  0  0  0  0
  -10.7713   -0.5833   -4.0752 C   0  0  0  0  0  0  0  0  0  0  0  0
  -11.3668    0.5656   -3.2591 C   0  0  0  0  0  0  0  0  0  0  0  0
   -8.5082   -1.1375   -3.1494 C   0  0  0  0  0  0  0  0  0  0  0  0
   -5.5144   -1.4744   -1.0625 C   0  0  0  0  0  0  0  0  0  0  0  0
   -5.9362   -1.8149    0.5998 S   0  0  0  0  0  0  0  0  0  0  0  0
   -4.3410   -1.3435    1.0753 C   0  0  0  0  0  0  0  0  0  0  0  0
   -3.5449   -1.3001    2.2306 C   0  0  0  0  0  0  0  0  0  0  0  0
   -3.7685   -1.7715    3.5442 C   0  0  0  0  0  0  0  0  0  0  0  0
   -2.6706   -1.8060    4.4713 C   0  0  0  0  0  0  0  0  0  0  0  0
   -3.0050   -2.3539    5.6286 N   0  0  0  0  0  0  0  0  0  0  0  0
   -4.5653   -2.7804    5.5647 S   0  0  0  0  0  0  0  0  0  0  0  0
   -4.8752   -2.2877    4.0547 N   0  0  0  0  0  0  0  0  0  0  0  0
   -1.4365   -1.2341    4.0900 C   0  0  0  0  0  0  0  0  0  0  0  0
   -0.2243   -1.0498    4.7754 C   0  0  0  0  0  0  0  0  0  0  0  0
    0.5085   -1.4839    6.2812 S   0  0  0  0  0  0  0  0  0  0  0  0
    1.9692   -0.6624    5.7782 C   0  0  0  0  0  0  0  0  0  0  0  0
    3.2100   -0.4605    6.4052 C   0  0  0  0  0  0  0  0  0  0  0  0
    3.4679   -0.8430    7.7916 C   0  0  0  0  0  0  0  0  0  0  0  0
    4.0668    0.0588    8.6694 C   0  0  0  0  0  0  0  0  0  0  0  0
    4.2652   -0.2953    9.9890 C   0  0  0  0  0  0  0  0  0  0  0  0
    3.8726   -1.5424   10.4439 C   0  0  0  0  0  0  0  0  0  0  0  0
    3.2662   -2.4499    9.5847 C   0  0  0  0  0  0  0  0  0  0  0  0
    2.8852   -3.8227   10.0564 C   0  0  0  0  0  0  0  0  0  0  0  0
    4.0346   -4.8016    9.8080 C   0  0  0  0  0  0  0  0  0  0  0  0
    3.0646   -2.0875    8.2620 C   0  0  0  0  0  0  0  0  0  0  0  0
    4.0716    0.2634    5.5866 C   0  0  0  0  0  0  0  0  0  0  0  0
    3.3060    0.7905    4.0975 S   0  0  0  0  0  0  0  0  0  0  0  0
    1.8694   -0.0774    4.5111 C   0  0  0  0  0  0  0  0  0  0  0  0
    0.6126   -0.2988    3.9408 C   0  0  0  0  0  0  0  0  0  0  0  0
   -0.0302   -0.0216    2.7602 N   0  0  0  0  0  0  0  0  0  0  0  0
   -1.2742   -0.6237    2.8159 C   0  0  0  0  0  0  0  0  0  0  0  0
   -2.2760   -0.7960    1.8315 C   0  0  0  0  0  0  0  0  0  0  0  0
   -2.2871   -0.5881    0.4606 N   0  0  0  0  0  0  0  0  0  0  0  0
   -3.5365   -0.9274    0.0092 C   0  0  0  0  0  0  0  0  0  0  0  0
   -4.2044   -1.0096   -1.2182 C   0  0  0  0  0  0  0  0  0  0  0  0
   -3.8601   -0.6329   -2.8679 S   0  0  0  0  0  0  0  0  0  0  0  0
   -1.1767   -0.5637   -0.4718 C   0  0  0  0  0  0  0  0  0  0  0  0
   -0.1815   -1.6889   -0.2093 C   0  0  0  0  0  0  0  0  0  0  0  0
    0.3411    1.1311    1.9702 C   0  0  0  0  0  0  0  0  0  0  0  0
    0.3455    2.4089    2.8085 C   0  0  0  0  0  0  0  0  0  0  0  0
    5.4598    0.5590    5.7556 C   0  0  0  0  0  0  0  0  0  0  0  0
    6.3619   -0.2295    6.4668 C   0  0  0  0  0  0  0  0  0  0  0  0
    5.9696   -1.3805    7.0355 F   0  0  0  0  0  0  0  0  0  0  0  0
    7.7195    0.0811    6.5421 C   0  0  0  0  0  0  0  0  0  0  0  0
    8.5179   -0.7574    7.2172 F   0  0  0  0  0  0  0  0  0  0  0  0
    8.2876    1.1641    5.8836 C   0  0  0  0  0  0  0  0  0  0  0  0
    7.3908    2.0119    5.1674 C   0  0  0  0  0  0  0  0  0  0  0  0
    7.8292    3.1516    4.6121 N   0  0  0  0  0  0  0  0  0  0  0  0
    7.0270    3.8861    3.8853 C   0  0  0  0  0  0  0  0  0  0  0  0
    7.5676    5.1943    3.3959 C   0  0  0  0  0  0  0  0  0  0  0  0
    7.1222    6.3324    4.3181 C   0  0  0  0  0  0  0  0  0  0  0  0
    5.6913    3.4552    3.6434 C   0  0  0  0  0  0  0  0  0  0  0  0
    5.2269    2.4096    4.2771 N   0  0  0  0  0  0  0  0  0  0  0  0
    6.0208    1.6814    5.0704 C   0  0  0  0  0  0  0  0  0  0  0  0
    4.7682    4.1028    2.6599 C   0  0  0  0  0  0  0  0  0  0  0  0
    5.0002    3.4946    1.2739 C   0  0  0  0  0  0  0  0  0  0  0  0
    9.6855    1.4667    5.9562 C   0  0  0  0  0  0  0  0  0  0  0  0
   10.3396    2.0753    4.9322 C   0  0  0  0  0  0  0  0  0  0  0  0
    9.8056    2.1387    3.5434 C   0  0  0  0  0  0  0  0  0  0  0  0
    9.0124    1.3910    3.0179 O   0  0  0  0  0  0  0  0  0  0  0  0
   10.6401    3.1565    2.8623 C   0  0  0  0  0  0  0  0  0  0  0  0
   11.7319    3.4896    3.6842 C   0  0  0  0  0  0  0  0  0  0  0  0
   12.6785    4.4000    3.2365 C   0  0  0  0  0  0  0  0  0  0  0  0
   12.5102    4.9740    1.9857 C   0  0  0  0  0  0  0  0  0  0  0  0
   11.4241    4.6508    1.1848 C   0  0  0  0  0  0  0  0  0  0  0  0
   11.2306    5.4937   -0.4960 Br  0  0  0  0  0  0  0  0  0  0  0  0
   10.4716    3.7206    1.6098 C   0  0  0  0  0  0  0  0  0  0  0  0
    9.1239    3.3120    0.6360 Cl  0  0  0  0  0  0  0  0  0  0  0  0
   11.6111    2.7694    4.9520 C   0  0  0  0  0  0  0  0  0  0  0  0
   12.5228    2.7951    5.9731 C   0  0  0  0  0  0  0  0  0  0  0  0
   12.3783    2.1073    7.1974 C   0  0  0  0  0  0  0  0  0  0  0  0
   12.3269    1.5858    8.2184 N   0  0  0  0  0  0  0  0  0  0  0  0
   13.7433    3.5012    5.9286 C   0  0  0  0  0  0  0  0  0  0  0  0
   14.7489    4.0544    5.9449 N   0  0  0  0  0  0  0  0  0  0  0  0
   -6.5695   -0.4278   -9.4572 H   0  0  0  0  0  0  0  0  0  0  0  0
   -6.9697   -4.0364  -13.7270 H   0  0  0  0  0  0  0  0  0  0  0  0
   -6.2771   -6.3780  -13.9708 H   0  0  0  0  0  0  0  0  0  0  0  0
   -2.1232    2.7096   -5.8718 H   0  0  0  0  0  0  0  0  0  0  0  0
   -3.5576    3.6770   -5.5500 H   0  0  0  0  0  0  0  0  0  0  0  0
   -2.2723    3.3803   -3.4749 H   0  0  0  0  0  0  0  0  0  0  0  0
   -2.3265    1.6209   -3.6553 H   0  0  0  0  0  0  0  0  0  0  0  0
   -3.8072    2.5114   -3.3303 H   0  0  0  0  0  0  0  0  0  0  0  0
   -2.8600    3.0880   -8.0032 H   0  0  0  0  0  0  0  0  0  0  0  0
   -3.7396    2.2227   -9.2811 H   0  0  0  0  0  0  0  0  0  0  0  0
   -4.5674    4.5546   -9.0478 H   0  0  0  0  0  0  0  0  0  0  0  0
   -5.8298    3.3767   -8.6788 H   0  0  0  0  0  0  0  0  0  0  0  0
   -5.0189    4.2408   -7.3702 H   0  0  0  0  0  0  0  0  0  0  0  0
   -7.5405   -3.5014   -0.9321 H   0  0  0  0  0  0  0  0  0  0  0  0
   -9.9488   -3.9974   -1.0279 H   0  0  0  0  0  0  0  0  0  0  0  0
  -11.4268   -2.6857   -2.4957 H   0  0  0  0  0  0  0  0  0  0  0  0
  -10.2139   -0.1745   -4.9209 H   0  0  0  0  0  0  0  0  0  0  0  0
  -11.5798   -1.2031   -4.4677 H   0  0  0  0  0  0  0  0  0  0  0  0
  -11.9387    0.1765   -2.4198 H   0  0  0  0  0  0  0  0  0  0  0  0
  -10.5755    1.2012   -2.8674 H   0  0  0  0  0  0  0  0  0  0  0  0
  -12.0250    1.1709   -3.8780 H   0  0  0  0  0  0  0  0  0  0  0  0
   -8.1018   -0.3208   -3.7317 H   0  0  0  0  0  0  0  0  0  0  0  0
    4.3605    1.0374    8.3157 H   0  0  0  0  0  0  0  0  0  0  0  0
    4.7283    0.4055   10.6682 H   0  0  0  0  0  0  0  0  0  0  0  0
    4.0364   -1.8130   11.4769 H   0  0  0  0  0  0  0  0  0  0  0  0
    2.6543   -3.7990   11.1231 H   0  0  0  0  0  0  0  0  0  0  0  0
    1.9974   -4.1640    9.5204 H   0  0  0  0  0  0  0  0  0  0  0  0
    4.9233   -4.4867   10.3501 H   0  0  0  0  0  0  0  0  0  0  0  0
    4.2780   -4.8366    8.7487 H   0  0  0  0  0  0  0  0  0  0  0  0
    3.7615   -5.8014   10.1370 H   0  0  0  0  0  0  0  0  0  0  0  0
    2.6091   -2.7907    7.5805 H   0  0  0  0  0  0  0  0  0  0  0  0
   -0.6692    0.4041   -0.4665 H   0  0  0  0  0  0  0  0  0  0  0  0
   -1.6135   -0.6902   -1.4654 H   0  0  0  0  0  0  0  0  0  0  0  0
   -0.6890   -2.6503   -0.2371 H   0  0  0  0  0  0  0  0  0  0  0  0
    0.5877   -1.6801   -0.9765 H   0  0  0  0  0  0  0  0  0  0  0  0
    0.2940   -1.5777    0.7610 H   0  0  0  0  0  0  0  0  0  0  0  0
   -0.3909    1.2501    1.1762 H   0  0  0  0  0  0  0  0  0  0  0  0
    1.3340    0.9652    1.5401 H   0  0  0  0  0  0  0  0  0  0  0  0
    1.1064    2.3667    3.5820 H   0  0  0  0  0  0  0  0  0  0  0  0
   -0.6251    2.5533    3.2783 H   0  0  0  0  0  0  0  0  0  0  0  0
    0.5526    3.2609    2.1664 H   0  0  0  0  0  0  0  0  0  0  0  0
    7.2340    5.3877    2.3763 H   0  0  0  0  0  0  0  0  0  0  0  0
    8.6569    5.1374    3.4040 H   0  0  0  0  0  0  0  0  0  0  0  0
    7.5170    7.2787    3.9575 H   0  0  0  0  0  0  0  0  0  0  0  0
    7.4939    6.1628    5.3258 H   0  0  0  0  0  0  0  0  0  0  0  0
    6.0375    6.4016    4.3601 H   0  0  0  0  0  0  0  0  0  0  0  0
    3.7435    3.8993    2.9723 H   0  0  0  0  0  0  0  0  0  0  0  0
    4.9248    5.1803    2.6246 H   0  0  0  0  0  0  0  0  0  0  0  0
    4.3279    3.9461    0.5487 H   0  0  0  0  0  0  0  0  0  0  0  0
    4.8163    2.4236    1.3052 H   0  0  0  0  0  0  0  0  0  0  0  0
    6.0242    3.6575    0.9459 H   0  0  0  0  0  0  0  0  0  0  0  0
   10.1881    1.2414    6.8871 H   0  0  0  0  0  0  0  0  0  0  0  0
   13.5310    4.6738    3.8350 H   0  0  0  0  0  0  0  0  0  0  0  0
   13.2315    5.6903    1.6234 H   0  0  0  0  0  0  0  0  0  0  0  0
  1  2  2  0  0  0  0
  2  3  1  0  0  0  0
  3  4  2  0  0  0  0
  3  5  1  0  0  0  0
  5  6  2  0  0  0  0
  6  7  1  0  0  0  0
  7  8  2  0  0  0  0
  8  9  1  0  0  0  0
  9 10  1  0  0  0  0
  9 11  2  0  0  0  0
 11 12  1  0  0  0  0
  6 13  1  0  0  0  0
 13 14  2  0  0  0  0
 14 15  1  0  0  0  0
 15 16  3  0  0  0  0
 14 17  1  0  0  0  0
 17 18  3  0  0  0  0
  1 19  1  0  0  0  0
 19 20  2  0  0  0  0
 20 21  1  0  0  0  0
 20 22  1  0  0  0  0
 22 23  1  0  0  0  0
 22 24  2  0  0  0  0
 24 25  1  0  0  0  0
 25 26  2  0  0  0  0
 26 27  1  0  0  0  0
 27 28  1  0  0  0  0
 28 29  1  0  0  0  0
 27 30  2  0  0  0  0
 30 31  1  0  0  0  0
 31 32  2  0  0  0  0
 30 33  1  0  0  0  0
 33 34  1  0  0  0  0
 24 35  1  0  0  0  0
 35 36  2  0  0  0  0
 36 37  1  0  0  0  0
 37 38  2  0  0  0  0
 38 39  1  0  0  0  0
 39 40  2  0  0  0  0
 40 41  1  0  0  0  0
 41 42  1  0  0  0  0
 42 43  1  0  0  0  0
 41 44  2  0  0  0  0
 36 45  1  0  0  0  0
 45 46  1  0  0  0  0
 46 47  1  0  0  0  0
 47 48  1  0  0  0  0
 48 49  1  0  0  0  0
 49 50  1  0  0  0  0
 50 51  2  0  0  0  0
 51 52  1  0  0  0  0
 52 53  1  0  0  0  0
 50 54  1  0  0  0  0
 54 55  1  0  0  0  0
 55 56  1  0  0  0  0
 56 57  1  0  0  0  0
 57 58  1  0  0  0  0
 58 59  1  0  0  0  0
 59 60  2  0  0  0  0
 60 61  1  0  0  0  0
 61 62  2  0  0  0  0
 62 63  1  0  0  0  0
 63 64  1  0  0  0  0
 64 65  1  0  0  0  0
 63 66  2  0  0  0  0
 58 67  2  0  0  0  0
 67 68  1  0  0  0  0
 68 69  1  0  0  0  0
 69 70  1  0  0  0  0
 70 71  1  0  0  0  0
 71 72  1  0  0  0  0
 72 73  1  0  0  0  0
 73 74  1  0  0  0  0
 74 75  1  0  0  0  0
 75 76  1  0  0  0  0
 76 77  1  0  0  0  0
 74 78  1  0  0  0  0
 78 79  1  0  0  0  0
 71 80  1  0  0  0  0
 80 81  1  0  0  0  0
 67 82  1  0  0  0  0
 82 83  2  0  0  0  0
 83 84  1  0  0  0  0
 83 85  1  0  0  0  0
 85 86  1  0  0  0  0
 85 87  2  0  0  0  0
 87 88  1  0  0  0  0
 88 89  2  0  0  0  0
 89 90  1  0  0  0  0
 90 91  1  0  0  0  0
 91 92  1  0  0  0  0
 90 93  2  0  0  0  0
 93 94  1  0  0  0  0
 94 95  2  0  0  0  0
 93 96  1  0  0  0  0
 96 97  1  0  0  0  0
 87 98  1  0  0  0  0
 98 99  2  0  0  0  0
 99100  1  0  0  0  0
100101  2  0  0  0  0
100102  1  0  0  0  0
102103  2  0  0  0  0
103104  1  0  0  0  0
104105  2  0  0  0  0
105106  1  0  0  0  0
106107  1  0  0  0  0
106108  2  0  0  0  0
108109  1  0  0  0  0
103110  1  0  0  0  0
110111  2  0  0  0  0
111112  1  0  0  0  0
112113  3  0  0  0  0
111114  1  0  0  0  0
114115  3  0  0  0  0
 13  2  1  0  0  0  0
 32 19  1  0  0  0  0
 77 35  1  0  0  0  0
 95 82  1  0  0  0  0
110 99  1  0  0  0  0
 11  5  1  0  0  0  0
 32 25  1  0  0  0  0
 44 37  1  0  0  0  0
 76 45  2  0  0  0  0
 95 88  1  0  0  0  0
108102  1  0  0  0  0
 75 47  2  0  0  0  0
 73 48  2  0  0  0  0
 53 49  2  0  0  0  0
 72 54  2  0  0  0  0
 70 55  2  0  0  0  0
 69 57  2  0  0  0  0
 66 59  1  0  0  0  0
  1116  1  0  0  0  0
  7117  1  0  0  0  0
  8118  1  0  0  0  0
 28119  1  0  0  0  0
 28120  1  0  0  0  0
 29121  1  0  0  0  0
 29122  1  0  0  0  0
 29123  1  0  0  0  0
 33124  1  0  0  0  0
 33125  1  0  0  0  0
 34126  1  0  0  0  0
 34127  1  0  0  0  0
 34128  1  0  0  0  0
 38129  1  0  0  0  0
 39130  1  0  0  0  0
 40131  1  0  0  0  0
 42132  1  0  0  0  0
 42133  1  0  0  0  0
 43134  1  0  0  0  0
 43135  1  0  0  0  0
 43136  1  0  0  0  0
 44137  1  0  0  0  0
 60138  1  0  0  0  0
 61139  1  0  0  0  0
 62140  1  0  0  0  0
 64141  1  0  0  0  0
 64142  1  0  0  0  0
 65143  1  0  0  0  0
 65144  1  0  0  0  0
 65145  1  0  0  0  0
 66146  1  0  0  0  0
 78147  1  0  0  0  0
 78148  1  0  0  0  0
 79149  1  0  0  0  0
 79150  1  0  0  0  0
 79151  1  0  0  0  0
 80152  1  0  0  0  0
 80153  1  0  0  0  0
 81154  1  0  0  0  0
 81155  1  0  0  0  0
 81156  1  0  0  0  0
 91157  1  0  0  0  0
 91158  1  0  0  0  0
 92159  1  0  0  0  0
 92160  1  0  0  0  0
 92161  1  0  0  0  0
 96162  1  0  0  0  0
 96163  1  0  0  0  0
 97164  1  0  0  0  0
 97165  1  0  0  0  0
 97166  1  0  0  0  0
 98167  1  0  0  0  0
104168  1  0  0  0  0
105169  1  0  0  0  0
M  END
