207

C         -4.28910        7.68790       10.67340
C         -5.61210        7.49680       10.98050
C         -6.64830        6.77290       10.22030
O         -6.52330        6.05680        9.24820
C         -7.93600        7.14040       10.85730
C         -7.69970        7.98890       11.95350
C         -8.76320        8.47670       12.69580
C        -10.05030        8.10650       12.33440
C        -10.27860        7.26460       11.25720
Br       -12.05630        6.79170       10.81930
C         -9.21860        6.76440       10.49320
Cl        -9.50280        5.72670        9.16120
C         -6.25820        8.18330       12.08240
C         -5.63670        8.82630       13.12330
C         -4.24250        8.90300       13.33180
N         -3.13220        8.99350       13.61460
C         -6.32250        9.46950       14.17440
N         -6.82370       10.01570       15.05130
C         -3.39920        7.05180        9.77180
C         -3.63670        5.81040        9.16130
C         -2.69130        5.19530        8.37540
O         -2.85550        3.99360        7.76420
C         -4.13310        3.38430        7.69180
C         -5.09280        4.11420        6.76030
C         -1.41960        5.80110        8.19110
C         -1.18180        7.04150        8.78980
C         -2.13650        7.67930        9.55750
O         -1.99410        8.91720       10.08220
C         -0.70530        9.44110       10.35870
C         -0.06640        8.73580       11.54750
C         -0.43400        5.18720        7.34840
C          0.91880        5.48250        7.24730
C          1.71720        6.27370        8.18990
C          1.71540        5.95520        9.54620
C          2.52420        6.65850       10.41760
C          3.32530        7.68690        9.95070
C          3.34240        8.01350        8.60110
C          4.17080        9.15870        8.09540
C          3.33440       10.43960        8.05380
C          2.54140        7.29230        7.72710
C          1.51350        4.81520        6.16420
S          3.15030        4.79060        5.54760
C          2.64970        3.65420        4.34100
C          3.20550        2.90480        3.28860
C          4.53110        2.70580        2.83950
C          4.78980        1.70930        1.83130
N          6.08110        1.58030        1.57190
S          6.90140        2.62190        2.50100
N          5.64110        3.27860        3.27630
C          3.70050        1.05850        1.20850
C          3.60410        0.14730        0.14130
S          4.63750       -0.78530       -0.89060
C          3.22370       -1.40760       -1.71000
C          3.05570       -2.34830       -2.74340
C          4.20330       -3.10980       -3.24320
C          4.19530       -4.50230       -3.21690
C          5.34550       -5.20130       -3.52350
C          6.51020       -4.52620       -3.84720
C          6.53380       -3.13900       -3.88560
C          7.80630       -2.38760       -4.15200
C          8.43910       -1.94520       -2.83070
C          5.37270       -2.44250       -3.58590
C          1.71330       -2.52850       -3.05020
S          0.66360       -1.56980       -2.01200
C          2.02810       -0.90170       -1.20010
C          2.24330       -0.01730       -0.13850
N          1.48680        0.73610        0.72360
C          2.36700        1.37140        1.58040
C          2.13500        2.16360        2.72450
N          0.97720        2.40410        3.44160
C          1.29360        3.31740        4.41810
C          0.63910        3.98320        5.46040
S         -0.94530        4.01430        6.14430
C         -0.11890        1.47760        3.64240
C          0.06160        0.67470        4.93050
C          0.16540        1.19570        0.34440
C          0.18720        1.91880       -1.00170
C          1.14750       -3.33240       -4.07840
C         -0.14920       -3.82610       -4.18780
N         -1.21340       -3.59620       -3.31030
C         -1.90040       -4.74340       -2.87500
C         -1.16610       -5.85090       -2.45840
C         -1.81070       -7.00180       -2.05170
C         -3.19770       -7.08020       -2.04240
C         -3.89610       -8.32090       -1.57700
C         -3.92270       -5.97080       -2.46160
C         -3.29030       -4.81740       -2.88020
C         -1.78760       -2.32590       -3.22420
C         -1.57580       -1.37260       -4.21900
C         -2.09280       -0.09900       -4.08670
C         -2.83990        0.26220       -2.97380
C         -3.41750        1.63950       -2.85040
C         -3.05660       -0.69630       -1.98980
C         -2.53970       -1.96940       -2.10410
C         -0.28270       -4.66190       -5.31550
S         -1.61270       -5.55000       -5.95430
C         -0.60890       -6.11270       -7.30330
C          0.67440       -5.50530       -7.29460
N          1.57190       -5.50700       -8.31460
C          2.93410       -5.22580       -8.05730
C          3.59490       -4.28250       -8.83700
C          4.93420       -4.03050       -8.62060
C          5.64130       -4.71470       -7.63780
C          7.09260       -4.42790       -7.41420
C          4.96950       -5.65780       -6.87060
C          3.62630       -5.91260       -7.06730
C          1.21530       -5.74700       -9.65050
C          2.05740       -6.50420      -10.46240
C          1.69850       -6.78480      -11.76790
C          0.50440       -6.31770      -12.29990
C          0.08300       -6.66560      -13.69220
C         -0.30580       -5.51720      -11.49680
C          0.03900       -5.23120      -10.19320
C          0.84960       -4.74950       -6.11390
S          2.14820       -3.81110       -5.44610
C         -1.18510       -7.03850       -8.16330
C         -0.50270       -7.89980       -9.00910
C          0.86000       -8.36830       -8.75040
O          1.57150       -8.09360       -7.80250
C          1.14400       -9.36060       -9.81710
C          0.01250       -9.49520      -10.64000
C          0.02920      -10.38010      -11.70310
C          1.18690      -11.10840      -11.94300
C          2.30680      -10.95510      -11.14290
Br         3.86750      -11.94790      -11.54140
C          2.30230      -10.07570      -10.05490
Cl         3.69160       -9.86680       -9.07190
C         -1.01440       -8.56620      -10.16570
C         -2.18420       -8.26470      -10.82440
C         -3.07160       -7.24980      -10.41820
N         -3.82030       -6.41690      -10.16130
C         -2.58860       -8.86760      -12.02780
N         -2.95750       -9.31700      -13.01920
H         -3.80550        8.49000       11.21880
H         -8.61610        9.13500       13.53540
H        -10.89300        8.47690       12.89740
H         -4.58910        5.34200        9.32850
H         -4.56460        3.28130        8.69370
H         -3.91670        2.38530        7.30240
H         -4.61070        4.29420        5.80220
H         -5.40660        5.06400        7.18330
H         -5.97480        3.50010        6.60240
H         -0.23370        7.51740        8.60720
H         -0.89430       10.49090       10.59620
H         -0.05710        9.39470        9.47640
H          0.10540        7.68720       11.31590
H          0.88480        9.20260       11.78500
H         -0.72560        8.80380       12.41000
H          1.08680        5.15250        9.90340
H          2.53340        6.40300       11.46700
H          3.95070        8.23560       10.63990
H          5.03110        9.31090        8.74940
H          4.53800        8.93450        7.09220
H          2.95970       10.68050        9.04670
H          2.48370       10.31630        7.38680
H          3.93410       11.27380        7.69800
H          2.54800        7.53060        6.67300
H          3.29810       -5.02820       -2.92550
H          5.33990       -6.28090       -3.48350
H          7.41280       -5.08110       -4.05970
H          7.59590       -1.50540       -4.76100
H          8.51180       -3.02110       -4.69350
H          7.75210       -1.31290       -2.27300
H          8.67680       -2.81210       -2.21840
H          9.35480       -1.38840       -3.01530
H          5.37870       -1.36240       -3.60960
H         -1.05190        2.04820        3.68940
H         -0.15670        0.78070        2.80790
H          1.00760        0.13780        4.90780
H         -0.74670       -0.04510        5.02500
H          0.04820        1.32440        5.80070
H         -0.19320        1.89270        1.10020
H         -0.50790        0.33380        0.28400
H         -0.80140        2.31660       -1.21130
H          0.89980        2.74060       -0.97560
H          0.45810        1.24190       -1.80630
H         -0.08640       -5.80290       -2.45840
H         -1.22570       -7.85300       -1.73430
H         -3.27190       -9.19810       -1.72920
H         -4.12020       -8.24680       -0.51200
H         -4.83510       -8.45840       -2.10810
H         -5.00210       -6.01550       -2.47580
H         -3.87030       -3.97580       -3.22780
H         -1.00070       -1.63190       -5.09590
H         -1.91440        0.62660       -4.86730
H         -3.58090        1.90170       -1.80730
H         -4.37900        1.68810       -3.36270
H         -2.76070        2.37810       -3.30510
H         -3.63330       -0.43720       -1.11300
H         -2.69680       -2.69350       -1.31890
H          3.05430       -3.75590       -9.61010
H          5.44160       -3.29520       -9.22790
H          7.19790       -3.52990       -6.80600
H          7.60380       -4.25710       -8.35930
H          7.57550       -5.25060       -6.89390
H          5.50800       -6.21070       -6.11690
H          3.11310       -6.66960       -6.49560
H          2.98670       -6.87830      -10.06000
H          2.35490       -7.38920      -12.37700
H         -0.73770       -7.38370      -13.66820
H         -0.27020       -5.78150      -14.21920
H          0.90500       -7.10610      -14.25020
H         -1.22520       -5.11820      -11.89960
H         -0.60600       -4.60960       -9.59060
H         -2.26510       -7.11180       -8.12040
H         -0.82750      -10.51830      -12.34150
H          1.22300      -11.80280      -12.76820
