169

C          0.92660       -9.14000       -7.36630
C          0.75670      -10.08720       -6.40360
C          0.17470       -9.80700       -5.06590
O         -0.23470       -8.75370       -4.63360
C          0.04970      -11.13160       -4.41270
C          0.47190      -12.14080       -5.29750
C          0.41490      -13.47080       -4.90940
C         -0.05230      -13.77370       -3.63960
C         -0.46210      -12.77570       -2.76800
Br        -1.07420      -13.25090       -1.04450
C         -0.42700      -11.42960       -3.14580
Cl        -0.94300      -10.19460       -2.07670
C          0.92500      -11.51900       -6.53920
C          1.49100      -12.17530       -7.59970
C          1.65940      -13.57430       -7.66980
N          1.81600      -14.70530       -7.78650
C          2.00970      -11.54640       -8.75250
N          2.47320      -11.11270       -9.70870
C          0.97800       -7.73740       -7.08980
C          0.43610       -6.79790       -7.95690
F         -0.20060       -7.22160       -9.05860
C          0.44220       -5.43170       -7.68570
F         -0.22840       -4.63530       -8.53410
C          1.03280       -4.90640       -6.53880
C          1.61060       -5.85000       -5.63220
N          2.14000       -5.41050       -4.47970
C          2.72180       -6.25130       -3.66290
C          3.27490       -5.73800       -2.36780
C          2.86280       -4.30770       -2.05280
C          2.88260       -7.61590       -4.04650
N          2.33020       -8.06580       -5.14250
C          1.63090       -7.23300       -5.92630
C          3.67070       -8.60840       -3.24670
C          2.76730       -9.32880       -2.24310
C          1.00790       -3.51510       -6.20680
C          0.97220       -2.40320       -7.04130
C          1.24960       -2.40000       -8.47560
C          2.27260       -3.19030       -8.99750
C          2.56420       -3.13520      -10.34570
C          1.85130       -2.29200      -11.18130
C          0.83260       -1.49410      -10.67740
C          0.08880       -0.53380      -11.55900
C          0.67380        0.87330      -11.41910
C          0.54200       -1.55540       -9.32320
C          0.78970       -1.22330       -6.29850
S          0.65320        0.45970       -6.75740
C          0.50870        0.87970       -5.08480
C          0.29020        2.01160       -4.28370
C         -0.00930        3.35030       -4.62080
C         -0.34980        4.27140       -3.57360
N         -0.67460        5.46720       -4.03880
S         -0.55670        5.44000       -5.65320
N         -0.08850        3.89960       -5.82240
C         -0.24170        3.84870       -2.23010
C         -0.36100        4.55140       -1.02190
S         -0.77280        6.13430       -0.45960
C         -0.39140        5.62430        1.17100
C         -0.46290        6.28180        2.41030
C         -1.07330        7.59990        2.56580
C         -2.01620        7.81960        3.56890
C         -2.63160        9.05090        3.67470
C         -2.31840       10.06690        2.78800
C         -1.38970        9.86110        1.77570
C         -1.01270       10.97160        0.83890
C          0.18130       11.74970        1.39550
C         -0.77560        8.62280        1.67230
C         -0.03510        5.45170        3.44350
S          0.31930        3.82310        2.89630
C          0.03140        4.29380        1.25480
C          0.02580        3.67640        0.00030
N          0.34620        2.45420       -0.52820
C          0.16590        2.52460       -1.89630
C          0.29610        1.56530       -2.93150
N          0.46930        0.18920       -2.92000
C          0.58270       -0.21920       -4.22410
C          0.72480       -1.42670       -4.91560
S          0.92120       -3.09290       -4.51050
C          0.02720       -0.77500       -1.93530
C         -1.49240       -0.74460       -1.78620
C          1.09770        1.50620        0.26150
C          0.21080        0.72780        1.23190
C          0.19340        5.75440        4.81950
C          0.47810        7.02060        5.32740
F          0.68890        8.06250        4.50610
C          0.59460        7.25680        6.69620
F          0.80700        8.51810        7.10100
C          0.45510        6.25770        7.65180
C          0.33400        4.92450        7.16080
N          0.43160        3.88700        8.00390
C          0.33010        2.66440        7.54950
C          0.46970        1.54180        8.53400
C          0.73720        2.03150        9.95070
C          0.11650        2.42600        6.16220
N          0.08330        3.43390        5.32760
C          0.20070        4.68920        5.77400
C          0.00880        1.06050        5.55680
C          1.38040        0.59840        5.05850
C          0.54510        6.52260        9.05500
C         -0.16090        5.82870        9.98780
C         -1.40490        5.06510        9.69060
O         -1.97970        4.95200        8.62990
C         -1.89250        4.59190       11.00160
C         -3.01020        3.82800       11.28230
C         -3.28760        3.51620       12.60320
C         -2.45340        3.98340       13.61340
Cl        -2.82070        3.59380       15.25040
C         -1.33020        4.75980       13.34600
C         -1.04930        5.06190       12.02380
C          0.04390        5.82400       11.42240
C          1.11950        6.34290       12.09120
C          1.29210        6.27780       13.49020
N          1.48800        6.26160       14.62100
C          2.21730        6.98380       11.47700
N          3.15560        7.49090       11.05270
H          1.02460       -9.43030       -8.40450
H          0.71960      -14.26770       -5.56680
H         -0.10160      -14.80240       -3.31710
H          4.36700       -5.80070       -2.41760
H          2.95050       -6.40100       -1.56270
H          3.20070       -3.63530       -2.83520
H          1.78110       -4.23570       -1.98550
H          3.29760       -3.99670       -1.10590
H          4.08390       -9.34490       -3.93780
H          4.48990       -8.11500       -2.72320
H          2.32230       -8.62910       -1.53970
H          3.34030      -10.06460       -1.68450
H          1.96560       -9.83820       -2.77000
H          2.84420       -3.83190       -8.34140
H          3.35630       -3.74970      -10.74790
H          2.08830       -2.25460      -12.23470
H          0.15760       -0.85410      -12.60010
H         -0.96530       -0.51410      -11.27550
H          0.60420        1.21200      -10.38790
H          0.13500        1.57350      -12.05290
H          1.72200        0.87710      -11.71020
H         -0.26220       -0.95490       -8.92460
H         -2.27190        7.02110        4.25120
H         -3.36190        9.21890        4.45260
H         -2.80260       11.02830        2.88040
H         -1.85770       11.65050        0.70900
H         -0.75160       10.55800       -0.13710
H         -0.06590       12.18040        2.36310
H          1.03460       11.08850        1.52630
H          0.46200       12.55270        0.71780
H         -0.03890        8.45600        0.90010
H          0.34300       -1.75570       -2.29920
H          0.50630       -0.60750       -0.97490
H         -1.82600        0.23740       -1.45670
H         -1.81050       -1.48880       -1.06100
H         -1.96720       -0.96490       -2.73930
H          1.65160        0.85030       -0.41150
H          1.83130        2.07380        0.84550
H         -0.61760        0.24780        0.71910
H          0.80060       -0.02980        1.74070
H         -0.19620        1.40430        1.97810
H         -0.45100        0.95100        8.51820
H          1.28200        0.88710        8.20700
H          1.62710        2.65450        9.97350
H          0.87940        1.18570       10.61870
H         -0.10100        2.62290       10.30840
H         -0.67180        1.11890        4.70670
H         -0.38630        0.34870        6.28080
H          1.30140       -0.38770        4.60800
H          2.09450        0.54760        5.87720
H          1.75480        1.29760        4.31540
H          1.21950        7.31450        9.35500
H         -3.64430        3.48320       10.48020
H         -4.14720        2.91680       12.85820
H         -0.71470        5.10900       14.15830
