137

C        -10.89840        2.77830       -2.44780
C        -11.40980        1.79130       -3.21750
C        -12.69160        2.01120       -3.94920
O        -13.25810        3.06380       -4.10520
C        -13.12150        0.66250       -4.37980
C        -12.12690       -0.27920       -4.04870
C        -12.32020       -1.62330       -4.32640
C        -13.49940       -2.00880       -4.94520
C        -14.46970       -1.07810       -5.28730
Br       -16.04540       -1.66670       -6.14490
C        -14.29960        0.28290       -5.00580
Cl       -15.49530        1.43320       -5.41960
C        -10.98890        0.42220       -3.45890
C         -9.71380       -0.06930       -3.39640
C         -9.36360       -1.39310       -3.74130
N         -9.02360       -2.45900       -3.99540
C         -8.56640        0.69180       -3.08470
N         -7.57900        1.24870       -2.90680
C         -9.86240        2.66350       -1.45310
C         -8.90910        3.67650       -1.29650
F         -9.00140        4.77560       -2.06230
C         -7.84290        3.55610       -0.43690
C         -7.71600        2.43450        0.38680
C         -8.71910        1.45870        0.29250
F         -8.64520        0.34800        1.04700
C         -9.74950        1.55100       -0.61230
C         -6.53330        2.25300        1.19510
C         -6.38250        1.72530        2.46230
C         -7.48310        1.42990        3.37680
C         -8.60550        2.25420        3.42790
C         -9.63100        1.96770        4.30760
C         -9.54820        0.86780        5.14380
C         -8.43210        0.04120        5.11400
C         -8.35040       -1.17640        5.98830
C         -8.92220       -2.39370        5.25880
C         -7.40790        0.33110        4.22630
C         -5.01550        1.58280        2.78940
S         -4.18310        0.99160        4.20900
C         -2.67100        1.26220        3.41140
C         -1.29640        1.10440        3.64500
C         -0.60320        0.70840        4.80890
C          0.82940        0.69710        4.79030
N          1.34880        0.34350        5.95560
S          0.13630        0.04870        6.98760
N         -1.09780        0.35950        5.98640
C          1.49620        0.98630        3.58030
C          2.85510        0.88270        3.24540
S          4.36620        0.45950        3.97760
C          5.13500        0.57350        2.41050
C          6.45890        0.35690        1.96860
C          7.58410        0.10700        2.86730
C          8.80320        0.75000        2.66170
C          9.85200        0.53130        3.53290
C          9.69730       -0.32190        4.61180
C          8.48600       -0.96360        4.83690
C          8.32480       -1.92500        5.97850
C          8.67590       -3.34440        5.52820
C          7.43650       -0.74110        3.95920
C          6.55930        0.52520        0.60030
S          5.04500        1.02630       -0.13470
C          4.25190        0.94390        1.39480
C          2.95060        1.13240        1.87600
N          1.71610        1.41190        1.36140
C          0.79400        1.34150        2.39010
C         -0.62000        1.49680        2.45220
N         -1.57260        1.93840        1.55070
C         -2.80410        1.78450        2.12440
C         -4.14480        1.99320        1.77720
S         -5.00440        2.61810        0.41860
C         -1.47240        2.63290        0.28840
C         -1.84960        1.73760       -0.89330
C          1.58830        1.58180       -0.06610
C          2.02310        2.97820       -0.51130
C          7.65670        0.26370       -0.29860
C          8.54600       -0.80860       -0.13000
F          8.40630       -1.63780        0.92050
C          9.53430       -1.09590       -1.04200
C          9.65930       -0.35200       -2.21850
C          8.79240        0.73780       -2.37450
F          8.95460        1.56490       -3.42010
C          7.82400        1.04300       -1.44880
C         10.64490       -0.70670       -3.21330
C         10.40270       -0.74140       -4.54560
C          9.03460       -0.73320       -5.14590
O          7.97350       -0.64950       -4.57280
C          9.24070       -0.97740       -6.58590
C          8.28860       -1.07550       -7.58400
C          8.71040       -1.32610       -8.87900
C         10.06660       -1.48150       -9.14080
Br        10.61910       -1.83690      -10.92260
C         11.03560       -1.39070       -8.14940
C         10.61190       -1.13200       -6.85520
C         11.36400       -0.97530       -5.61220
C         12.72580       -0.98170       -5.49450
C         13.61530       -1.18390       -6.57280
N         14.38600       -1.34740       -7.40660
C         13.43430       -0.77670       -4.29000
N         14.07670       -0.61260       -3.35330
H        -11.33590        3.76240       -2.58450
H        -11.58570       -2.36740       -4.06650
H        -13.67100       -3.05000       -5.17100
H         -7.09900        4.33700       -0.40440
H        -10.47620        0.75460       -0.66060
H         -8.66290        3.12630        2.79220
H        -10.49900        2.60970        4.34540
H        -10.35440        0.65200        5.83010
H         -8.91240       -1.01030        6.90930
H         -7.30910       -1.37060        6.25190
H         -8.37250       -2.57450        4.33800
H         -9.96660       -2.22690        5.00480
H         -8.85370       -3.27950        5.88580
H         -6.54580       -0.31740        4.18220
H          8.91920        1.43030        1.83000
H         10.79540        1.03220        3.37160
H         10.52320       -0.48800        5.28830
H          8.97920       -1.63530        6.80290
H          7.29340       -1.90410        6.33530
H          8.55260       -4.04600        6.35000
H          9.70700       -3.38810        5.18470
H          8.03080       -3.65030        4.70800
H          6.49630       -1.24890        4.11530
H         -0.47300        3.04590        0.18210
H         -2.17430        3.47370        0.32310
H         -1.31510        0.79030       -0.86610
H         -2.91300        1.51670       -0.87490
H         -1.62310        2.24500       -1.82680
H          0.57230        1.35780       -0.37310
H          2.24690        0.84600       -0.54060
H          3.08510        3.11470       -0.32540
H          1.84210        3.09860       -1.57560
H          1.48630        3.75550        0.02880
H         10.17280       -1.94840       -0.86990
H          7.18300        1.89360       -1.62200
H         11.61760       -0.99010       -2.83270
H          7.24290       -0.95380       -7.34830
H          7.99750       -1.40380       -9.68520
H         12.07580       -1.52430       -8.39830
