175

C          3.51690       12.16650        1.32840
C          4.71330       12.11470        0.68280
C          5.18180       10.93620       -0.09210
O          4.60410        9.89120       -0.28600
C          6.45240       11.36660       -0.72150
C          6.70910       12.71320       -0.40400
C          7.83570       13.34210       -0.91230
C          8.69520       12.61490       -1.72150
C          8.44190       11.28590       -2.02750
Br         9.65920       10.34420       -3.12360
C          7.30370       10.63760       -1.53690
Cl         6.98170        8.99940       -1.91980
C          5.64860       13.20090        0.47410
C          5.60370       14.43840        1.05900
C          4.61940       14.86050        1.97900
N          3.87600       15.26830        2.75250
C          6.55490       15.45670        0.83780
N          7.29320       16.32380        0.69460
C          2.76890       11.00150        1.69280
C          1.38210       10.97640        1.64630
F          0.72550       12.05850        1.20230
C          0.64210        9.83630        1.95310
F         -0.68460        9.89040        1.75090
C          1.24500        8.65160        2.36510
C          2.67050        8.65450        2.45010
N          3.30790        7.52990        2.81380
C          4.60920        7.53690        2.95330
C          5.29180        6.25820        3.33330
C          4.37240        5.04990        3.24240
C          5.33660        8.75600        2.81480
N          4.73320        9.84660        2.42010
C          3.41660        9.82290        2.16780
C          6.80240        8.87570        3.10140
C          7.61820        8.62150        1.83160
C          0.49510        7.45630        2.62580
C         -0.77260        7.33330        3.17700
C         -1.49920        8.40790        3.85030
C         -2.87600        8.53770        3.69540
C         -3.54760        9.55730        4.34240
C         -2.85990       10.44790        5.14680
C         -1.48610       10.32710        5.32220
C         -0.74620       11.26380        6.23360
C         -0.79880       10.75890        7.67680
C         -0.81870        9.29990        4.67630
C         -1.22520        6.00370        3.10530
S         -2.72170        5.24080        3.58770
C         -2.11910        3.73720        2.98250
C         -2.57470        2.43010        2.75610
C         -3.85390        1.85200        2.91100
C         -4.09260        0.54270        2.37310
N         -5.35200        0.16000        2.51430
S         -6.16530        1.34010        3.26760
N         -4.94350        2.38840        3.43730
C         -3.01000       -0.17750        1.82270
C         -2.92900       -1.47680        1.29460
S         -3.96170       -2.81420        0.92320
C         -2.56900       -3.71440        0.36300
C         -2.40660       -5.01740       -0.15340
C         -3.49530       -5.98890       -0.24820
C         -3.28630       -7.33750        0.03730
C         -4.33180       -8.23420       -0.04930
C         -5.60470       -7.79610       -0.37390
C         -5.84580       -6.44940       -0.61270
C         -7.23120       -5.95490       -0.92410
C         -7.45120       -5.78850       -2.42830
C         -4.78130       -5.56120       -0.56600
C         -1.07350       -5.26920       -0.43950
S         -0.02260       -3.92550       -0.03780
C         -1.37640       -2.99610        0.48080
C         -1.58470       -1.71480        1.00370
N         -0.82790       -0.61240        1.31080
C         -1.69180        0.35910        1.79540
C         -1.50270        1.72160        2.14160
N         -0.44880        2.59680        1.96440
C         -0.82010        3.81500        2.46890
C         -0.30680        5.11750        2.52980
S          1.16280        5.92450        2.10760
C          0.73270        2.48910        1.14090
C          2.00560        2.44260        1.98580
C          0.57220       -0.82080        1.61350
C          0.74160       -1.62230        2.90410
C         -0.49870       -6.43410       -1.05920
C          0.72980       -6.95410       -0.68030
F          1.44840       -6.35060        0.28480
C          1.22880       -8.14160       -1.21930
F          2.39180       -8.61550       -0.74660
C          0.52130       -8.88640       -2.14840
C         -0.68930       -8.31950       -2.64760
N         -1.32930       -8.91500       -3.66580
C         -2.43360       -8.39080       -4.12940
C         -3.11720       -9.09080       -5.26560
C         -2.37720      -10.33990       -5.72420
C         -2.93520       -7.17100       -3.58790
N         -2.29380       -6.55610       -2.62880
C         -1.18090       -7.10470       -2.11860
C         -4.14820       -6.47240       -4.11790
C         -3.75830       -5.46750       -5.20450
C          1.01160      -10.13660       -2.65590
C          0.19990      -11.18800       -2.93400
C         -1.17290      -11.34550       -2.37410
O         -1.73700      -10.63490       -1.57110
C         -1.65560      -12.64390       -2.88240
C         -2.86990      -13.23600       -2.68430
C         -3.12390      -14.50040       -3.26000
C         -4.36350      -15.15190       -3.09550
C         -4.59440      -16.37760       -3.65490
C         -3.57590      -16.98500       -4.40240
F         -3.82330      -18.19000       -4.94660
C         -2.35630      -16.39760       -4.59270
C         -2.10060      -15.13470       -4.02310
C         -0.84920      -14.50200       -4.20320
C         -0.62920      -13.27030       -3.64460
C          0.53140      -12.38690       -3.68190
C          1.68880      -12.61960       -4.37530
C          1.94750      -13.79300       -5.11500
N          2.21940      -14.72400       -5.72900
C          2.77470      -11.72270       -4.46720
N          3.68890      -11.04310       -4.61010
H          3.07870       13.12130        1.58880
H          8.05530       14.37440       -0.69770
H          9.57880       13.08500       -2.12490
H          6.15910        6.11480        2.68520
H          5.66560        6.36150        4.35730
H          4.00910        4.93930        2.22480
H          3.51750        5.17990        3.89920
H          4.90770        4.14800        3.52890
H          7.09890        8.17430        3.88150
H          6.99700        9.89280        3.44570
H          8.67960        8.72960        2.04030
H          7.33850        9.33880        1.06520
H          7.44110        7.62130        1.44360
H         -3.41000        7.85960        3.04820
H         -4.61430        9.66170        4.21190
H         -3.39050       11.24790        5.64270
H          0.29600       11.34480        5.91710
H         -1.19550       12.25750        6.18340
H         -1.83000       10.68470        8.01440
H         -0.34410        9.77330        7.74990
H         -0.26470       11.43830        8.33710
H          0.24750        9.18320        4.82040
H         -2.30830       -7.68500        0.33350
H         -4.14980       -9.27980        0.14820
H         -6.42160       -8.50210       -0.42270
H         -7.39020       -4.99290       -0.43260
H         -7.96480       -6.66210       -0.53230
H         -7.27470       -6.72970       -2.94460
H         -6.77490       -5.03940       -2.83310
H         -8.47230       -5.47110       -2.62670
H         -4.95730       -4.51820       -0.78390
H          0.63560        1.62180        0.48670
H          0.77330        3.38020        0.50440
H          1.96350        1.65630        2.73630
H          2.86840        2.27510        1.34740
H          2.13610        3.38860        2.50270
H          1.07990        0.12910        1.72070
H          1.01330       -1.37030        0.77640
H          0.27900       -1.09740        3.73770
H          1.79880       -1.75590        3.11560
H          0.28270       -2.60300        2.81350
H         -4.12840       -9.35900       -4.94500
H         -3.21620       -8.39140       -6.09990
H         -2.34410      -11.07260       -4.92290
H         -1.35630      -10.09320       -6.00250
H         -2.88130      -10.78100       -6.58070
H         -4.86420       -7.19220       -4.51370
H         -4.60390       -5.93560       -3.28620
H         -4.64230       -4.95050       -5.56910
H         -3.27740       -5.96390       -6.04470
H         -3.06730       -4.73410       -4.79700
H          2.07840      -10.20180       -2.82630
H         -3.63070      -12.74080       -2.09920
H         -5.13230      -14.66470       -2.51470
H         -5.53590      -16.89040       -3.53730
H         -1.59520      -16.89410       -5.17400
H         -0.09370      -15.01200       -4.77870
