
  xtb     02072212393D
 energy: -246.571025242755 gnorm: 0.000561249842 xtb: 6.4.1 (unknown)
133148  0     0  0            999 V2000
    6.8999   -1.1809    8.6304 C   0  0  0  0  0  0  0  0  0  0  0  0
    8.1436   -1.6889    8.4466 C   0  0  0  0  0  0  0  0  0  0  0  0
    8.5227   -2.6362    7.3623 C   0  0  0  0  0  0  0  0  0  0  0  0
    7.8897   -2.9303    6.3753 O   0  0  0  0  0  0  0  0  0  0  0  0
    9.8256   -3.1993    7.7814 C   0  0  0  0  0  0  0  0  0  0  0  0
   10.2486   -2.5905    8.9785 C   0  0  0  0  0  0  0  0  0  0  0  0
   11.4434   -2.9739    9.5685 C   0  0  0  0  0  0  0  0  0  0  0  0
   12.2018   -3.9574    8.9524 C   0  0  0  0  0  0  0  0  0  0  0  0
   11.7858   -4.5511    7.7696 C   0  0  0  0  0  0  0  0  0  0  0  0
   12.8681   -5.8813    6.9780 Br  0  0  0  0  0  0  0  0  0  0  0  0
   10.5816   -4.1815    7.1594 C   0  0  0  0  0  0  0  0  0  0  0  0
   10.0640   -4.9153    5.7033 Cl  0  0  0  0  0  0  0  0  0  0  0  0
    9.2541   -1.6029    9.3811 C   0  0  0  0  0  0  0  0  0  0  0  0
    9.3841   -0.6993   10.3996 C   0  0  0  0  0  0  0  0  0  0  0  0
   10.4990   -0.6343   11.2627 C   0  0  0  0  0  0  0  0  0  0  0  0
   11.3784   -0.5400   11.9937 N   0  0  0  0  0  0  0  0  0  0  0  0
    8.4492    0.3192   10.6905 C   0  0  0  0  0  0  0  0  0  0  0  0
    7.7546    1.1895   10.9671 N   0  0  0  0  0  0  0  0  0  0  0  0
    5.8094   -1.2682    7.6919 C   0  0  0  0  0  0  0  0  0  0  0  0
    5.9432   -1.0395    6.3098 C   0  0  0  0  0  0  0  0  0  0  0  0
    4.8329   -1.2217    5.5259 C   0  0  0  0  0  0  0  0  0  0  0  0
    3.6302   -1.5918    6.1591 C   0  0  0  0  0  0  0  0  0  0  0  0
    3.5758   -1.7042    7.4946 N   0  0  0  0  0  0  0  0  0  0  0  0
    4.6133   -1.5586    8.2211 N   0  0  0  0  0  0  0  0  0  0  0  0
    2.4191   -1.8234    5.4301 C   0  0  0  0  0  0  0  0  0  0  0  0
    1.2538   -2.4381    5.8590 C   0  0  0  0  0  0  0  0  0  0  0  0
    1.0721   -3.1144    7.1437 C   0  0  0  0  0  0  0  0  0  0  0  0
   -0.0775   -2.8866    7.8926 C   0  0  0  0  0  0  0  0  0  0  0  0
   -0.2472   -3.5311    9.1038 C   0  0  0  0  0  0  0  0  0  0  0  0
    0.7227   -4.3964    9.5762 C   0  0  0  0  0  0  0  0  0  0  0  0
    1.8696   -4.6462    8.8319 C   0  0  0  0  0  0  0  0  0  0  0  0
    2.9621   -5.5270    9.3640 C   0  0  0  0  0  0  0  0  0  0  0  0
    3.9892   -4.6741   10.1124 C   0  0  0  0  0  0  0  0  0  0  0  0
    2.0264   -4.0108    7.6116 C   0  0  0  0  0  0  0  0  0  0  0  0
    0.2565   -2.3810    4.8685 C   0  0  0  0  0  0  0  0  0  0  0  0
   -1.3849   -2.9784    4.8161 S   0  0  0  0  0  0  0  0  0  0  0  0
   -1.5324   -2.3505    3.2113 C   0  0  0  0  0  0  0  0  0  0  0  0
   -2.4823   -2.2825    2.1819 C   0  0  0  0  0  0  0  0  0  0  0  0
   -3.7721   -2.8478    2.0839 C   0  0  0  0  0  0  0  0  0  0  0  0
   -4.4951   -2.7093    0.8548 C   0  0  0  0  0  0  0  0  0  0  0  0
   -5.6658   -3.3268    0.8829 N   0  0  0  0  0  0  0  0  0  0  0  0
   -5.8435   -4.0193    2.3360 S   0  0  0  0  0  0  0  0  0  0  0  0
   -4.4334   -3.5592    2.9835 N   0  0  0  0  0  0  0  0  0  0  0  0
   -3.9365   -1.9246   -0.1773 C   0  0  0  0  0  0  0  0  0  0  0  0
   -4.4707   -1.5245   -1.4104 C   0  0  0  0  0  0  0  0  0  0  0  0
   -5.8995   -1.7604   -2.3566 S   0  0  0  0  0  0  0  0  0  0  0  0
   -5.2667   -0.6367   -3.5380 C   0  0  0  0  0  0  0  0  0  0  0  0
   -5.7731   -0.1641   -4.7623 C   0  0  0  0  0  0  0  0  0  0  0  0
   -7.0269   -0.6481   -5.3435 C   0  0  0  0  0  0  0  0  0  0  0  0
   -8.1831   -0.7058   -4.5716 C   0  0  0  0  0  0  0  0  0  0  0  0
   -9.3545   -1.1896   -5.1242 C   0  0  0  0  0  0  0  0  0  0  0  0
   -9.3802   -1.6268   -6.4366 C   0  0  0  0  0  0  0  0  0  0  0  0
   -8.2307   -1.5897   -7.2179 C   0  0  0  0  0  0  0  0  0  0  0  0
   -8.2418   -2.1144   -8.6249 C   0  0  0  0  0  0  0  0  0  0  0  0
   -7.9427   -3.6146   -8.6362 C   0  0  0  0  0  0  0  0  0  0  0  0
   -7.0597   -1.1020   -6.6596 C   0  0  0  0  0  0  0  0  0  0  0  0
   -4.8945    0.7357   -5.3410 C   0  0  0  0  0  0  0  0  0  0  0  0
   -3.4265    0.9660   -4.4110 S   0  0  0  0  0  0  0  0  0  0  0  0
   -4.0077   -0.1245   -3.2046 C   0  0  0  0  0  0  0  0  0  0  0  0
   -3.5528   -0.6409   -1.9840 C   0  0  0  0  0  0  0  0  0  0  0  0
   -2.4596   -0.5069   -1.1716 N   0  0  0  0  0  0  0  0  0  0  0  0
   -2.6654   -1.2924   -0.0490 C   0  0  0  0  0  0  0  0  0  0  0  0
   -1.8844   -1.5623    1.1079 C   0  0  0  0  0  0  0  0  0  0  0  0
   -0.5878   -1.2376    1.4759 N   0  0  0  0  0  0  0  0  0  0  0  0
   -0.3786   -1.7169    2.7412 C   0  0  0  0  0  0  0  0  0  0  0  0
    0.6513   -1.7416    3.6888 C   0  0  0  0  0  0  0  0  0  0  0  0
    2.2874   -1.2038    3.7890 S   0  0  0  0  0  0  0  0  0  0  0  0
    0.5462   -0.8516    0.6662 C   0  0  0  0  0  0  0  0  0  0  0  0
    0.8263   -1.8750   -0.4316 C   0  0  0  0  0  0  0  0  0  0  0  0
   -1.5464    0.5926   -1.3912 C   0  0  0  0  0  0  0  0  0  0  0  0
   -1.7230    1.6852   -0.3397 C   0  0  0  0  0  0  0  0  0  0  0  0
   -4.9929    1.5758   -6.4937 C   0  0  0  0  0  0  0  0  0  0  0  0
   -6.1751    1.8707   -7.2012 C   0  0  0  0  0  0  0  0  0  0  0  0
   -6.0896    2.7947   -8.2101 C   0  0  0  0  0  0  0  0  0  0  0  0
   -4.8370    3.3853   -8.4644 C   0  0  0  0  0  0  0  0  0  0  0  0
   -3.7504    3.0063   -7.7827 N   0  0  0  0  0  0  0  0  0  0  0  0
   -3.8303    2.1474   -6.8403 N   0  0  0  0  0  0  0  0  0  0  0  0
   -4.6579    4.3913   -9.4796 C   0  0  0  0  0  0  0  0  0  0  0  0
   -3.7158    5.3591   -9.4855 C   0  0  0  0  0  0  0  0  0  0  0  0
   -3.3935    6.0906  -10.7466 C   0  0  0  0  0  0  0  0  0  0  0  0
   -4.0652    6.1324  -11.7499 O   0  0  0  0  0  0  0  0  0  0  0  0
   -2.0644    6.6845  -10.5085 C   0  0  0  0  0  0  0  0  0  0  0  0
   -1.2388    7.3561  -11.3924 C   0  0  0  0  0  0  0  0  0  0  0  0
   -0.0066    7.8004  -10.9429 C   0  0  0  0  0  0  0  0  0  0  0  0
    0.3809    7.5613   -9.6275 C   0  0  0  0  0  0  0  0  0  0  0  0
    1.9249    8.1071   -9.0977 Cl  0  0  0  0  0  0  0  0  0  0  0  0
   -0.4408    6.8942   -8.7248 C   0  0  0  0  0  0  0  0  0  0  0  0
   -1.6760    6.4592   -9.1736 C   0  0  0  0  0  0  0  0  0  0  0  0
   -2.7619    5.7792   -8.4709 C   0  0  0  0  0  0  0  0  0  0  0  0
   -2.9506    5.7731   -7.1193 C   0  0  0  0  0  0  0  0  0  0  0  0
   -4.1406    5.3417   -6.4927 C   0  0  0  0  0  0  0  0  0  0  0  0
   -5.1066    5.0717   -5.9353 N   0  0  0  0  0  0  0  0  0  0  0  0
   -2.0172    6.2758   -6.1884 C   0  0  0  0  0  0  0  0  0  0  0  0
   -1.2916    6.6600   -5.3870 N   0  0  0  0  0  0  0  0  0  0  0  0
    6.6400   -0.7346    9.5819 H   0  0  0  0  0  0  0  0  0  0  0  0
   11.7880   -2.5338   10.4893 H   0  0  0  0  0  0  0  0  0  0  0  0
   13.1338   -4.2727    9.3957 H   0  0  0  0  0  0  0  0  0  0  0  0
    6.8781   -0.6987    5.8960 H   0  0  0  0  0  0  0  0  0  0  0  0
    4.8632   -1.0740    4.4565 H   0  0  0  0  0  0  0  0  0  0  0  0
   -0.8237   -2.1923    7.5366 H   0  0  0  0  0  0  0  0  0  0  0  0
   -1.1390   -3.3502    9.6855 H   0  0  0  0  0  0  0  0  0  0  0  0
    0.5897   -4.8860   10.5302 H   0  0  0  0  0  0  0  0  0  0  0  0
    3.4559   -6.0454    8.5396 H   0  0  0  0  0  0  0  0  0  0  0  0
    2.5477   -6.2764   10.0412 H   0  0  0  0  0  0  0  0  0  0  0  0
    3.5256   -4.1944   10.9707 H   0  0  0  0  0  0  0  0  0  0  0  0
    4.3772   -3.8931    9.4624 H   0  0  0  0  0  0  0  0  0  0  0  0
    4.8160   -5.2896   10.4607 H   0  0  0  0  0  0  0  0  0  0  0  0
    2.9008   -4.2193    7.0121 H   0  0  0  0  0  0  0  0  0  0  0  0
   -8.1641   -0.3565   -3.5507 H   0  0  0  0  0  0  0  0  0  0  0  0
  -10.2530   -1.2255   -4.5265 H   0  0  0  0  0  0  0  0  0  0  0  0
  -10.2996   -2.0027   -6.8615 H   0  0  0  0  0  0  0  0  0  0  0  0
   -7.4901   -1.5928   -9.2212 H   0  0  0  0  0  0  0  0  0  0  0  0
   -9.2199   -1.9390   -9.0772 H   0  0  0  0  0  0  0  0  0  0  0  0
   -7.9495   -3.9958   -9.6545 H   0  0  0  0  0  0  0  0  0  0  0  0
   -6.9661   -3.8087   -8.1985 H   0  0  0  0  0  0  0  0  0  0  0  0
   -8.6894   -4.1537   -8.0577 H   0  0  0  0  0  0  0  0  0  0  0  0
   -6.1530   -1.0795   -7.2490 H   0  0  0  0  0  0  0  0  0  0  0  0
    0.4054    0.1490    0.2572 H   0  0  0  0  0  0  0  0  0  0  0  0
    1.4052   -0.8036    1.3401 H   0  0  0  0  0  0  0  0  0  0  0  0
    1.0664   -2.8387    0.0116 H   0  0  0  0  0  0  0  0  0  0  0  0
    1.6710   -1.5508   -1.0335 H   0  0  0  0  0  0  0  0  0  0  0  0
   -0.0381   -2.0059   -1.0783 H   0  0  0  0  0  0  0  0  0  0  0  0
   -1.7853    1.0011   -2.3760 H   0  0  0  0  0  0  0  0  0  0  0  0
   -0.5174    0.2353   -1.4343 H   0  0  0  0  0  0  0  0  0  0  0  0
   -1.5632    1.2986    0.6643 H   0  0  0  0  0  0  0  0  0  0  0  0
   -2.7320    2.0875   -0.3909 H   0  0  0  0  0  0  0  0  0  0  0  0
   -1.0205    2.4933   -0.5240 H   0  0  0  0  0  0  0  0  0  0  0  0
   -7.1111    1.4093   -6.9316 H   0  0  0  0  0  0  0  0  0  0  0  0
   -6.9594    3.1017   -8.7705 H   0  0  0  0  0  0  0  0  0  0  0  0
   -5.2966    4.3279  -10.3534 H   0  0  0  0  0  0  0  0  0  0  0  0
   -1.5577    7.5255  -12.4091 H   0  0  0  0  0  0  0  0  0  0  0  0
    0.6611    8.3289  -11.6048 H   0  0  0  0  0  0  0  0  0  0  0  0
   -0.1066    6.7198   -7.7151 H   0  0  0  0  0  0  0  0  0  0  0  0
  1  2  2  0  0  0  0
  2  3  1  0  0  0  0
  3  4  2  0  0  0  0
  3  5  1  0  0  0  0
  5  6  2  0  0  0  0
  6  7  1  0  0  0  0
  7  8  2  0  0  0  0
  8  9  1  0  0  0  0
  9 10  1  0  0  0  0
  9 11  2  0  0  0  0
 11 12  1  0  0  0  0
  6 13  1  0  0  0  0
 13 14  2  0  0  0  0
 14 15  1  0  0  0  0
 15 16  3  0  0  0  0
 14 17  1  0  0  0  0
 17 18  3  0  0  0  0
  1 19  1  0  0  0  0
 19 20  2  0  0  0  0
 20 21  1  0  0  0  0
 21 22  2  0  0  0  0
 22 23  1  0  0  0  0
 23 24  2  0  0  0  0
 22 25  1  0  0  0  0
 25 26  2  0  0  0  0
 26 27  1  0  0  0  0
 27 28  2  0  0  0  0
 28 29  1  0  0  0  0
 29 30  2  0  0  0  0
 30 31  1  0  0  0  0
 31 32  1  0  0  0  0
 32 33  1  0  0  0  0
 31 34  2  0  0  0  0
 26 35  1  0  0  0  0
 35 36  1  0  0  0  0
 36 37  1  0  0  0  0
 37 38  1  0  0  0  0
 38 39  1  0  0  0  0
 39 40  1  0  0  0  0
 40 41  2  0  0  0  0
 41 42  1  0  0  0  0
 42 43  1  0  0  0  0
 40 44  1  0  0  0  0
 44 45  1  0  0  0  0
 45 46  1  0  0  0  0
 46 47  1  0  0  0  0
 47 48  1  0  0  0  0
 48 49  1  0  0  0  0
 49 50  2  0  0  0  0
 50 51  1  0  0  0  0
 51 52  2  0  0  0  0
 52 53  1  0  0  0  0
 53 54  1  0  0  0  0
 54 55  1  0  0  0  0
 53 56  2  0  0  0  0
 48 57  2  0  0  0  0
 57 58  1  0  0  0  0
 58 59  1  0  0  0  0
 59 60  1  0  0  0  0
 60 61  1  0  0  0  0
 61 62  1  0  0  0  0
 62 63  1  0  0  0  0
 63 64  1  0  0  0  0
 64 65  1  0  0  0  0
 65 66  1  0  0  0  0
 66 67  1  0  0  0  0
 64 68  1  0  0  0  0
 68 69  1  0  0  0  0
 61 70  1  0  0  0  0
 70 71  1  0  0  0  0
 57 72  1  0  0  0  0
 72 73  2  0  0  0  0
 73 74  1  0  0  0  0
 74 75  2  0  0  0  0
 75 76  1  0  0  0  0
 76 77  2  0  0  0  0
 75 78  1  0  0  0  0
 78 79  2  0  0  0  0
 79 80  1  0  0  0  0
 80 81  2  0  0  0  0
 80 82  1  0  0  0  0
 82 83  2  0  0  0  0
 83 84  1  0  0  0  0
 84 85  2  0  0  0  0
 85 86  1  0  0  0  0
 85 87  1  0  0  0  0
 87 88  2  0  0  0  0
 88 89  1  0  0  0  0
 89 90  2  0  0  0  0
 90 91  1  0  0  0  0
 91 92  3  0  0  0  0
 90 93  1  0  0  0  0
 93 94  3  0  0  0  0
 13  2  1  0  0  0  0
 24 19  1  0  0  0  0
 67 25  1  0  0  0  0
 77 72  1  0  0  0  0
 89 79  1  0  0  0  0
 11  5  1  0  0  0  0
 34 27  1  0  0  0  0
 66 35  2  0  0  0  0
 88 82  1  0  0  0  0
 65 37  2  0  0  0  0
 63 38  2  0  0  0  0
 43 39  2  0  0  0  0
 62 44  2  0  0  0  0
 60 45  2  0  0  0  0
 59 47  2  0  0  0  0
 56 49  1  0  0  0  0
  1 95  1  0  0  0  0
  7 96  1  0  0  0  0
  8 97  1  0  0  0  0
 20 98  1  0  0  0  0
 21 99  1  0  0  0  0
 28100  1  0  0  0  0
 29101  1  0  0  0  0
 30102  1  0  0  0  0
 32103  1  0  0  0  0
 32104  1  0  0  0  0
 33105  1  0  0  0  0
 33106  1  0  0  0  0
 33107  1  0  0  0  0
 34108  1  0  0  0  0
 50109  1  0  0  0  0
 51110  1  0  0  0  0
 52111  1  0  0  0  0
 54112  1  0  0  0  0
 54113  1  0  0  0  0
 55114  1  0  0  0  0
 55115  1  0  0  0  0
 55116  1  0  0  0  0
 56117  1  0  0  0  0
 68118  1  0  0  0  0
 68119  1  0  0  0  0
 69120  1  0  0  0  0
 69121  1  0  0  0  0
 69122  1  0  0  0  0
 70123  1  0  0  0  0
 70124  1  0  0  0  0
 71125  1  0  0  0  0
 71126  1  0  0  0  0
 71127  1  0  0  0  0
 73128  1  0  0  0  0
 74129  1  0  0  0  0
 78130  1  0  0  0  0
 83131  1  0  0  0  0
 84132  1  0  0  0  0
 87133  1  0  0  0  0
M  END
