127

C          3.45990        5.29000        7.49580
C          3.79460        6.28170        6.60780
C          3.47290        6.18360        5.16960
O          2.89860        5.27930        4.60380
C          4.00460        7.42980        4.56720
C          4.59920        8.21880        5.56990
C          5.17060        9.43820        5.24330
C          5.14020        9.85410        3.92020
C          4.55290        9.07420        2.93600
Br         4.54360        9.69580        1.15100
C          3.97110        7.84010        3.24510
Cl         3.24460        6.87270        2.03410
C          4.47810        7.52620        6.85420
C          4.93560        7.99830        8.05890
C          5.59780        9.23050        8.23250
N          6.14350       10.21940        8.43870
C          4.80150        7.31880        9.28710
N          4.72340        6.81640       10.31670
C          2.80530        4.15440        7.09460
C          2.21930        3.12230        6.80010
C          1.58330        2.03750        6.25850
C          1.12920        0.87320        6.88250
C          1.19360        0.63730        8.31860
C          1.06270        1.68840        9.22680
C          1.10750        1.43610       10.58370
C          1.28090        0.14440       11.05170
C          1.41750       -0.91520       10.16330
C          1.56010       -2.32630       10.65500
C          0.19670       -3.02060       10.67530
C          1.37050       -0.65730        8.80260
C          0.59810       -0.01770        5.93670
S         -0.13630       -1.60230        6.07090
C         -0.39190       -1.60940        4.36120
C         -0.95550       -2.42920        3.37260
C         -1.69420       -3.63080        3.45970
C         -2.31570       -4.15580        2.27600
N         -3.03710       -5.23780        2.52250
S         -2.93700       -5.57430        4.10250
N         -1.97240       -4.34900        4.53620
C         -2.05650       -3.53200        1.03540
C         -2.42520       -3.86110       -0.27970
S         -3.40360       -5.01120       -1.12330
C         -2.92580       -4.28060       -2.64240
C         -3.21310       -4.58060       -3.98460
C         -4.06130       -5.67470       -4.43940
C         -3.78950       -6.34750       -5.63100
C         -4.59500       -7.39590       -6.02970
C         -5.67220       -7.78770       -5.25270
C         -5.96100       -7.12840       -4.06440
C         -7.09520       -7.57170       -3.18640
C         -6.57800       -8.49130       -2.07820
C         -5.15000       -6.07660       -3.66860
C         -2.55710       -3.69030       -4.83600
S         -1.57660       -2.50130       -3.97990
C         -2.04640       -3.20140       -2.47570
C         -1.76630       -2.96460       -1.12650
N         -1.01550       -2.08410       -0.39050
C         -1.20440       -2.39630        0.94450
C         -0.77490       -1.75460        2.13180
N         -0.17090       -0.53160        2.37300
C          0.06520       -0.45260        3.72120
C          0.62480        0.46280        4.61820
S          1.33430        2.03150        4.51200
C         -0.18870        0.68400        1.58140
C         -1.55700        0.95780        0.96820
C          0.13710       -1.45640       -0.99940
C          1.15900       -2.49880       -1.45210
C         -2.61860       -3.59810       -6.20300
C         -2.56650       -3.36170       -7.40040
C         -2.56080       -3.17840       -8.76140
C         -1.85340       -2.16560       -9.35260
C         -1.07050       -1.18570       -8.56480
O         -0.92810       -1.15850       -7.35990
C         -0.50560       -0.24770       -9.55420
C          0.28330        0.84530       -9.34310
C          0.71040        1.61260      -10.44970
C          1.52610        2.75110      -10.28840
C          1.93120        3.48600      -11.36770
C          1.52240        3.09090      -12.64870
F          1.93080        3.82720      -13.69860
C          0.73240        1.99570      -12.86100
C          0.30600        1.22690      -11.76050
C         -0.51150        0.08790      -11.94880
C         -0.91200       -0.64130      -10.86120
C         -1.74070       -1.84130      -10.75530
C         -2.28850       -2.52830      -11.80940
C         -3.06720       -3.69680      -11.68790
N         -3.70450       -4.65190      -11.65250
C         -2.13530       -2.16130      -13.16180
N         -2.05060       -1.91570      -14.28030
H          3.70720        5.37320        8.54580
H          5.63420       10.06620        5.98550
H          5.58000       10.80050        3.64560
H          0.90490        2.69330        8.86650
H          1.00080        2.25210       11.28270
H          1.31130       -0.04300       12.11520
H          1.98330       -2.32840       11.66110
H          2.23410       -2.87990        9.99820
H          0.29730       -4.04320       11.03090
H         -0.23330       -3.04000        9.67650
H         -0.48800       -2.49000       11.33320
H          1.49610       -1.47440        8.10790
H         -2.93760       -6.06060       -6.22780
H         -4.37810       -7.91580       -6.95090
H         -6.29410       -8.61160       -5.57130
H         -7.57490       -6.70100       -2.73480
H         -7.84010       -8.10340       -3.78110
H         -6.10910       -9.37380       -2.50780
H         -7.39620       -8.81020       -1.43690
H         -5.84030       -7.97310       -1.46980
H         -5.38230       -5.54800       -2.75600
H          0.58740        0.67020        0.81060
H          0.06590        1.49720        2.26570
H         -1.83360        0.19280        0.24880
H         -1.53900        1.91890        0.46190
H         -2.31540        0.98990        1.74710
H         -0.20250       -0.86880       -1.85770
H          0.60950       -0.80110       -0.27570
H          0.73990       -3.15120       -2.21310
H          2.02790       -1.99810       -1.86980
H          1.47690       -3.10670       -0.60740
H         -3.14810       -3.87070       -9.35030
H          0.57780        1.12230       -8.34180
H          1.82790        3.03560       -9.29160
H          2.55490        4.35940      -11.26170
H          0.43710        1.72060      -13.86160
H         -0.80040       -0.17650      -12.95330
