174

C         -0.26210       -2.27380      -13.11170
C          1.04170       -2.19130      -13.51660
C          1.34710       -2.05360      -14.95940
O          0.59210       -2.23710      -15.88560
C          2.75580       -1.58810      -15.00840
C          3.28830       -1.56970      -13.70500
C          4.58640       -1.14160      -13.48560
C          5.34220       -0.73590      -14.57590
C          4.82040       -0.76570      -15.85980
Br         5.90610       -0.21080      -17.30420
C          3.51030       -1.19500      -16.10170
Cl         2.86590       -1.23370      -17.68740
C          2.27820       -2.08810      -12.78370
C          2.54500       -2.63070      -11.55130
C          3.77760       -2.51450      -10.88290
N          4.74290       -2.41810      -10.26760
C          1.63170       -3.44620      -10.85100
N          0.95280       -4.17190      -10.27580
C         -0.83050       -1.98900      -11.85720
C         -2.11040       -2.32060      -11.44430
C         -2.42420       -1.90820      -10.14670
C         -3.66940       -2.27970       -9.46610
C         -4.88190       -2.16870      -10.12130
C         -6.06550       -2.52950       -9.47160
C         -6.01610       -2.98740       -8.16510
C         -4.78880       -3.10350       -7.50650
O         -4.85910       -3.54650       -6.22400
C         -3.66980       -3.60670       -5.45990
C         -4.04780       -4.03250       -4.04990
C         -3.61500       -2.76770       -8.16000
O         -7.20050       -2.38280      -10.19970
C         -8.43990       -2.74050       -9.61920
C         -9.52470       -2.48140      -10.65280
C         -1.38990       -1.19040       -9.55530
S         -0.02740       -1.06200      -10.61340
C         -1.32370       -0.59410       -8.24460
C         -2.47370       -0.04590       -7.63840
C         -2.43710        0.45870       -6.36350
C         -1.23500        0.43130       -5.65080
C         -0.81660        0.79240       -4.35440
C          0.54660        0.49450       -4.24910
N          1.00770       -0.04230       -5.41410
C         -0.05560       -0.08910       -6.28230
C         -0.10300       -0.58620       -7.56940
C          2.37180       -0.40640       -5.69930
C          3.07640        0.66660       -6.52710
C          0.95760        0.83700       -2.94950
C          2.20240        0.85180       -2.28950
C          2.28470        1.30900       -0.94500
N          3.56950        1.26380       -0.58210
N          4.18940        0.80450       -1.64440
C          5.61430        0.64990       -1.68190
C          6.26740        1.82940       -2.39670
N          3.43800        0.53860       -2.68700
C          1.10420        1.60470       -0.23170
C         -0.16300        1.53960       -0.88380
C         -0.21020        1.29720       -2.27820
N         -1.28380        1.30170       -3.16060
C         -2.36570        2.26210       -3.14920
C         -2.13110        3.38840       -4.15640
N         -1.16680        1.66460        0.06120
C         -2.56620        1.31910       -0.03360
C         -3.47750        2.51660        0.23780
C         -0.55980        1.80260        1.28740
C          0.83100        1.80070        1.12990
N          1.44880        1.89880        2.34250
C          2.86910        1.83200        2.56630
C          3.31970        0.40970        2.89490
C          0.45970        1.90580        3.29720
C         -0.83200        1.84850        2.67220
C         -1.97050        1.80900        3.48110
C         -1.82460        1.82030        4.84420
C         -0.55860        1.87680        5.46210
C          0.59160        1.92920        4.67140
C         -0.46050        1.83010        6.89690
C          0.65720        1.99240        7.69140
C          0.42830        1.82620        9.05990
C          1.45700        2.03460       10.07820
C          1.19540        2.83210       11.18690
C          2.15230        2.94420       12.18920
C          3.34220        2.22860       12.08090
C          3.60530        1.43240       10.97360
O          4.80500        0.79570       10.98040
C          5.04690       -0.23980       10.04560
C          4.24010       -1.49850       10.34900
C          2.66290        1.35670        9.95050
O          2.04490        3.70720       13.30820
C          0.91060        4.52570       13.51190
C         -0.28740        3.75720       14.06030
C         -0.89930        1.49640        9.34270
S         -1.85120        1.49280        7.87470
C         -1.56140        1.20720       10.55040
C         -1.01440        0.70270       11.70330
C          0.29050        0.01820       11.81360
O          0.98670       -0.40250       10.90990
C          0.50380       -0.20450       13.25500
C          1.62160       -0.69230       13.90240
C          1.58900       -0.80670       15.28290
C          0.44030       -0.44760       15.97800
Cl         0.41620       -0.60350       17.69500
C         -0.69440        0.03920       15.33690
C         -0.65430        0.16460       13.95860
C         -1.64250        0.67910       13.00690
C         -2.90550        1.10490       13.33530
C         -3.84800        1.64940       12.43940
N         -4.66650        2.11630       11.78210
C         -3.44470        1.05900       14.63740
N         -3.95310        1.05130       15.66700
H         -0.97120       -2.51190      -13.89920
H          5.01130       -1.10790      -12.49590
H          6.35470       -0.39230      -14.43040
H         -2.77530       -2.90810      -12.05230
H         -4.94100       -1.78870      -11.12830
H         -6.90060       -3.26630       -7.61730
H         -3.18310       -2.62080       -5.44420
H         -2.97370       -4.33310       -5.90070
H         -4.74190       -3.31630       -3.61860
H         -4.52740       -5.00710       -4.07320
H         -3.15770       -4.08670       -3.42990
H         -2.65520       -2.87810       -7.68440
H         -8.42930       -3.80170       -9.33530
H         -8.62150       -2.13790       -8.71860
H        -10.49590       -2.74450      -10.24390
H         -9.33850       -3.07590      -11.54290
H         -9.52680       -1.43150      -10.93270
H         -3.39320       -0.01800       -8.20090
H         -3.33090        0.86600       -5.91470
H          0.77250       -1.00820       -8.04010
H          2.38140       -1.36090       -6.23450
H          2.88530       -0.52340       -4.74230
H          2.55060        0.83740       -7.46380
H          3.11170        1.60070       -5.97160
H          4.09200        0.35250       -6.74970
H          5.95750        0.58480       -0.64790
H          5.83900       -0.28040       -2.20910
H          5.88970        1.90190       -3.41360
H          6.04810        2.75690       -1.87300
H          7.34430        1.69200       -2.43050
H         -2.42240        2.70140       -2.15760
H         -3.30670        1.74920       -3.37620
H         -2.09020        3.00390       -5.17160
H         -2.93930        4.11210       -4.08970
H         -1.19180        3.89290       -3.93930
H         -2.76820        0.55050        0.72250
H         -2.76490        0.88080       -1.01190
H         -3.34970        3.30280       -0.50220
H         -3.25380        2.94310        1.21150
H         -4.51600        2.19680        0.22440
H          3.13130        2.51340        3.38120
H          3.36160        2.16070        1.64860
H          2.79880        0.03230        3.77200
H          4.38900        0.39400        3.08580
H          3.10680       -0.24550        2.05420
H         -2.95720        1.75050        3.04850
H         -2.70070        1.77910        5.47440
H          1.56770        1.95750        5.12730
H          1.62410        2.26060        7.30510
H          0.25330        3.35460       11.23940
H          4.07010        2.29670       12.87200
H          4.85740        0.10880        9.02280
H          6.11730       -0.44260       10.14290
H          4.52750       -1.89500       11.31980
H          3.17490       -1.27850       10.36670
H          4.43550       -2.25240        9.59100
H          2.81330        0.73500        9.08450
H          1.24090        5.26360       14.24860
H          0.64410        5.05400       12.58830
H         -1.08650        4.45030       14.30890
H          0.00080        3.21210       14.95600
H         -0.65630        3.04410       13.32830
H         -2.62730        1.40240       10.53800
H          2.50060       -0.95990       13.33750
H          2.44700       -1.17090       15.82550
H         -1.56280        0.30770       15.91530
