
  xtb     02062204383D
 energy: -391.081981272451 gnorm: 0.000464926239 xtb: 6.4.1 (unknown)
194215  0     0  0            999 V2000
  -10.2056    0.7499    3.1899 C   0  0  0  0  0  0  0  0  0  0  0  0
  -11.3977    0.4981    2.5981 C   0  0  0  0  0  0  0  0  0  0  0  0
  -11.6485    0.5714    1.1316 C   0  0  0  0  0  0  0  0  0  0  0  0
  -10.9007    0.9957    0.2834 O   0  0  0  0  0  0  0  0  0  0  0  0
  -13.0514    0.1381    0.9569 C   0  0  0  0  0  0  0  0  0  0  0  0
  -13.6416   -0.0775    2.2173 C   0  0  0  0  0  0  0  0  0  0  0  0
  -14.9596   -0.5009    2.3008 C   0  0  0  0  0  0  0  0  0  0  0  0
  -15.6685   -0.7015    1.1263 C   0  0  0  0  0  0  0  0  0  0  0  0
  -15.0855   -0.4808   -0.1130 C   0  0  0  0  0  0  0  0  0  0  0  0
  -16.1063   -0.7713   -1.6742 Br  0  0  0  0  0  0  0  0  0  0  0  0
  -13.7583   -0.0492   -0.2208 C   0  0  0  0  0  0  0  0  0  0  0  0
  -13.0327    0.2226   -1.7448 Cl  0  0  0  0  0  0  0  0  0  0  0  0
  -12.6606    0.2146    3.2589 C   0  0  0  0  0  0  0  0  0  0  0  0
  -12.9079    0.2360    4.6044 C   0  0  0  0  0  0  0  0  0  0  0  0
  -11.9780    0.5829    5.6093 C   0  0  0  0  0  0  0  0  0  0  0  0
  -11.3047    0.8633    6.4961 N   0  0  0  0  0  0  0  0  0  0  0  0
  -14.1642   -0.0502    5.1829 C   0  0  0  0  0  0  0  0  0  0  0  0
  -15.1562   -0.2713    5.7155 N   0  0  0  0  0  0  0  0  0  0  0  0
   -8.9511    0.9245    2.5108 C   0  0  0  0  0  0  0  0  0  0  0  0
   -8.5058    0.1719    1.4335 C   0  0  0  0  0  0  0  0  0  0  0  0
   -9.2067   -0.8902    1.0198 F   0  0  0  0  0  0  0  0  0  0  0  0
   -7.3001    0.4514    0.7827 C   0  0  0  0  0  0  0  0  0  0  0  0
   -6.9605   -0.3122   -0.2697 F   0  0  0  0  0  0  0  0  0  0  0  0
   -6.4888    1.5167    1.1481 C   0  0  0  0  0  0  0  0  0  0  0  0
   -6.8525    2.2191    2.3354 C   0  0  0  0  0  0  0  0  0  0  0  0
   -6.0563    3.1885    2.7967 N   0  0  0  0  0  0  0  0  0  0  0  0
   -6.4034    3.8626    3.8699 C   0  0  0  0  0  0  0  0  0  0  0  0
   -5.5724    5.0018    4.1718 C   0  0  0  0  0  0  0  0  0  0  0  0
   -3.8890    4.9585    3.7787 S   0  0  0  0  0  0  0  0  0  0  0  0
   -3.6635    6.6146    4.2103 C   0  0  0  0  0  0  0  0  0  0  0  0
   -2.3419    7.2913    4.0941 C   0  0  0  0  0  0  0  0  0  0  0  0
   -1.8213    7.2600    2.6566 C   0  0  0  0  0  0  0  0  0  0  0  0
   -4.8476    7.1597    4.6188 C   0  0  0  0  0  0  0  0  0  0  0  0
   -5.9290    6.2535    4.6006 C   0  0  0  0  0  0  0  0  0  0  0  0
   -7.1820    6.6016    4.9213 F   0  0  0  0  0  0  0  0  0  0  0  0
   -4.9769    8.4396    4.9960 F   0  0  0  0  0  0  0  0  0  0  0  0
   -7.5640    3.4801    4.6170 C   0  0  0  0  0  0  0  0  0  0  0  0
   -8.3705    2.5514    4.1461 N   0  0  0  0  0  0  0  0  0  0  0  0
   -8.0607    1.9167    3.0115 C   0  0  0  0  0  0  0  0  0  0  0  0
   -7.9318    3.9810    5.9151 C   0  0  0  0  0  0  0  0  0  0  0  0
   -9.5959    3.8298    6.3834 S   0  0  0  0  0  0  0  0  0  0  0  0
   -9.2889    4.4461    7.9627 C   0  0  0  0  0  0  0  0  0  0  0  0
  -10.3706    4.6219    8.9699 C   0  0  0  0  0  0  0  0  0  0  0  0
  -11.4616    5.5644    8.4623 C   0  0  0  0  0  0  0  0  0  0  0  0
   -7.9586    4.7282    8.1112 C   0  0  0  0  0  0  0  0  0  0  0  0
   -7.4299    5.2047    9.2475 F   0  0  0  0  0  0  0  0  0  0  0  0
   -7.1856    4.4634    6.9626 C   0  0  0  0  0  0  0  0  0  0  0  0
   -5.8551    4.6175    6.9370 F   0  0  0  0  0  0  0  0  0  0  0  0
   -5.3227    1.9242    0.4111 C   0  0  0  0  0  0  0  0  0  0  0  0
   -4.8998    3.2240    0.1725 C   0  0  0  0  0  0  0  0  0  0  0  0
   -5.7052    4.4149    0.4357 C   0  0  0  0  0  0  0  0  0  0  0  0
   -5.0981    5.5978    0.8502 C   0  0  0  0  0  0  0  0  0  0  0  0
   -5.8714    6.7019    1.1523 C   0  0  0  0  0  0  0  0  0  0  0  0
   -7.2494    6.6455    1.0371 C   0  0  0  0  0  0  0  0  0  0  0  0
   -7.8701    5.4923    0.5722 C   0  0  0  0  0  0  0  0  0  0  0  0
   -9.3639    5.4199    0.4257 C   0  0  0  0  0  0  0  0  0  0  0  0
   -9.9845    4.4903    1.4701 C   0  0  0  0  0  0  0  0  0  0  0  0
   -7.0870    4.3911    0.2624 C   0  0  0  0  0  0  0  0  0  0  0  0
   -3.6300    3.2344   -0.4349 C   0  0  0  0  0  0  0  0  0  0  0  0
   -2.5599    4.5249   -0.9306 S   0  0  0  0  0  0  0  0  0  0  0  0
   -1.4095    3.3422   -1.4479 C   0  0  0  0  0  0  0  0  0  0  0  0
   -0.1330    3.2818   -2.0218 C   0  0  0  0  0  0  0  0  0  0  0  0
    0.7106    4.3207   -2.4687 C   0  0  0  0  0  0  0  0  0  0  0  0
    1.9625    3.9789   -3.0717 C   0  0  0  0  0  0  0  0  0  0  0  0
    2.6407    5.0437   -3.4708 N   0  0  0  0  0  0  0  0  0  0  0  0
    1.7747    6.3641   -3.1152 S   0  0  0  0  0  0  0  0  0  0  0  0
    0.5021    5.6280   -2.4358 N   0  0  0  0  0  0  0  0  0  0  0  0
    2.3387    2.6200   -3.1301 C   0  0  0  0  0  0  0  0  0  0  0  0
    3.5430    2.0376   -3.5470 C   0  0  0  0  0  0  0  0  0  0  0  0
    5.0790    2.5096   -4.1891 S   0  0  0  0  0  0  0  0  0  0  0  0
    5.5891    0.8385   -4.1178 C   0  0  0  0  0  0  0  0  0  0  0  0
    6.8071    0.2038   -4.4152 C   0  0  0  0  0  0  0  0  0  0  0  0
    8.0303    0.9162   -4.7799 C   0  0  0  0  0  0  0  0  0  0  0  0
    8.0074    1.9330   -5.7295 C   0  0  0  0  0  0  0  0  0  0  0  0
    9.1808    2.5780   -6.0697 C   0  0  0  0  0  0  0  0  0  0  0  0
   10.3774    2.2178   -5.4743 C   0  0  0  0  0  0  0  0  0  0  0  0
   10.4147    1.2216   -4.5066 C   0  0  0  0  0  0  0  0  0  0  0  0
   11.7083    0.7908   -3.8756 C   0  0  0  0  0  0  0  0  0  0  0  0
   12.1282   -0.5880   -4.3897 C   0  0  0  0  0  0  0  0  0  0  0  0
    9.2320    0.5886   -4.1586 C   0  0  0  0  0  0  0  0  0  0  0  0
    6.7279   -1.1625   -4.1781 C   0  0  0  0  0  0  0  0  0  0  0  0
    5.1891   -1.6497   -3.5011 S   0  0  0  0  0  0  0  0  0  0  0  0
    4.6059   -0.0266   -3.6265 C   0  0  0  0  0  0  0  0  0  0  0  0
    3.4344    0.6672   -3.3010 C   0  0  0  0  0  0  0  0  0  0  0  0
    2.2129    0.3855   -2.7564 N   0  0  0  0  0  0  0  0  0  0  0  0
    1.5009    1.5673   -2.6491 C   0  0  0  0  0  0  0  0  0  0  0  0
    0.2102    1.9018   -2.1485 C   0  0  0  0  0  0  0  0  0  0  0  0
   -0.8675    1.1587   -1.6959 N   0  0  0  0  0  0  0  0  0  0  0  0
   -1.8319    2.0251   -1.2583 C   0  0  0  0  0  0  0  0  0  0  0  0
   -3.1064    1.9606   -0.6825 C   0  0  0  0  0  0  0  0  0  0  0  0
   -4.1981    0.7220   -0.1811 S   0  0  0  0  0  0  0  0  0  0  0  0
   -1.1832   -0.2492   -1.7539 C   0  0  0  0  0  0  0  0  0  0  0  0
   -1.0445   -0.9205   -0.3872 C   0  0  0  0  0  0  0  0  0  0  0  0
    1.9466   -0.9740   -2.3526 C   0  0  0  0  0  0  0  0  0  0  0  0
    1.5347   -1.8418   -3.5419 C   0  0  0  0  0  0  0  0  0  0  0  0
    7.7219   -2.1647   -4.4267 C   0  0  0  0  0  0  0  0  0  0  0  0
    8.6282   -2.1075   -5.4818 C   0  0  0  0  0  0  0  0  0  0  0  0
    8.5320   -1.1446   -6.4111 F   0  0  0  0  0  0  0  0  0  0  0  0
    9.6192   -3.0742   -5.6677 C   0  0  0  0  0  0  0  0  0  0  0  0
   10.4280   -2.9520   -6.7292 F   0  0  0  0  0  0  0  0  0  0  0  0
    9.7617   -4.1713   -4.8329 C   0  0  0  0  0  0  0  0  0  0  0  0
    8.8559   -4.2610   -3.7419 C   0  0  0  0  0  0  0  0  0  0  0  0
    9.0546   -5.1564   -2.7730 N   0  0  0  0  0  0  0  0  0  0  0  0
    8.1521   -5.3289   -1.8401 C   0  0  0  0  0  0  0  0  0  0  0  0
    8.5139   -6.1772   -0.7282 C   0  0  0  0  0  0  0  0  0  0  0  0
    7.8455   -5.9905    0.8636 S   0  0  0  0  0  0  0  0  0  0  0  0
    8.7857   -7.2858    1.5132 C   0  0  0  0  0  0  0  0  0  0  0  0
    8.6504   -7.7236    2.9291 C   0  0  0  0  0  0  0  0  0  0  0  0
    7.2328   -8.2166    3.2232 C   0  0  0  0  0  0  0  0  0  0  0  0
    9.5760   -7.8176    0.5366 C   0  0  0  0  0  0  0  0  0  0  0  0
    9.4451   -7.1853   -0.7209 C   0  0  0  0  0  0  0  0  0  0  0  0
   10.1443   -7.5746   -1.7882 F   0  0  0  0  0  0  0  0  0  0  0  0
   10.4112   -8.8432    0.7474 F   0  0  0  0  0  0  0  0  0  0  0  0
    6.9018   -4.6263   -1.9343 C   0  0  0  0  0  0  0  0  0  0  0  0
    6.8166   -3.5862   -2.7297 N   0  0  0  0  0  0  0  0  0  0  0  0
    7.7922   -3.3273   -3.6028 C   0  0  0  0  0  0  0  0  0  0  0  0
    5.7247   -5.0240   -1.2017 C   0  0  0  0  0  0  0  0  0  0  0  0
    4.5590   -3.8651   -0.6548 S   0  0  0  0  0  0  0  0  0  0  0  0
    3.5536   -5.0847    0.0456 C   0  0  0  0  0  0  0  0  0  0  0  0
    2.3154   -4.7797    0.8173 C   0  0  0  0  0  0  0  0  0  0  0  0
    1.5927   -3.5426    0.3006 C   0  0  0  0  0  0  0  0  0  0  0  0
    4.0905   -6.3206   -0.1784 C   0  0  0  0  0  0  0  0  0  0  0  0
    3.5164   -7.4560    0.2449 F   0  0  0  0  0  0  0  0  0  0  0  0
    5.3118   -6.2939   -0.8831 C   0  0  0  0  0  0  0  0  0  0  0  0
    5.9782   -7.4047   -1.2185 F   0  0  0  0  0  0  0  0  0  0  0  0
   10.7980   -5.1543   -5.0101 C   0  0  0  0  0  0  0  0  0  0  0  0
   10.6137   -6.4755   -4.7897 C   0  0  0  0  0  0  0  0  0  0  0  0
    9.2778   -7.1526   -4.6946 C   0  0  0  0  0  0  0  0  0  0  0  0
    8.1853   -6.6569   -4.8524 O   0  0  0  0  0  0  0  0  0  0  0  0
    9.5929   -8.5728   -4.4945 C   0  0  0  0  0  0  0  0  0  0  0  0
    8.8858   -9.7639   -4.2793 C   0  0  0  0  0  0  0  0  0  0  0  0
    9.7477  -10.8191   -4.1465 C   0  0  0  0  0  0  0  0  0  0  0  0
    9.3199  -12.4418   -3.8670 Cl  0  0  0  0  0  0  0  0  0  0  0  0
   11.4318  -10.3776   -4.2883 S   0  0  0  0  0  0  0  0  0  0  0  0
   10.9705   -8.7441   -4.5286 C   0  0  0  0  0  0  0  0  0  0  0  0
   11.6536   -7.4989   -4.7148 C   0  0  0  0  0  0  0  0  0  0  0  0
   13.0133   -7.3343   -4.7345 C   0  0  0  0  0  0  0  0  0  0  0  0
   13.6846   -6.1008   -4.8377 C   0  0  0  0  0  0  0  0  0  0  0  0
   14.2896   -5.1271   -4.9025 N   0  0  0  0  0  0  0  0  0  0  0  0
   13.8767   -8.4458   -4.6281 C   0  0  0  0  0  0  0  0  0  0  0  0
   14.5856   -9.3443   -4.5508 N   0  0  0  0  0  0  0  0  0  0  0  0
  -10.1515    0.9061    4.2591 H   0  0  0  0  0  0  0  0  0  0  0  0
  -15.4402   -0.6801    3.2478 H   0  0  0  0  0  0  0  0  0  0  0  0
  -16.6940   -1.0346    1.1695 H   0  0  0  0  0  0  0  0  0  0  0  0
   -1.6216    6.7923    4.7472 H   0  0  0  0  0  0  0  0  0  0  0  0
   -2.4522    8.3236    4.4317 H   0  0  0  0  0  0  0  0  0  0  0  0
   -0.8595    7.7616    2.5980 H   0  0  0  0  0  0  0  0  0  0  0  0
   -1.6990    6.2327    2.3217 H   0  0  0  0  0  0  0  0  0  0  0  0
   -2.5142    7.7640    1.9876 H   0  0  0  0  0  0  0  0  0  0  0  0
   -9.9293    5.0159    9.8874 H   0  0  0  0  0  0  0  0  0  0  0  0
  -10.8143    3.6475    9.1898 H   0  0  0  0  0  0  0  0  0  0  0  0
  -11.0445    6.5426    8.2359 H   0  0  0  0  0  0  0  0  0  0  0  0
  -11.9145    5.1614    7.5597 H   0  0  0  0  0  0  0  0  0  0  0  0
  -12.2327    5.6816    9.2184 H   0  0  0  0  0  0  0  0  0  0  0  0
   -4.0262    5.6404    0.9572 H   0  0  0  0  0  0  0  0  0  0  0  0
   -5.3978    7.6137    1.4865 H   0  0  0  0  0  0  0  0  0  0  0  0
   -7.8472    7.5077    1.2946 H   0  0  0  0  0  0  0  0  0  0  0  0
   -9.7895    6.4190    0.5338 H   0  0  0  0  0  0  0  0  0  0  0  0
   -9.6156    5.0482   -0.5703 H   0  0  0  0  0  0  0  0  0  0  0  0
   -9.6674    3.4627    1.3072 H   0  0  0  0  0  0  0  0  0  0  0  0
   -9.6890    4.7889    2.4746 H   0  0  0  0  0  0  0  0  0  0  0  0
  -11.0697    4.5236    1.4064 H   0  0  0  0  0  0  0  0  0  0  0  0
   -7.5619    3.5009   -0.1251 H   0  0  0  0  0  0  0  0  0  0  0  0
    7.0794    2.1931   -6.2146 H   0  0  0  0  0  0  0  0  0  0  0  0
    9.1646    3.3604   -6.8136 H   0  0  0  0  0  0  0  0  0  0  0  0
   11.2919    2.7165   -5.7606 H   0  0  0  0  0  0  0  0  0  0  0  0
   12.4902    1.5159   -4.1067 H   0  0  0  0  0  0  0  0  0  0  0  0
   11.5934    0.7489   -2.7894 H   0  0  0  0  0  0  0  0  0  0  0  0
   12.1963   -0.5825   -5.4751 H   0  0  0  0  0  0  0  0  0  0  0  0
   11.4021   -1.3441   -4.0959 H   0  0  0  0  0  0  0  0  0  0  0  0
   13.0969   -0.8683   -3.9833 H   0  0  0  0  0  0  0  0  0  0  0  0
    9.2413   -0.1708   -3.3879 H   0  0  0  0  0  0  0  0  0  0  0  0
   -0.5691   -0.7320   -2.5087 H   0  0  0  0  0  0  0  0  0  0  0  0
   -2.2270   -0.3339   -2.0753 H   0  0  0  0  0  0  0  0  0  0  0  0
   -1.7897   -0.5263    0.2981 H   0  0  0  0  0  0  0  0  0  0  0  0
   -0.0631   -0.7439    0.0477 H   0  0  0  0  0  0  0  0  0  0  0  0
   -1.2023   -1.9904   -0.4872 H   0  0  0  0  0  0  0  0  0  0  0  0
    1.2020   -0.9859   -1.5634 H   0  0  0  0  0  0  0  0  0  0  0  0
    2.8784   -1.3757   -1.9394 H   0  0  0  0  0  0  0  0  0  0  0  0
    0.6907   -1.4113   -4.0771 H   0  0  0  0  0  0  0  0  0  0  0  0
    1.2649   -2.8372   -3.2011 H   0  0  0  0  0  0  0  0  0  0  0  0
    2.3639   -1.9315   -4.2380 H   0  0  0  0  0  0  0  0  0  0  0  0
    9.3711   -8.5231    3.1107 H   0  0  0  0  0  0  0  0  0  0  0  0
    8.8864   -6.8884    3.5936 H   0  0  0  0  0  0  0  0  0  0  0  0
    7.1601   -8.5449    4.2561 H   0  0  0  0  0  0  0  0  0  0  0  0
    6.9779   -9.0509    2.5745 H   0  0  0  0  0  0  0  0  0  0  0  0
    6.5137   -7.4171    3.0587 H   0  0  0  0  0  0  0  0  0  0  0  0
    1.6598   -5.6526    0.7733 H   0  0  0  0  0  0  0  0  0  0  0  0
    2.5846   -4.6256    1.8674 H   0  0  0  0  0  0  0  0  0  0  0  0
    0.7015   -3.3592    0.8941 H   0  0  0  0  0  0  0  0  0  0  0  0
    1.3020   -3.6797   -0.7375 H   0  0  0  0  0  0  0  0  0  0  0  0
    2.2451   -2.6754    0.3679 H   0  0  0  0  0  0  0  0  0  0  0  0
   11.7665   -4.7796   -5.3162 H   0  0  0  0  0  0  0  0  0  0  0  0
    7.8169   -9.8435   -4.2133 H   0  0  0  0  0  0  0  0  0  0  0  0
  1  2  2  0  0  0  0
  2  3  1  0  0  0  0
  3  4  2  0  0  0  0
  3  5  1  0  0  0  0
  5  6  2  0  0  0  0
  6  7  1  0  0  0  0
  7  8  2  0  0  0  0
  8  9  1  0  0  0  0
  9 10  1  0  0  0  0
  9 11  2  0  0  0  0
 11 12  1  0  0  0  0
  6 13  1  0  0  0  0
 13 14  2  0  0  0  0
 14 15  1  0  0  0  0
 15 16  3  0  0  0  0
 14 17  1  0  0  0  0
 17 18  3  0  0  0  0
  1 19  1  0  0  0  0
 19 20  2  0  0  0  0
 20 21  1  0  0  0  0
 20 22  1  0  0  0  0
 22 23  1  0  0  0  0
 22 24  2  0  0  0  0
 24 25  1  0  0  0  0
 25 26  2  0  0  0  0
 26 27  1  0  0  0  0
 27 28  1  0  0  0  0
 28 29  1  0  0  0  0
 29 30  1  0  0  0  0
 30 31  1  0  0  0  0
 31 32  1  0  0  0  0
 30 33  2  0  0  0  0
 33 34  1  0  0  0  0
 34 35  1  0  0  0  0
 33 36  1  0  0  0  0
 27 37  2  0  0  0  0
 37 38  1  0  0  0  0
 38 39  2  0  0  0  0
 37 40  1  0  0  0  0
 40 41  1  0  0  0  0
 41 42  1  0  0  0  0
 42 43  1  0  0  0  0
 43 44  1  0  0  0  0
 42 45  2  0  0  0  0
 45 46  1  0  0  0  0
 45 47  1  0  0  0  0
 47 48  1  0  0  0  0
 24 49  1  0  0  0  0
 49 50  2  0  0  0  0
 50 51  1  0  0  0  0
 51 52  2  0  0  0  0
 52 53  1  0  0  0  0
 53 54  2  0  0  0  0
 54 55  1  0  0  0  0
 55 56  1  0  0  0  0
 56 57  1  0  0  0  0
 55 58  2  0  0  0  0
 50 59  1  0  0  0  0
 59 60  1  0  0  0  0
 60 61  1  0  0  0  0
 61 62  1  0  0  0  0
 62 63  1  0  0  0  0
 63 64  1  0  0  0  0
 64 65  2  0  0  0  0
 65 66  1  0  0  0  0
 66 67  1  0  0  0  0
 64 68  1  0  0  0  0
 68 69  1  0  0  0  0
 69 70  1  0  0  0  0
 70 71  1  0  0  0  0
 71 72  1  0  0  0  0
 72 73  1  0  0  0  0
 73 74  2  0  0  0  0
 74 75  1  0  0  0  0
 75 76  2  0  0  0  0
 76 77  1  0  0  0  0
 77 78  1  0  0  0  0
 78 79  1  0  0  0  0
 77 80  2  0  0  0  0
 72 81  2  0  0  0  0
 81 82  1  0  0  0  0
 82 83  1  0  0  0  0
 83 84  1  0  0  0  0
 84 85  1  0  0  0  0
 85 86  1  0  0  0  0
 86 87  1  0  0  0  0
 87 88  1  0  0  0  0
 88 89  1  0  0  0  0
 89 90  1  0  0  0  0
 90 91  1  0  0  0  0
 88 92  1  0  0  0  0
 92 93  1  0  0  0  0
 85 94  1  0  0  0  0
 94 95  1  0  0  0  0
 81 96  1  0  0  0  0
 96 97  2  0  0  0  0
 97 98  1  0  0  0  0
 97 99  1  0  0  0  0
 99100  1  0  0  0  0
 99101  2  0  0  0  0
101102  1  0  0  0  0
102103  2  0  0  0  0
103104  1  0  0  0  0
104105  1  0  0  0  0
105106  1  0  0  0  0
106107  1  0  0  0  0
107108  1  0  0  0  0
108109  1  0  0  0  0
107110  2  0  0  0  0
110111  1  0  0  0  0
111112  1  0  0  0  0
110113  1  0  0  0  0
104114  2  0  0  0  0
114115  1  0  0  0  0
115116  2  0  0  0  0
114117  1  0  0  0  0
117118  1  0  0  0  0
118119  1  0  0  0  0
119120  1  0  0  0  0
120121  1  0  0  0  0
119122  2  0  0  0  0
122123  1  0  0  0  0
122124  1  0  0  0  0
124125  1  0  0  0  0
101126  1  0  0  0  0
126127  2  0  0  0  0
127128  1  0  0  0  0
128129  2  0  0  0  0
128130  1  0  0  0  0
130131  1  0  0  0  0
131132  2  0  0  0  0
132133  1  0  0  0  0
132134  1  0  0  0  0
134135  1  0  0  0  0
135136  1  0  0  0  0
136137  2  0  0  0  0
137138  1  0  0  0  0
138139  3  0  0  0  0
137140  1  0  0  0  0
140141  3  0  0  0  0
 13  2  1  0  0  0  0
 39 19  1  0  0  0  0
 47 40  2  0  0  0  0
 91 49  1  0  0  0  0
116 96  1  0  0  0  0
124117  2  0  0  0  0
136127  1  0  0  0  0
 11  5  1  0  0  0  0
 39 25  1  0  0  0  0
 58 51  1  0  0  0  0
 90 59  2  0  0  0  0
116102  1  0  0  0  0
135130  2  0  0  0  0
 34 28  2  0  0  0  0
 89 61  2  0  0  0  0
111105  2  0  0  0  0
 87 62  2  0  0  0  0
 67 63  2  0  0  0  0
 86 68  2  0  0  0  0
 84 69  2  0  0  0  0
 83 71  2  0  0  0  0
 80 73  1  0  0  0  0
  1142  1  0  0  0  0
  7143  1  0  0  0  0
  8144  1  0  0  0  0
 31145  1  0  0  0  0
 31146  1  0  0  0  0
 32147  1  0  0  0  0
 32148  1  0  0  0  0
 32149  1  0  0  0  0
 43150  1  0  0  0  0
 43151  1  0  0  0  0
 44152  1  0  0  0  0
 44153  1  0  0  0  0
 44154  1  0  0  0  0
 52155  1  0  0  0  0
 53156  1  0  0  0  0
 54157  1  0  0  0  0
 56158  1  0  0  0  0
 56159  1  0  0  0  0
 57160  1  0  0  0  0
 57161  1  0  0  0  0
 57162  1  0  0  0  0
 58163  1  0  0  0  0
 74164  1  0  0  0  0
 75165  1  0  0  0  0
 76166  1  0  0  0  0
 78167  1  0  0  0  0
 78168  1  0  0  0  0
 79169  1  0  0  0  0
 79170  1  0  0  0  0
 79171  1  0  0  0  0
 80172  1  0  0  0  0
 92173  1  0  0  0  0
 92174  1  0  0  0  0
 93175  1  0  0  0  0
 93176  1  0  0  0  0
 93177  1  0  0  0  0
 94178  1  0  0  0  0
 94179  1  0  0  0  0
 95180  1  0  0  0  0
 95181  1  0  0  0  0
 95182  1  0  0  0  0
108183  1  0  0  0  0
108184  1  0  0  0  0
109185  1  0  0  0  0
109186  1  0  0  0  0
109187  1  0  0  0  0
120188  1  0  0  0  0
120189  1  0  0  0  0
121190  1  0  0  0  0
121191  1  0  0  0  0
121192  1  0  0  0  0
126193  1  0  0  0  0
131194  1  0  0  0  0
M  END
