164

C          4.33980        5.59790        9.05200
C          5.50580        6.08410        8.57620
C          6.08240        5.72870        7.24390
O          5.80860        4.77520        6.55540
C          7.15990        6.71330        7.02060
C          7.34710        7.48310        8.18420
C          8.31140        8.48040        8.20500
C          9.06840        8.69690        7.06450
C          8.87910        7.93610        5.91930
Br         9.93590        8.28730        4.39530
C          7.91950        6.92030        5.88060
Cl         7.68120        5.97650        4.47540
C          6.39180        7.05330        9.20110
C          6.34080        7.50110       10.49160
C          5.41400        7.06550       11.46450
N          4.69910        6.76390       12.31000
C          7.23600        8.44640       11.03850
N          7.93610        9.20480       11.53940
C          3.40710        4.82020        8.27300
C          3.04120        5.08610        6.96840
C          3.42070        6.24150        6.11580
O          4.15170        7.17570        6.35580
N          2.72370        6.08470        4.94040
C          2.85700        6.97760        3.80950
C          4.03260        6.56870        2.92990
C          1.93220        4.94560        4.92310
O          1.23460        4.62780        3.98980
C          2.11650        4.30310        6.23990
C          1.47550        3.18780        6.76510
C          1.82610        2.89000        8.11810
C          2.74810        3.70610        8.86160
N          2.93910        3.24660       10.09470
S          2.06270        1.91370       10.29570
N          1.40720        1.85070        8.83250
C          0.56620        2.33890        6.05420
C         -0.53120        1.66010        6.57370
C         -1.12250        1.89850        7.88790
C         -1.24710        3.19300        8.38910
C         -1.82870        3.40000        9.62430
C         -2.30040        2.32830       10.36390
C         -2.19770        1.03330        9.87300
C         -2.75800       -0.13350       10.63340
C         -4.13880       -0.50530       10.08860
C         -1.61020        0.83160        8.63350
C         -1.08390        0.79020        5.62030
S         -2.44960       -0.30390        5.65400
C         -2.12200       -0.72600        4.00750
C         -2.59670       -1.59170        3.01380
C         -3.61040       -2.57280        3.06760
C         -3.82220       -3.40820        1.92450
N         -4.76910       -4.31150        2.12460
S         -5.34670       -4.12250        3.62550
N         -4.40870       -2.88200        4.07740
C         -3.06850       -3.16620        0.75570
C         -3.14070       -3.76700       -0.50730
S         -4.00460       -5.02760       -1.31840
C         -3.17100       -4.60580       -2.80030
C         -3.20210       -5.15390       -4.09250
C         -3.91500       -6.39390       -4.38950
C         -3.28110       -7.42060       -5.08770
C         -3.94000       -8.61460       -5.30130
C         -5.22410       -8.80060       -4.81770
C         -5.86760       -7.79090       -4.11420
C         -7.23600       -7.99780       -3.53350
C         -7.12960       -8.37650       -2.05470
C         -5.20210       -6.59310       -3.90390
C         -2.35030       -4.46190       -4.95220
S         -1.41930       -3.22490       -4.12380
C         -2.27700       -3.54010       -2.65350
C         -2.24990       -3.07670       -1.33460
N         -1.62370       -2.08900       -0.62610
C         -2.08830       -2.12920        0.67620
C         -1.79010       -1.38560        1.85230
N         -0.82730       -0.44500        2.17110
C         -1.03120       -0.04490        3.46140
C         -0.42600        0.81490        4.38440
S          0.88360        1.93250        4.38440
C          0.33230        0.05440        1.47070
C          0.10400        1.46430        0.92360
C         -0.76960       -1.17010       -1.34060
C          0.61450       -1.76660       -1.60110
C         -2.17600       -4.58520       -6.36270
C         -3.12000       -5.09530       -7.25320
F         -4.34590       -5.44870       -6.83470
C         -2.87250       -5.18280       -8.62180
F         -3.84930       -5.66350       -9.40560
C         -1.70510       -4.72020       -9.21790
C         -0.71340       -4.18690       -8.34280
N          0.49550       -3.84720       -8.80910
C          1.37180       -3.28760       -8.01250
C          2.70600       -2.96290       -8.61180
C          2.69270       -1.55420       -9.21010
C          1.03490       -3.00450       -6.66020
N         -0.09310       -3.45770       -6.17340
C         -0.97720       -4.07880       -6.95840
C          1.92700       -2.28810       -5.69420
C          2.70900       -3.29800       -4.85040
C         -1.48780       -4.80730      -10.62840
C         -0.83540       -3.85160      -11.34600
C         -0.68450       -2.44480      -10.89440
O         -1.08800       -1.94060       -9.87110
C         -0.06710       -1.73500      -12.03980
C          0.10560       -2.62570      -13.11540
C          0.64330       -2.17370      -14.31070
C          1.01130       -0.84060      -14.41210
C          0.84410        0.03350      -13.34840
Br         1.37810        1.83550      -13.54380
C          0.28910       -0.39930      -12.13950
Cl         0.06770        0.68110      -10.82830
C         -0.35140       -3.95120      -12.70640
C         -0.24620       -5.09730      -13.44910
C         -0.60140       -6.38530      -12.99270
N         -0.84150       -7.46520      -12.68720
C          0.26370       -5.14830      -14.76330
N          0.66420       -5.25040      -15.83420
H          4.04400        5.77310       10.07810
H          8.47940        9.09000        9.07700
H          9.81910        9.47230        7.05790
H          3.00750        7.98580        4.20310
H          1.92130        6.93130        3.24750
H          4.13030        7.26020        2.09790
H          3.87880        5.56540        2.53910
H          4.95280        6.58400        3.50860
H         -0.89780        4.03150        7.80330
H         -1.92180        4.40430       10.01160
H         -2.75570        2.50090       11.32830
H         -2.84100        0.11640       11.69280
H         -2.09100       -0.99230       10.53440
H         -4.07260       -0.76560        9.03470
H         -4.54590       -1.35430       10.63250
H         -4.82340        0.33360       10.19120
H         -1.50780       -0.17280        8.25100
H         -2.27120       -7.28150       -5.44800
H         -3.44830       -9.40780       -5.84510
H         -5.73140       -9.73880       -4.99000
H         -7.81900       -7.07950       -3.62790
H         -7.75500       -8.79030       -4.07540
H         -6.56450       -9.29910       -1.94100
H         -8.11890       -8.52050       -1.62710
H         -6.61990       -7.59320       -1.49830
H         -5.70000       -5.79340       -3.37580
H          1.15380        0.09270        2.19420
H          0.61510       -0.64480        0.68960
H          0.02510        2.17680        1.74030
H         -0.81210        1.52150        0.33890
H          0.94210        1.75650        0.29710
H         -0.71280       -0.22790       -0.80390
H         -1.24670       -0.97400       -2.30690
H          1.26570       -1.01220       -2.03370
H          1.06760       -2.14120       -0.68540
H          0.53460       -2.59530       -2.29920
H          3.49190       -3.04210       -7.86040
H          2.90320       -3.68320       -9.40720
H          2.48750       -0.80600       -8.44790
H          3.65370       -1.33160       -9.66710
H          1.92040       -1.48510       -9.97060
H          1.29400       -1.69370       -5.03370
H          2.61450       -1.62650       -6.21890
H          3.32930       -2.77910       -4.12420
H          3.35030       -3.91390       -5.47710
H          2.01860       -3.94910       -4.32070
H         -1.87910       -5.68700      -11.12320
H          0.77750       -2.82750      -15.15610
H          1.43480       -0.46930      -15.33260
