166

C         -0.89270      -11.53310        0.94360
C          0.36220      -11.91520        1.29410
C          0.67190      -13.36590        1.41080
O         -0.11840      -14.27780        1.40250
C          2.14920      -13.43740        1.49230
C          2.67840      -12.13390        1.55600
C          4.04980      -11.94620        1.62240
C          4.87460      -13.06110        1.62340
C          4.34940      -14.34310        1.56920
Br         5.52700      -15.82000        1.58540
C          2.96740      -14.55620        1.50350
Cl         2.31350      -16.13610        1.44160
C          1.57450      -11.17430        1.56040
C          1.67210       -9.87500        1.98390
C          0.58280       -9.00350        2.18230
N         -0.24670       -8.23660        2.38710
C          2.88310       -9.24630        2.33900
N          3.83700       -8.67410        2.62450
C         -1.32840      -10.26950        0.43980
C         -2.62180       -9.81820        0.68310
F         -3.43240      -10.56820        1.44240
C         -3.09570       -8.58000        0.25660
F         -4.30810       -8.21030        0.69440
C         -2.32200       -7.72490       -0.52470
C         -1.00060       -8.18380       -0.82480
N         -0.20900       -7.39040       -1.55000
C          0.99800       -7.77350       -1.88850
C          1.76750       -6.80820       -2.73700
C          1.24520       -6.85240       -4.17550
C          1.44970       -9.06960       -1.52310
N          0.70640       -9.84320       -0.76560
C         -0.50820       -9.43100       -0.37190
C          2.75710       -9.64370       -1.97870
C          3.93020       -9.14680       -1.13140
C         -2.71160       -6.41620       -0.93960
C         -3.98220       -5.86940       -1.10420
C         -5.22880       -6.61930       -1.23250
C         -5.26700       -7.79520       -1.98070
C         -6.46280       -8.46360       -2.15000
C         -7.62650       -7.96820       -1.58610
C         -7.60720       -6.79650       -0.84100
C         -8.86870       -6.21800       -0.26970
C         -9.41400       -5.12620       -1.19280
C         -6.40350       -6.12970       -0.67330
C         -3.91070       -4.47950       -1.29440
S         -5.13510       -3.24630       -1.50060
C         -3.88590       -2.05290       -1.58880
C         -3.75260       -0.65780       -1.68580
C         -4.68530        0.38350       -1.88960
C         -4.20840        1.73670       -1.98940
N         -5.18400        2.59800       -2.22980
S         -6.58030        1.78370       -2.31910
N         -5.99570        0.29780       -2.05270
C         -2.84180        2.00520       -1.74670
C         -2.13960        3.20780       -1.56590
S         -2.41530        4.91460       -1.64150
C         -0.77690        5.18540       -1.09190
C         -0.02340        6.35360       -0.85800
C         -0.52300        7.70190       -1.12740
C          0.28860        8.66100       -1.73040
C         -0.20610        9.92460       -1.98610
C         -1.52060       10.23530       -1.68420
C         -2.36020        9.27940       -1.12560
C         -3.79980        9.60520       -0.84060
C         -3.96370       10.33880        0.49110
C         -1.84580        8.02470       -0.83720
C          1.26340        6.03660       -0.45080
S          1.55260        4.31090       -0.38570
C         -0.06970        3.99940       -0.87650
C         -0.84920        2.86830       -1.14780
N         -0.70810        1.50610       -1.09570
C         -1.92150        0.95540       -1.47740
C         -2.36030       -0.38350       -1.59920
N         -1.66650       -1.57680       -1.53610
C         -2.59430       -2.58770       -1.49690
C         -2.60590       -3.97390       -1.31940
S         -1.43320       -5.23330       -1.16280
C         -0.31700       -1.81060       -2.00200
C         -0.29910       -2.59330       -3.31440
C          0.33690        0.92700       -0.27260
C         -0.22730        0.25700        0.97590
C          2.30900        6.93950       -0.05120
C          3.64560        6.72770       -0.35400
F          4.00740        5.64090       -1.05960
C          4.64740        7.63670       -0.00270
F          5.89200        7.38200       -0.42820
C          4.36260        8.83050        0.64120
C          2.99570        9.09520        0.93420
N          2.64430       10.28740        1.44510
C          1.40070       10.49440        1.79560
C          1.02560       11.89660        2.15660
C          0.36660       12.56800        0.94780
C          0.46170        9.42030        1.77130
N          0.76800        8.29330        1.18410
C          2.00010        8.12240        0.68240
C         -0.87020        9.47710        2.45010
C         -0.71160        9.19680        3.94700
C          5.35250        9.82890        0.95050
C          6.58380        9.58060        1.45230
C          7.01310        8.26560        2.03220
O          6.34500        7.27050        2.18470
C          8.37950        8.51530        2.48310
S          9.60470        7.59150        3.23480
C         10.62800        8.99920        3.25380
Br        12.35310        8.88380        3.97100
C         10.05680       10.12030        2.71750
C          8.75240        9.83750        2.27370
C          7.65740       10.54780        1.64440
C          7.68240       11.86500        1.27860
C          6.63580       12.55880        0.63670
N          5.83000       13.18770        0.11470
C          8.80940       12.68000        1.52260
N          9.71580       13.35600        1.71460
H         -1.65030      -12.30860        1.00900
H          4.48970      -10.96400        1.66960
H          5.94550      -12.93620        1.67080
H          1.60570       -5.80670       -2.33530
H          2.83220       -7.03090       -2.72170
H          0.18620       -6.60910       -4.19170
H          1.37890       -7.84320       -4.60480
H          1.78020       -6.13350       -4.79050
H          2.92580       -9.38650       -3.02570
H          2.69030      -10.72950       -1.89120
H          4.85310       -9.60750       -1.47440
H          4.03900       -8.06700       -1.19280
H          3.78060       -9.40830       -0.08850
H         -4.36140       -8.17090       -2.43640
H         -6.49010       -9.37510       -2.72910
H         -8.55770       -8.49830       -1.72470
H         -8.66480       -5.78850        0.71300
H         -9.61850       -7.00230       -0.15190
H         -9.63370       -5.53760       -2.17560
H        -10.32720       -4.70220       -0.78210
H         -8.68260       -4.33000       -1.31150
H         -6.37330       -5.22940       -0.07780
H          1.30200        8.41160       -2.00920
H          0.43270       10.66760       -2.44080
H         -1.90450       11.22090       -1.90590
H         -4.18930       10.23590       -1.64270
H         -4.38520        8.68450       -0.81800
H         -3.64770        9.70540        1.31600
H         -5.00520       10.61100        0.64520
H         -3.36520       11.24740        0.50190
H         -2.48370        7.28430       -0.37780
H          0.24290       -2.35640       -1.23550
H          0.14580       -0.84320       -2.18290
H          0.72170       -2.65310       -3.68240
H         -0.67430       -3.60270       -3.17660
H         -0.90930       -2.08910       -4.06070
H          0.94920        0.22190       -0.83750
H          0.98790        1.75390        0.02090
H          0.58950       -0.09540        1.59950
H         -0.81990        0.96750        1.54760
H         -0.85750       -0.58940        0.71770
H          1.93360       12.43940        2.41980
H          0.34350       11.90950        3.00670
H          1.07200       12.62000        0.12250
H         -0.50380       12.00420        0.61730
H          0.05640       13.57770        1.20400
H         -1.33580       10.45100        2.30250
H         -1.50030        8.70810        2.00320
H         -0.05880        9.93070        4.41490
H         -0.28070        8.21010        4.09780
H         -1.68070        9.23160        4.43850
H          5.02530       10.84800        0.79020
H         10.55330       11.07110        2.65670
