
  xtb     02052223113D
 energy: -309.680289219183 gnorm: 0.000362216630 xtb: 6.4.1 (unknown)
164182  0     0  0            999 V2000
    4.3398    5.5979    9.0520 C   0  0  0  0  0  0  0  0  0  0  0  0
    5.5058    6.0841    8.5762 C   0  0  0  0  0  0  0  0  0  0  0  0
    6.0824    5.7287    7.2439 C   0  0  0  0  0  0  0  0  0  0  0  0
    5.8086    4.7752    6.5554 O   0  0  0  0  0  0  0  0  0  0  0  0
    7.1599    6.7133    7.0206 C   0  0  0  0  0  0  0  0  0  0  0  0
    7.3471    7.4831    8.1842 C   0  0  0  0  0  0  0  0  0  0  0  0
    8.3114    8.4804    8.2050 C   0  0  0  0  0  0  0  0  0  0  0  0
    9.0684    8.6969    7.0645 C   0  0  0  0  0  0  0  0  0  0  0  0
    8.8791    7.9361    5.9193 C   0  0  0  0  0  0  0  0  0  0  0  0
    9.9359    8.2873    4.3953 Br  0  0  0  0  0  0  0  0  0  0  0  0
    7.9195    6.9203    5.8806 C   0  0  0  0  0  0  0  0  0  0  0  0
    7.6812    5.9765    4.4754 Cl  0  0  0  0  0  0  0  0  0  0  0  0
    6.3918    7.0533    9.2011 C   0  0  0  0  0  0  0  0  0  0  0  0
    6.3408    7.5011   10.4916 C   0  0  0  0  0  0  0  0  0  0  0  0
    5.4140    7.0655   11.4645 C   0  0  0  0  0  0  0  0  0  0  0  0
    4.6991    6.7639   12.3100 N   0  0  0  0  0  0  0  0  0  0  0  0
    7.2360    8.4464   11.0385 C   0  0  0  0  0  0  0  0  0  0  0  0
    7.9361    9.2048   11.5394 N   0  0  0  0  0  0  0  0  0  0  0  0
    3.4071    4.8202    8.2730 C   0  0  0  0  0  0  0  0  0  0  0  0
    3.0412    5.0861    6.9684 C   0  0  0  0  0  0  0  0  0  0  0  0
    3.4207    6.2415    6.1158 C   0  0  0  0  0  0  0  0  0  0  0  0
    4.1517    7.1757    6.3558 O   0  0  0  0  0  0  0  0  0  0  0  0
    2.7237    6.0847    4.9404 N   0  0  0  0  0  0  0  0  0  0  0  0
    2.8570    6.9776    3.8095 C   0  0  0  0  0  0  0  0  0  0  0  0
    4.0326    6.5687    2.9299 C   0  0  0  0  0  0  0  0  0  0  0  0
    1.9322    4.9456    4.9231 C   0  0  0  0  0  0  0  0  0  0  0  0
    1.2346    4.6278    3.9898 O   0  0  0  0  0  0  0  0  0  0  0  0
    2.1165    4.3031    6.2399 C   0  0  0  0  0  0  0  0  0  0  0  0
    1.4755    3.1878    6.7651 C   0  0  0  0  0  0  0  0  0  0  0  0
    1.8261    2.8900    8.1181 C   0  0  0  0  0  0  0  0  0  0  0  0
    2.7481    3.7061    8.8616 C   0  0  0  0  0  0  0  0  0  0  0  0
    2.9391    3.2466   10.0947 N   0  0  0  0  0  0  0  0  0  0  0  0
    2.0627    1.9137   10.2957 S   0  0  0  0  0  0  0  0  0  0  0  0
    1.4072    1.8507    8.8325 N   0  0  0  0  0  0  0  0  0  0  0  0
    0.5662    2.3389    6.0542 C   0  0  0  0  0  0  0  0  0  0  0  0
   -0.5312    1.6601    6.5737 C   0  0  0  0  0  0  0  0  0  0  0  0
   -1.1225    1.8985    7.8879 C   0  0  0  0  0  0  0  0  0  0  0  0
   -1.2471    3.1930    8.3891 C   0  0  0  0  0  0  0  0  0  0  0  0
   -1.8287    3.4000    9.6243 C   0  0  0  0  0  0  0  0  0  0  0  0
   -2.3004    2.3283   10.3639 C   0  0  0  0  0  0  0  0  0  0  0  0
   -2.1977    1.0333    9.8730 C   0  0  0  0  0  0  0  0  0  0  0  0
   -2.7580   -0.1335   10.6334 C   0  0  0  0  0  0  0  0  0  0  0  0
   -4.1388   -0.5053   10.0886 C   0  0  0  0  0  0  0  0  0  0  0  0
   -1.6102    0.8316    8.6335 C   0  0  0  0  0  0  0  0  0  0  0  0
   -1.0839    0.7902    5.6203 C   0  0  0  0  0  0  0  0  0  0  0  0
   -2.4496   -0.3039    5.6540 S   0  0  0  0  0  0  0  0  0  0  0  0
   -2.1220   -0.7260    4.0075 C   0  0  0  0  0  0  0  0  0  0  0  0
   -2.5967   -1.5917    3.0138 C   0  0  0  0  0  0  0  0  0  0  0  0
   -3.6104   -2.5728    3.0676 C   0  0  0  0  0  0  0  0  0  0  0  0
   -3.8222   -3.4082    1.9245 C   0  0  0  0  0  0  0  0  0  0  0  0
   -4.7691   -4.3115    2.1246 N   0  0  0  0  0  0  0  0  0  0  0  0
   -5.3467   -4.1225    3.6255 S   0  0  0  0  0  0  0  0  0  0  0  0
   -4.4087   -2.8820    4.0774 N   0  0  0  0  0  0  0  0  0  0  0  0
   -3.0685   -3.1662    0.7557 C   0  0  0  0  0  0  0  0  0  0  0  0
   -3.1407   -3.7670   -0.5073 C   0  0  0  0  0  0  0  0  0  0  0  0
   -4.0046   -5.0276   -1.3184 S   0  0  0  0  0  0  0  0  0  0  0  0
   -3.1710   -4.6058   -2.8003 C   0  0  0  0  0  0  0  0  0  0  0  0
   -3.2021   -5.1539   -4.0925 C   0  0  0  0  0  0  0  0  0  0  0  0
   -3.9150   -6.3939   -4.3895 C   0  0  0  0  0  0  0  0  0  0  0  0
   -3.2811   -7.4206   -5.0877 C   0  0  0  0  0  0  0  0  0  0  0  0
   -3.9400   -8.6146   -5.3013 C   0  0  0  0  0  0  0  0  0  0  0  0
   -5.2241   -8.8006   -4.8177 C   0  0  0  0  0  0  0  0  0  0  0  0
   -5.8676   -7.7909   -4.1142 C   0  0  0  0  0  0  0  0  0  0  0  0
   -7.2360   -7.9978   -3.5335 C   0  0  0  0  0  0  0  0  0  0  0  0
   -7.1296   -8.3765   -2.0547 C   0  0  0  0  0  0  0  0  0  0  0  0
   -5.2021   -6.5931   -3.9039 C   0  0  0  0  0  0  0  0  0  0  0  0
   -2.3503   -4.4619   -4.9522 C   0  0  0  0  0  0  0  0  0  0  0  0
   -1.4193   -3.2249   -4.1238 S   0  0  0  0  0  0  0  0  0  0  0  0
   -2.2770   -3.5401   -2.6535 C   0  0  0  0  0  0  0  0  0  0  0  0
   -2.2499   -3.0767   -1.3346 C   0  0  0  0  0  0  0  0  0  0  0  0
   -1.6237   -2.0890   -0.6261 N   0  0  0  0  0  0  0  0  0  0  0  0
   -2.0883   -2.1292    0.6762 C   0  0  0  0  0  0  0  0  0  0  0  0
   -1.7901   -1.3856    1.8523 C   0  0  0  0  0  0  0  0  0  0  0  0
   -0.8273   -0.4450    2.1711 N   0  0  0  0  0  0  0  0  0  0  0  0
   -1.0312   -0.0449    3.4614 C   0  0  0  0  0  0  0  0  0  0  0  0
   -0.4260    0.8149    4.3844 C   0  0  0  0  0  0  0  0  0  0  0  0
    0.8836    1.9325    4.3844 S   0  0  0  0  0  0  0  0  0  0  0  0
    0.3323    0.0544    1.4707 C   0  0  0  0  0  0  0  0  0  0  0  0
    0.1040    1.4643    0.9236 C   0  0  0  0  0  0  0  0  0  0  0  0
   -0.7696   -1.1701   -1.3406 C   0  0  0  0  0  0  0  0  0  0  0  0
    0.6145   -1.7666   -1.6011 C   0  0  0  0  0  0  0  0  0  0  0  0
   -2.1760   -4.5852   -6.3627 C   0  0  0  0  0  0  0  0  0  0  0  0
   -3.1200   -5.0953   -7.2532 C   0  0  0  0  0  0  0  0  0  0  0  0
   -4.3459   -5.4487   -6.8347 F   0  0  0  0  0  0  0  0  0  0  0  0
   -2.8725   -5.1828   -8.6218 C   0  0  0  0  0  0  0  0  0  0  0  0
   -3.8493   -5.6635   -9.4056 F   0  0  0  0  0  0  0  0  0  0  0  0
   -1.7051   -4.7202   -9.2179 C   0  0  0  0  0  0  0  0  0  0  0  0
   -0.7134   -4.1869   -8.3428 C   0  0  0  0  0  0  0  0  0  0  0  0
    0.4955   -3.8472   -8.8091 N   0  0  0  0  0  0  0  0  0  0  0  0
    1.3718   -3.2876   -8.0125 C   0  0  0  0  0  0  0  0  0  0  0  0
    2.7060   -2.9629   -8.6118 C   0  0  0  0  0  0  0  0  0  0  0  0
    2.6927   -1.5542   -9.2101 C   0  0  0  0  0  0  0  0  0  0  0  0
    1.0349   -3.0045   -6.6602 C   0  0  0  0  0  0  0  0  0  0  0  0
   -0.0931   -3.4577   -6.1734 N   0  0  0  0  0  0  0  0  0  0  0  0
   -0.9772   -4.0788   -6.9584 C   0  0  0  0  0  0  0  0  0  0  0  0
    1.9270   -2.2881   -5.6942 C   0  0  0  0  0  0  0  0  0  0  0  0
    2.7090   -3.2980   -4.8504 C   0  0  0  0  0  0  0  0  0  0  0  0
   -1.4878   -4.8073  -10.6284 C   0  0  0  0  0  0  0  0  0  0  0  0
   -0.8354   -3.8516  -11.3460 C   0  0  0  0  0  0  0  0  0  0  0  0
   -0.6845   -2.4448  -10.8944 C   0  0  0  0  0  0  0  0  0  0  0  0
   -1.0880   -1.9406   -9.8711 O   0  0  0  0  0  0  0  0  0  0  0  0
   -0.0671   -1.7350  -12.0398 C   0  0  0  0  0  0  0  0  0  0  0  0
    0.1056   -2.6257  -13.1154 C   0  0  0  0  0  0  0  0  0  0  0  0
    0.6433   -2.1737  -14.3107 C   0  0  0  0  0  0  0  0  0  0  0  0
    1.0113   -0.8406  -14.4121 C   0  0  0  0  0  0  0  0  0  0  0  0
    0.8441    0.0335  -13.3484 C   0  0  0  0  0  0  0  0  0  0  0  0
    1.3781    1.8355  -13.5438 Br  0  0  0  0  0  0  0  0  0  0  0  0
    0.2891   -0.3993  -12.1395 C   0  0  0  0  0  0  0  0  0  0  0  0
    0.0677    0.6811  -10.8283 Cl  0  0  0  0  0  0  0  0  0  0  0  0
   -0.3514   -3.9512  -12.7064 C   0  0  0  0  0  0  0  0  0  0  0  0
   -0.2462   -5.0973  -13.4491 C   0  0  0  0  0  0  0  0  0  0  0  0
   -0.6014   -6.3853  -12.9927 C   0  0  0  0  0  0  0  0  0  0  0  0
   -0.8415   -7.4652  -12.6872 N   0  0  0  0  0  0  0  0  0  0  0  0
    0.2637   -5.1483  -14.7633 C   0  0  0  0  0  0  0  0  0  0  0  0
    0.6642   -5.2504  -15.8342 N   0  0  0  0  0  0  0  0  0  0  0  0
    4.0440    5.7731   10.0781 H   0  0  0  0  0  0  0  0  0  0  0  0
    8.4794    9.0900    9.0770 H   0  0  0  0  0  0  0  0  0  0  0  0
    9.8191    9.4723    7.0579 H   0  0  0  0  0  0  0  0  0  0  0  0
    3.0075    7.9858    4.2031 H   0  0  0  0  0  0  0  0  0  0  0  0
    1.9213    6.9313    3.2475 H   0  0  0  0  0  0  0  0  0  0  0  0
    4.1303    7.2602    2.0979 H   0  0  0  0  0  0  0  0  0  0  0  0
    3.8788    5.5654    2.5391 H   0  0  0  0  0  0  0  0  0  0  0  0
    4.9528    6.5840    3.5086 H   0  0  0  0  0  0  0  0  0  0  0  0
   -0.8978    4.0315    7.8033 H   0  0  0  0  0  0  0  0  0  0  0  0
   -1.9218    4.4043   10.0116 H   0  0  0  0  0  0  0  0  0  0  0  0
   -2.7557    2.5009   11.3283 H   0  0  0  0  0  0  0  0  0  0  0  0
   -2.8410    0.1164   11.6928 H   0  0  0  0  0  0  0  0  0  0  0  0
   -2.0910   -0.9923   10.5344 H   0  0  0  0  0  0  0  0  0  0  0  0
   -4.0726   -0.7656    9.0347 H   0  0  0  0  0  0  0  0  0  0  0  0
   -4.5459   -1.3543   10.6325 H   0  0  0  0  0  0  0  0  0  0  0  0
   -4.8234    0.3336   10.1912 H   0  0  0  0  0  0  0  0  0  0  0  0
   -1.5078   -0.1728    8.2510 H   0  0  0  0  0  0  0  0  0  0  0  0
   -2.2712   -7.2815   -5.4480 H   0  0  0  0  0  0  0  0  0  0  0  0
   -3.4483   -9.4078   -5.8451 H   0  0  0  0  0  0  0  0  0  0  0  0
   -5.7314   -9.7388   -4.9900 H   0  0  0  0  0  0  0  0  0  0  0  0
   -7.8190   -7.0795   -3.6279 H   0  0  0  0  0  0  0  0  0  0  0  0
   -7.7550   -8.7903   -4.0754 H   0  0  0  0  0  0  0  0  0  0  0  0
   -6.5645   -9.2991   -1.9410 H   0  0  0  0  0  0  0  0  0  0  0  0
   -8.1189   -8.5205   -1.6271 H   0  0  0  0  0  0  0  0  0  0  0  0
   -6.6199   -7.5932   -1.4983 H   0  0  0  0  0  0  0  0  0  0  0  0
   -5.7000   -5.7934   -3.3758 H   0  0  0  0  0  0  0  0  0  0  0  0
    1.1538    0.0927    2.1942 H   0  0  0  0  0  0  0  0  0  0  0  0
    0.6151   -0.6448    0.6896 H   0  0  0  0  0  0  0  0  0  0  0  0
    0.0251    2.1768    1.7403 H   0  0  0  0  0  0  0  0  0  0  0  0
   -0.8121    1.5215    0.3389 H   0  0  0  0  0  0  0  0  0  0  0  0
    0.9421    1.7565    0.2971 H   0  0  0  0  0  0  0  0  0  0  0  0
   -0.7128   -0.2279   -0.8039 H   0  0  0  0  0  0  0  0  0  0  0  0
   -1.2467   -0.9740   -2.3069 H   0  0  0  0  0  0  0  0  0  0  0  0
    1.2657   -1.0122   -2.0337 H   0  0  0  0  0  0  0  0  0  0  0  0
    1.0676   -2.1412   -0.6854 H   0  0  0  0  0  0  0  0  0  0  0  0
    0.5346   -2.5953   -2.2992 H   0  0  0  0  0  0  0  0  0  0  0  0
    3.4919   -3.0421   -7.8604 H   0  0  0  0  0  0  0  0  0  0  0  0
    2.9032   -3.6832   -9.4072 H   0  0  0  0  0  0  0  0  0  0  0  0
    2.4875   -0.8060   -8.4479 H   0  0  0  0  0  0  0  0  0  0  0  0
    3.6537   -1.3316   -9.6671 H   0  0  0  0  0  0  0  0  0  0  0  0
    1.9204   -1.4851   -9.9706 H   0  0  0  0  0  0  0  0  0  0  0  0
    1.2940   -1.6937   -5.0337 H   0  0  0  0  0  0  0  0  0  0  0  0
    2.6145   -1.6265   -6.2189 H   0  0  0  0  0  0  0  0  0  0  0  0
    3.3293   -2.7791   -4.1242 H   0  0  0  0  0  0  0  0  0  0  0  0
    3.3503   -3.9139   -5.4771 H   0  0  0  0  0  0  0  0  0  0  0  0
    2.0186   -3.9491   -4.3207 H   0  0  0  0  0  0  0  0  0  0  0  0
   -1.8791   -5.6870  -11.1232 H   0  0  0  0  0  0  0  0  0  0  0  0
    0.7775   -2.8275  -15.1561 H   0  0  0  0  0  0  0  0  0  0  0  0
    1.4348   -0.4693  -15.3326 H   0  0  0  0  0  0  0  0  0  0  0  0
  1  2  2  0  0  0  0
  2  3  1  0  0  0  0
  3  4  2  0  0  0  0
  3  5  1  0  0  0  0
  5  6  2  0  0  0  0
  6  7  1  0  0  0  0
  7  8  2  0  0  0  0
  8  9  1  0  0  0  0
  9 10  1  0  0  0  0
  9 11  2  0  0  0  0
 11 12  1  0  0  0  0
  6 13  1  0  0  0  0
 13 14  2  0  0  0  0
 14 15  1  0  0  0  0
 15 16  3  0  0  0  0
 14 17  1  0  0  0  0
 17 18  3  0  0  0  0
  1 19  1  0  0  0  0
 19 20  2  0  0  0  0
 20 21  1  0  0  0  0
 21 22  2  0  0  0  0
 21 23  1  0  0  0  0
 23 24  1  0  0  0  0
 24 25  1  0  0  0  0
 23 26  1  0  0  0  0
 26 27  2  0  0  0  0
 26 28  1  0  0  0  0
 28 29  2  0  0  0  0
 29 30  1  0  0  0  0
 30 31  1  0  0  0  0
 31 32  2  0  0  0  0
 32 33  1  0  0  0  0
 33 34  1  0  0  0  0
 29 35  1  0  0  0  0
 35 36  2  0  0  0  0
 36 37  1  0  0  0  0
 37 38  2  0  0  0  0
 38 39  1  0  0  0  0
 39 40  2  0  0  0  0
 40 41  1  0  0  0  0
 41 42  1  0  0  0  0
 42 43  1  0  0  0  0
 41 44  2  0  0  0  0
 36 45  1  0  0  0  0
 45 46  1  0  0  0  0
 46 47  1  0  0  0  0
 47 48  1  0  0  0  0
 48 49  1  0  0  0  0
 49 50  1  0  0  0  0
 50 51  2  0  0  0  0
 51 52  1  0  0  0  0
 52 53  1  0  0  0  0
 50 54  1  0  0  0  0
 54 55  1  0  0  0  0
 55 56  1  0  0  0  0
 56 57  1  0  0  0  0
 57 58  1  0  0  0  0
 58 59  1  0  0  0  0
 59 60  2  0  0  0  0
 60 61  1  0  0  0  0
 61 62  2  0  0  0  0
 62 63  1  0  0  0  0
 63 64  1  0  0  0  0
 64 65  1  0  0  0  0
 63 66  2  0  0  0  0
 58 67  2  0  0  0  0
 67 68  1  0  0  0  0
 68 69  1  0  0  0  0
 69 70  1  0  0  0  0
 70 71  1  0  0  0  0
 71 72  1  0  0  0  0
 72 73  1  0  0  0  0
 73 74  1  0  0  0  0
 74 75  1  0  0  0  0
 75 76  1  0  0  0  0
 76 77  1  0  0  0  0
 74 78  1  0  0  0  0
 78 79  1  0  0  0  0
 71 80  1  0  0  0  0
 80 81  1  0  0  0  0
 67 82  1  0  0  0  0
 82 83  2  0  0  0  0
 83 84  1  0  0  0  0
 83 85  1  0  0  0  0
 85 86  1  0  0  0  0
 85 87  2  0  0  0  0
 87 88  1  0  0  0  0
 88 89  2  0  0  0  0
 89 90  1  0  0  0  0
 90 91  1  0  0  0  0
 91 92  1  0  0  0  0
 90 93  2  0  0  0  0
 93 94  1  0  0  0  0
 94 95  2  0  0  0  0
 93 96  1  0  0  0  0
 96 97  1  0  0  0  0
 87 98  1  0  0  0  0
 98 99  2  0  0  0  0
 99100  1  0  0  0  0
100101  2  0  0  0  0
100102  1  0  0  0  0
102103  2  0  0  0  0
103104  1  0  0  0  0
104105  2  0  0  0  0
105106  1  0  0  0  0
106107  1  0  0  0  0
106108  2  0  0  0  0
108109  1  0  0  0  0
103110  1  0  0  0  0
110111  2  0  0  0  0
111112  1  0  0  0  0
112113  3  0  0  0  0
111114  1  0  0  0  0
114115  3  0  0  0  0
 13  2  1  0  0  0  0
 31 19  1  0  0  0  0
 77 35  1  0  0  0  0
 95 82  1  0  0  0  0
110 99  1  0  0  0  0
 11  5  1  0  0  0  0
 28 20  1  0  0  0  0
 34 30  2  0  0  0  0
 44 37  1  0  0  0  0
 76 45  2  0  0  0  0
 95 88  1  0  0  0  0
108102  1  0  0  0  0
 75 47  2  0  0  0  0
 73 48  2  0  0  0  0
 53 49  2  0  0  0  0
 72 54  2  0  0  0  0
 70 55  2  0  0  0  0
 69 57  2  0  0  0  0
 66 59  1  0  0  0  0
  1116  1  0  0  0  0
  7117  1  0  0  0  0
  8118  1  0  0  0  0
 24119  1  0  0  0  0
 24120  1  0  0  0  0
 25121  1  0  0  0  0
 25122  1  0  0  0  0
 25123  1  0  0  0  0
 38124  1  0  0  0  0
 39125  1  0  0  0  0
 40126  1  0  0  0  0
 42127  1  0  0  0  0
 42128  1  0  0  0  0
 43129  1  0  0  0  0
 43130  1  0  0  0  0
 43131  1  0  0  0  0
 44132  1  0  0  0  0
 60133  1  0  0  0  0
 61134  1  0  0  0  0
 62135  1  0  0  0  0
 64136  1  0  0  0  0
 64137  1  0  0  0  0
 65138  1  0  0  0  0
 65139  1  0  0  0  0
 65140  1  0  0  0  0
 66141  1  0  0  0  0
 78142  1  0  0  0  0
 78143  1  0  0  0  0
 79144  1  0  0  0  0
 79145  1  0  0  0  0
 79146  1  0  0  0  0
 80147  1  0  0  0  0
 80148  1  0  0  0  0
 81149  1  0  0  0  0
 81150  1  0  0  0  0
 81151  1  0  0  0  0
 91152  1  0  0  0  0
 91153  1  0  0  0  0
 92154  1  0  0  0  0
 92155  1  0  0  0  0
 92156  1  0  0  0  0
 96157  1  0  0  0  0
 96158  1  0  0  0  0
 97159  1  0  0  0  0
 97160  1  0  0  0  0
 97161  1  0  0  0  0
 98162  1  0  0  0  0
104163  1  0  0  0  0
105164  1  0  0  0  0
M  END
