
  xtb     02062209053D
 energy: -299.525904843601 gnorm: 0.000983528564 xtb: 6.4.1 (unknown)
161179  0     0  0            999 V2000
    6.3962   -3.5404  -10.0811 C   0  0  0  0  0  0  0  0  0  0  0  0
    6.9728   -4.6633  -10.6348 C   0  0  0  0  0  0  0  0  0  0  0  0
    7.6780   -5.7053   -9.8915 C   0  0  0  0  0  0  0  0  0  0  0  0
    7.9781   -5.6889   -8.7088 O   0  0  0  0  0  0  0  0  0  0  0  0
    8.0776   -6.7175  -10.8935 C   0  0  0  0  0  0  0  0  0  0  0  0
    7.7288   -6.2590  -12.1775 C   0  0  0  0  0  0  0  0  0  0  0  0
    8.0214   -7.0291  -13.2907 C   0  0  0  0  0  0  0  0  0  0  0  0
    8.6571   -8.2491  -13.1061 C   0  0  0  0  0  0  0  0  0  0  0  0
    8.9957   -8.6967  -11.8392 C   0  0  0  0  0  0  0  0  0  0  0  0
    9.8548  -10.3684  -11.6546 Br  0  0  0  0  0  0  0  0  0  0  0  0
    8.7125   -7.9323  -10.7011 C   0  0  0  0  0  0  0  0  0  0  0  0
    9.1178   -8.4844   -9.1317 Cl  0  0  0  0  0  0  0  0  0  0  0  0
    7.0693   -4.9583  -12.0459 C   0  0  0  0  0  0  0  0  0  0  0  0
    6.6138   -4.1961  -13.0923 C   0  0  0  0  0  0  0  0  0  0  0  0
    6.7354   -4.5576  -14.4503 C   0  0  0  0  0  0  0  0  0  0  0  0
    6.8055   -4.7845  -15.5736 N   0  0  0  0  0  0  0  0  0  0  0  0
    5.9735   -2.9449  -12.9818 C   0  0  0  0  0  0  0  0  0  0  0  0
    5.4461   -1.9240  -12.9868 N   0  0  0  0  0  0  0  0  0  0  0  0
    6.0440   -3.2951   -8.7536 C   0  0  0  0  0  0  0  0  0  0  0  0
    5.5937   -1.6313   -8.3750 S   0  0  0  0  0  0  0  0  0  0  0  0
    5.1622   -2.0036   -6.7377 C   0  0  0  0  0  0  0  0  0  0  0  0
    5.3477   -3.3709   -6.4908 C   0  0  0  0  0  0  0  0  0  0  0  0
    5.1225   -4.2216   -5.3854 C   0  0  0  0  0  0  0  0  0  0  0  0
    5.3961   -5.5236   -5.6865 C   0  0  0  0  0  0  0  0  0  0  0  0
    5.2987   -6.6988   -4.8186 C   0  0  0  0  0  0  0  0  0  0  0  0
    5.5341   -7.8245   -5.1824 O   0  0  0  0  0  0  0  0  0  0  0  0
    4.9056   -6.3676   -3.5791 O   0  0  0  0  0  0  0  0  0  0  0  0
    4.8126   -7.4371   -2.6360 C   0  0  0  0  0  0  0  0  0  0  0  0
    6.1724   -7.7754   -2.0420 C   0  0  0  0  0  0  0  0  0  0  0  0
    5.9733   -5.7686   -7.3189 S   0  0  0  0  0  0  0  0  0  0  0  0
    5.8482   -4.0824   -7.6185 C   0  0  0  0  0  0  0  0  0  0  0  0
    4.6541   -1.0105   -5.8742 C   0  0  0  0  0  0  0  0  0  0  0  0
    4.5126    0.3470   -6.1445 C   0  0  0  0  0  0  0  0  0  0  0  0
    4.9378    0.9828   -7.4016 C   0  0  0  0  0  0  0  0  0  0  0  0
    6.2431    1.4363   -7.5540 C   0  0  0  0  0  0  0  0  0  0  0  0
    6.6295    2.0069   -8.7523 C   0  0  0  0  0  0  0  0  0  0  0  0
    5.7274    2.1187   -9.7956 C   0  0  0  0  0  0  0  0  0  0  0  0
    4.4159    1.6852   -9.6510 C   0  0  0  0  0  0  0  0  0  0  0  0
    3.4427    1.7544  -10.7902 C   0  0  0  0  0  0  0  0  0  0  0  0
    3.3428    0.3942  -11.4844 C   0  0  0  0  0  0  0  0  0  0  0  0
    4.0284    1.1261   -8.4415 C   0  0  0  0  0  0  0  0  0  0  0  0
    3.9046    1.0265   -5.0862 C   0  0  0  0  0  0  0  0  0  0  0  0
    3.4528    2.6996   -4.8639 S   0  0  0  0  0  0  0  0  0  0  0  0
    2.7910    2.2844   -3.3197 C   0  0  0  0  0  0  0  0  0  0  0  0
    2.1249    2.9015   -2.2486 C   0  0  0  0  0  0  0  0  0  0  0  0
    1.8195    4.2543   -1.9791 C   0  0  0  0  0  0  0  0  0  0  0  0
    1.1676    4.5876   -0.7437 C   0  0  0  0  0  0  0  0  0  0  0  0
    0.9925    5.8919   -0.6019 N   0  0  0  0  0  0  0  0  0  0  0  0
    1.5898    6.6364   -1.9088 S   0  0  0  0  0  0  0  0  0  0  0  0
    2.0953    5.3237   -2.7085 N   0  0  0  0  0  0  0  0  0  0  0  0
    0.7260    3.5434    0.1000 C   0  0  0  0  0  0  0  0  0  0  0  0
   -0.1229    3.5482    1.2169 C   0  0  0  0  0  0  0  0  0  0  0  0
   -0.9667    4.6868    2.2096 S   0  0  0  0  0  0  0  0  0  0  0  0
   -1.7290    3.3543    3.0419 C   0  0  0  0  0  0  0  0  0  0  0  0
   -2.7052    3.3084    4.0520 C   0  0  0  0  0  0  0  0  0  0  0  0
   -3.3685    4.4944    4.5916 C   0  0  0  0  0  0  0  0  0  0  0  0
   -4.7594    4.5681    4.6190 C   0  0  0  0  0  0  0  0  0  0  0  0
   -5.3767    5.6957    5.1236 C   0  0  0  0  0  0  0  0  0  0  0  0
   -4.6180    6.7436    5.6158 C   0  0  0  0  0  0  0  0  0  0  0  0
   -3.2304    6.6897    5.5853 C   0  0  0  0  0  0  0  0  0  0  0  0
   -2.4036    7.7891    6.1846 C   0  0  0  0  0  0  0  0  0  0  0  0
   -2.0477    7.4340    7.6300 C   0  0  0  0  0  0  0  0  0  0  0  0
   -2.6148    5.5660    5.0555 C   0  0  0  0  0  0  0  0  0  0  0  0
   -3.0257    1.9991    4.3788 C   0  0  0  0  0  0  0  0  0  0  0  0
   -2.1552    0.8284    3.3961 S   0  0  0  0  0  0  0  0  0  0  0  0
   -1.3281    2.0997    2.5692 C   0  0  0  0  0  0  0  0  0  0  0  0
   -0.3990    2.2114    1.5285 C   0  0  0  0  0  0  0  0  0  0  0  0
    0.2746    1.3837    0.6701 N   0  0  0  0  0  0  0  0  0  0  0  0
    0.9843    2.1787   -0.2101 C   0  0  0  0  0  0  0  0  0  0  0  0
    1.8145    1.8727   -1.3162 C   0  0  0  0  0  0  0  0  0  0  0  0
    2.3412    0.6767   -1.7756 N   0  0  0  0  0  0  0  0  0  0  0  0
    2.9192    0.9280   -2.9950 C   0  0  0  0  0  0  0  0  0  0  0  0
    3.5672    0.2070   -3.9992 C   0  0  0  0  0  0  0  0  0  0  0  0
    4.0335   -1.4311   -4.2785 S   0  0  0  0  0  0  0  0  0  0  0  0
    2.8123   -0.4480   -0.9954 C   0  0  0  0  0  0  0  0  0  0  0  0
    4.3004   -0.3122   -0.6727 C   0  0  0  0  0  0  0  0  0  0  0  0
   -0.0907   -0.0122    0.5651 C   0  0  0  0  0  0  0  0  0  0  0  0
    0.4702   -0.8443    1.7180 C   0  0  0  0  0  0  0  0  0  0  0  0
   -3.8896    1.5121    5.3928 C   0  0  0  0  0  0  0  0  0  0  0  0
   -4.6012   -0.0700    5.2441 S   0  0  0  0  0  0  0  0  0  0  0  0
   -5.4862    0.0687    6.7477 C   0  0  0  0  0  0  0  0  0  0  0  0
   -5.1584    1.2773    7.3720 C   0  0  0  0  0  0  0  0  0  0  0  0
   -5.4061    1.8432    8.6426 C   0  0  0  0  0  0  0  0  0  0  0  0
   -4.7737    3.0416    8.7987 C   0  0  0  0  0  0  0  0  0  0  0  0
   -4.8376    3.9080    9.9797 C   0  0  0  0  0  0  0  0  0  0  0  0
   -5.3347    3.5894   11.0307 O   0  0  0  0  0  0  0  0  0  0  0  0
   -4.2823    5.0989    9.7223 O   0  0  0  0  0  0  0  0  0  0  0  0
   -4.2345    6.0478   10.7877 C   0  0  0  0  0  0  0  0  0  0  0  0
   -2.8704    6.0325   11.4614 C   0  0  0  0  0  0  0  0  0  0  0  0
   -3.8245    3.5349    7.4232 S   0  0  0  0  0  0  0  0  0  0  0  0
   -4.2788    2.0807    6.5966 C   0  0  0  0  0  0  0  0  0  0  0  0
   -6.3204   -0.9882    7.1341 C   0  0  0  0  0  0  0  0  0  0  0  0
   -7.4265   -0.9024    7.9449 C   0  0  0  0  0  0  0  0  0  0  0  0
   -8.1960    0.3382    8.1894 C   0  0  0  0  0  0  0  0  0  0  0  0
   -7.9403    1.4622    7.8055 O   0  0  0  0  0  0  0  0  0  0  0  0
   -9.4196   -0.0901    8.8938 C   0  0  0  0  0  0  0  0  0  0  0  0
  -10.4546    0.6773    9.3425 C   0  0  0  0  0  0  0  0  0  0  0  0
  -11.5427    0.0534    9.9934 C   0  0  0  0  0  0  0  0  0  0  0  0
  -12.6341    0.7983   10.4842 C   0  0  0  0  0  0  0  0  0  0  0  0
  -13.6846    0.1824   11.1061 C   0  0  0  0  0  0  0  0  0  0  0  0
  -13.6633   -1.2110   11.2519 C   0  0  0  0  0  0  0  0  0  0  0  0
  -14.7069   -1.7996   11.8652 F   0  0  0  0  0  0  0  0  0  0  0  0
  -12.6290   -1.9804   10.7964 C   0  0  0  0  0  0  0  0  0  0  0  0
  -11.5383   -1.3624   10.1546 C   0  0  0  0  0  0  0  0  0  0  0  0
  -10.4515   -2.1318    9.6761 C   0  0  0  0  0  0  0  0  0  0  0  0
   -9.4041   -1.5037    9.0580 C   0  0  0  0  0  0  0  0  0  0  0  0
   -8.1653   -2.0205    8.4832 C   0  0  0  0  0  0  0  0  0  0  0  0
   -7.7487   -3.3282    8.5240 C   0  0  0  0  0  0  0  0  0  0  0  0
   -6.5053   -3.7923    8.0491 C   0  0  0  0  0  0  0  0  0  0  0  0
   -5.5091   -4.2419    7.6947 N   0  0  0  0  0  0  0  0  0  0  0  0
   -8.5061   -4.3814    9.0745 C   0  0  0  0  0  0  0  0  0  0  0  0
   -9.0786   -5.2812    9.5003 N   0  0  0  0  0  0  0  0  0  0  0  0
    6.1633   -2.7224  -10.7510 H   0  0  0  0  0  0  0  0  0  0  0  0
    7.7697   -6.7086  -14.2876 H   0  0  0  0  0  0  0  0  0  0  0  0
    8.8934   -8.8648  -13.9601 H   0  0  0  0  0  0  0  0  0  0  0  0
    4.7764   -3.9087   -4.4183 H   0  0  0  0  0  0  0  0  0  0  0  0
    4.1240   -7.0762   -1.8692 H   0  0  0  0  0  0  0  0  0  0  0  0
    4.3901   -8.3149   -3.1357 H   0  0  0  0  0  0  0  0  0  0  0  0
    6.8351   -8.1445   -2.8207 H   0  0  0  0  0  0  0  0  0  0  0  0
    6.0574   -8.5455   -1.2848 H   0  0  0  0  0  0  0  0  0  0  0  0
    6.6164   -6.8922   -1.5885 H   0  0  0  0  0  0  0  0  0  0  0  0
    6.9453    1.3343   -6.7399 H   0  0  0  0  0  0  0  0  0  0  0  0
    7.6425    2.3601   -8.8743 H   0  0  0  0  0  0  0  0  0  0  0  0
    6.0436    2.5500  -10.7339 H   0  0  0  0  0  0  0  0  0  0  0  0
    3.7673    2.5058  -11.5115 H   0  0  0  0  0  0  0  0  0  0  0  0
    2.4575    2.0418  -10.4159 H   0  0  0  0  0  0  0  0  0  0  0  0
    3.0149   -0.3683  -10.7812 H   0  0  0  0  0  0  0  0  0  0  0  0
    4.3067    0.0941  -11.8856 H   0  0  0  0  0  0  0  0  0  0  0  0
    2.6288    0.4398  -12.3028 H   0  0  0  0  0  0  0  0  0  0  0  0
    3.0123    0.7827   -8.3081 H   0  0  0  0  0  0  0  0  0  0  0  0
   -5.3481    3.7463    4.2388 H   0  0  0  0  0  0  0  0  0  0  0  0
   -6.4547    5.7528    5.1420 H   0  0  0  0  0  0  0  0  0  0  0  0
   -5.1084    7.6148    6.0253 H   0  0  0  0  0  0  0  0  0  0  0  0
   -1.4871    7.9247    5.6073 H   0  0  0  0  0  0  0  0  0  0  0  0
   -2.9617    8.7269    6.1682 H   0  0  0  0  0  0  0  0  0  0  0  0
   -1.4509    6.5252    7.6589 H   0  0  0  0  0  0  0  0  0  0  0  0
   -2.9533    7.2599    8.2060 H   0  0  0  0  0  0  0  0  0  0  0  0
   -1.4829    8.2396    8.0936 H   0  0  0  0  0  0  0  0  0  0  0  0
   -1.5365    5.5076    5.0274 H   0  0  0  0  0  0  0  0  0  0  0  0
    2.2610   -0.4986   -0.0639 H   0  0  0  0  0  0  0  0  0  0  0  0
    2.6390   -1.3617   -1.5727 H   0  0  0  0  0  0  0  0  0  0  0  0
    4.6172   -1.1502   -0.0581 H   0  0  0  0  0  0  0  0  0  0  0  0
    4.8980   -0.3052   -1.5799 H   0  0  0  0  0  0  0  0  0  0  0  0
    4.4842    0.6114   -0.1277 H   0  0  0  0  0  0  0  0  0  0  0  0
   -1.1846   -0.0730    0.5951 H   0  0  0  0  0  0  0  0  0  0  0  0
    0.2332   -0.3906   -0.4049 H   0  0  0  0  0  0  0  0  0  0  0  0
    1.5437   -0.7088    1.8298 H   0  0  0  0  0  0  0  0  0  0  0  0
    0.2650   -1.8966    1.5434 H   0  0  0  0  0  0  0  0  0  0  0  0
   -0.0011   -0.5545    2.6529 H   0  0  0  0  0  0  0  0  0  0  0  0
   -6.0019    1.4020    9.4182 H   0  0  0  0  0  0  0  0  0  0  0  0
   -5.0231    5.8075   11.5080 H   0  0  0  0  0  0  0  0  0  0  0  0
   -4.4346    7.0192   10.3290 H   0  0  0  0  0  0  0  0  0  0  0  0
   -2.0891    6.2280   10.7308 H   0  0  0  0  0  0  0  0  0  0  0  0
   -2.8371    6.7965   12.2326 H   0  0  0  0  0  0  0  0  0  0  0  0
   -2.6912    5.0624   11.9190 H   0  0  0  0  0  0  0  0  0  0  0  0
   -6.0829   -1.9491    6.6932 H   0  0  0  0  0  0  0  0  0  0  0  0
  -10.4413    1.7484    9.2068 H   0  0  0  0  0  0  0  0  0  0  0  0
  -12.6275    1.8707   10.3598 H   0  0  0  0  0  0  0  0  0  0  0  0
  -14.5274    0.7373   11.4867 H   0  0  0  0  0  0  0  0  0  0  0  0
  -12.6451   -3.0511   10.9276 H   0  0  0  0  0  0  0  0  0  0  0  0
  -10.4796   -3.2014    9.8089 H   0  0  0  0  0  0  0  0  0  0  0  0
  1  2  2  0  0  0  0
  2  3  1  0  0  0  0
  3  4  2  0  0  0  0
  3  5  1  0  0  0  0
  5  6  2  0  0  0  0
  6  7  1  0  0  0  0
  7  8  2  0  0  0  0
  8  9  1  0  0  0  0
  9 10  1  0  0  0  0
  9 11  2  0  0  0  0
 11 12  1  0  0  0  0
  6 13  1  0  0  0  0
 13 14  2  0  0  0  0
 14 15  1  0  0  0  0
 15 16  3  0  0  0  0
 14 17  1  0  0  0  0
 17 18  3  0  0  0  0
  1 19  1  0  0  0  0
 19 20  1  0  0  0  0
 20 21  1  0  0  0  0
 21 22  2  0  0  0  0
 22 23  1  0  0  0  0
 23 24  2  0  0  0  0
 24 25  1  0  0  0  0
 25 26  2  0  0  0  0
 25 27  1  0  0  0  0
 27 28  1  0  0  0  0
 28 29  1  0  0  0  0
 24 30  1  0  0  0  0
 30 31  1  0  0  0  0
 21 32  1  0  0  0  0
 32 33  2  0  0  0  0
 33 34  1  0  0  0  0
 34 35  2  0  0  0  0
 35 36  1  0  0  0  0
 36 37  2  0  0  0  0
 37 38  1  0  0  0  0
 38 39  1  0  0  0  0
 39 40  1  0  0  0  0
 38 41  2  0  0  0  0
 33 42  1  0  0  0  0
 42 43  1  0  0  0  0
 43 44  1  0  0  0  0
 44 45  1  0  0  0  0
 45 46  1  0  0  0  0
 46 47  1  0  0  0  0
 47 48  2  0  0  0  0
 48 49  1  0  0  0  0
 49 50  1  0  0  0  0
 47 51  1  0  0  0  0
 51 52  1  0  0  0  0
 52 53  1  0  0  0  0
 53 54  1  0  0  0  0
 54 55  1  0  0  0  0
 55 56  1  0  0  0  0
 56 57  2  0  0  0  0
 57 58  1  0  0  0  0
 58 59  2  0  0  0  0
 59 60  1  0  0  0  0
 60 61  1  0  0  0  0
 61 62  1  0  0  0  0
 60 63  2  0  0  0  0
 55 64  2  0  0  0  0
 64 65  1  0  0  0  0
 65 66  1  0  0  0  0
 66 67  1  0  0  0  0
 67 68  1  0  0  0  0
 68 69  1  0  0  0  0
 69 70  1  0  0  0  0
 70 71  1  0  0  0  0
 71 72  1  0  0  0  0
 72 73  1  0  0  0  0
 73 74  1  0  0  0  0
 71 75  1  0  0  0  0
 75 76  1  0  0  0  0
 68 77  1  0  0  0  0
 77 78  1  0  0  0  0
 64 79  1  0  0  0  0
 79 80  1  0  0  0  0
 80 81  1  0  0  0  0
 81 82  2  0  0  0  0
 82 83  1  0  0  0  0
 83 84  2  0  0  0  0
 84 85  1  0  0  0  0
 85 86  2  0  0  0  0
 85 87  1  0  0  0  0
 87 88  1  0  0  0  0
 88 89  1  0  0  0  0
 84 90  1  0  0  0  0
 90 91  1  0  0  0  0
 81 92  1  0  0  0  0
 92 93  2  0  0  0  0
 93 94  1  0  0  0  0
 94 95  2  0  0  0  0
 94 96  1  0  0  0  0
 96 97  2  0  0  0  0
 97 98  1  0  0  0  0
 98 99  2  0  0  0  0
 99100  1  0  0  0  0
100101  2  0  0  0  0
101102  1  0  0  0  0
101103  1  0  0  0  0
103104  2  0  0  0  0
104105  1  0  0  0  0
105106  2  0  0  0  0
106107  1  0  0  0  0
107108  2  0  0  0  0
108109  1  0  0  0  0
109110  3  0  0  0  0
108111  1  0  0  0  0
111112  3  0  0  0  0
 13  2  1  0  0  0  0
 31 19  2  0  0  0  0
 74 32  1  0  0  0  0
 91 79  2  0  0  0  0
107 93  1  0  0  0  0
 11  5  1  0  0  0  0
 31 22  1  0  0  0  0
 41 34  1  0  0  0  0
 73 42  2  0  0  0  0
 91 82  1  0  0  0  0
106 96  1  0  0  0  0
 72 44  2  0  0  0  0
104 98  1  0  0  0  0
 70 45  2  0  0  0  0
 50 46  2  0  0  0  0
 69 51  2  0  0  0  0
 67 52  2  0  0  0  0
 66 54  2  0  0  0  0
 63 56  1  0  0  0  0
  1113  1  0  0  0  0
  7114  1  0  0  0  0
  8115  1  0  0  0  0
 23116  1  0  0  0  0
 28117  1  0  0  0  0
 28118  1  0  0  0  0
 29119  1  0  0  0  0
 29120  1  0  0  0  0
 29121  1  0  0  0  0
 35122  1  0  0  0  0
 36123  1  0  0  0  0
 37124  1  0  0  0  0
 39125  1  0  0  0  0
 39126  1  0  0  0  0
 40127  1  0  0  0  0
 40128  1  0  0  0  0
 40129  1  0  0  0  0
 41130  1  0  0  0  0
 57131  1  0  0  0  0
 58132  1  0  0  0  0
 59133  1  0  0  0  0
 61134  1  0  0  0  0
 61135  1  0  0  0  0
 62136  1  0  0  0  0
 62137  1  0  0  0  0
 62138  1  0  0  0  0
 63139  1  0  0  0  0
 75140  1  0  0  0  0
 75141  1  0  0  0  0
 76142  1  0  0  0  0
 76143  1  0  0  0  0
 76144  1  0  0  0  0
 77145  1  0  0  0  0
 77146  1  0  0  0  0
 78147  1  0  0  0  0
 78148  1  0  0  0  0
 78149  1  0  0  0  0
 83150  1  0  0  0  0
 88151  1  0  0  0  0
 88152  1  0  0  0  0
 89153  1  0  0  0  0
 89154  1  0  0  0  0
 89155  1  0  0  0  0
 92156  1  0  0  0  0
 97157  1  0  0  0  0
 99158  1  0  0  0  0
100159  1  0  0  0  0
103160  1  0  0  0  0
105161  1  0  0  0  0
M  END
