
  xtb     02062211043D
 energy: -234.003182654818 gnorm: 0.000608639273 xtb: 6.4.1 (unknown)
127141  0     0  0            999 V2000
    3.4599    5.2900    7.4958 C   0  0  0  0  0  0  0  0  0  0  0  0
    3.7946    6.2817    6.6078 C   0  0  0  0  0  0  0  0  0  0  0  0
    3.4729    6.1836    5.1696 C   0  0  0  0  0  0  0  0  0  0  0  0
    2.8986    5.2793    4.6038 O   0  0  0  0  0  0  0  0  0  0  0  0
    4.0046    7.4298    4.5672 C   0  0  0  0  0  0  0  0  0  0  0  0
    4.5992    8.2188    5.5699 C   0  0  0  0  0  0  0  0  0  0  0  0
    5.1706    9.4382    5.2433 C   0  0  0  0  0  0  0  0  0  0  0  0
    5.1402    9.8541    3.9202 C   0  0  0  0  0  0  0  0  0  0  0  0
    4.5529    9.0742    2.9360 C   0  0  0  0  0  0  0  0  0  0  0  0
    4.5436    9.6958    1.1510 Br  0  0  0  0  0  0  0  0  0  0  0  0
    3.9711    7.8401    3.2451 C   0  0  0  0  0  0  0  0  0  0  0  0
    3.2446    6.8727    2.0341 Cl  0  0  0  0  0  0  0  0  0  0  0  0
    4.4781    7.5262    6.8542 C   0  0  0  0  0  0  0  0  0  0  0  0
    4.9356    7.9983    8.0589 C   0  0  0  0  0  0  0  0  0  0  0  0
    5.5978    9.2305    8.2325 C   0  0  0  0  0  0  0  0  0  0  0  0
    6.1435   10.2194    8.4387 N   0  0  0  0  0  0  0  0  0  0  0  0
    4.8015    7.3188    9.2871 C   0  0  0  0  0  0  0  0  0  0  0  0
    4.7234    6.8164   10.3167 N   0  0  0  0  0  0  0  0  0  0  0  0
    2.8053    4.1544    7.0946 C   0  0  0  0  0  0  0  0  0  0  0  0
    2.2193    3.1223    6.8001 C   0  0  0  0  0  0  0  0  0  0  0  0
    1.5833    2.0375    6.2585 C   0  0  0  0  0  0  0  0  0  0  0  0
    1.1292    0.8732    6.8825 C   0  0  0  0  0  0  0  0  0  0  0  0
    1.1936    0.6373    8.3186 C   0  0  0  0  0  0  0  0  0  0  0  0
    1.0627    1.6884    9.2268 C   0  0  0  0  0  0  0  0  0  0  0  0
    1.1075    1.4361   10.5837 C   0  0  0  0  0  0  0  0  0  0  0  0
    1.2809    0.1444   11.0517 C   0  0  0  0  0  0  0  0  0  0  0  0
    1.4175   -0.9152   10.1633 C   0  0  0  0  0  0  0  0  0  0  0  0
    1.5601   -2.3263   10.6550 C   0  0  0  0  0  0  0  0  0  0  0  0
    0.1967   -3.0206   10.6753 C   0  0  0  0  0  0  0  0  0  0  0  0
    1.3705   -0.6573    8.8026 C   0  0  0  0  0  0  0  0  0  0  0  0
    0.5981   -0.0177    5.9367 C   0  0  0  0  0  0  0  0  0  0  0  0
   -0.1363   -1.6023    6.0709 S   0  0  0  0  0  0  0  0  0  0  0  0
   -0.3919   -1.6094    4.3612 C   0  0  0  0  0  0  0  0  0  0  0  0
   -0.9555   -2.4292    3.3726 C   0  0  0  0  0  0  0  0  0  0  0  0
   -1.6942   -3.6308    3.4597 C   0  0  0  0  0  0  0  0  0  0  0  0
   -2.3157   -4.1558    2.2760 C   0  0  0  0  0  0  0  0  0  0  0  0
   -3.0371   -5.2378    2.5225 N   0  0  0  0  0  0  0  0  0  0  0  0
   -2.9370   -5.5743    4.1025 S   0  0  0  0  0  0  0  0  0  0  0  0
   -1.9724   -4.3490    4.5362 N   0  0  0  0  0  0  0  0  0  0  0  0
   -2.0565   -3.5320    1.0354 C   0  0  0  0  0  0  0  0  0  0  0  0
   -2.4252   -3.8611   -0.2797 C   0  0  0  0  0  0  0  0  0  0  0  0
   -3.4036   -5.0112   -1.1233 S   0  0  0  0  0  0  0  0  0  0  0  0
   -2.9258   -4.2806   -2.6424 C   0  0  0  0  0  0  0  0  0  0  0  0
   -3.2131   -4.5806   -3.9846 C   0  0  0  0  0  0  0  0  0  0  0  0
   -4.0613   -5.6747   -4.4394 C   0  0  0  0  0  0  0  0  0  0  0  0
   -3.7895   -6.3475   -5.6310 C   0  0  0  0  0  0  0  0  0  0  0  0
   -4.5950   -7.3959   -6.0297 C   0  0  0  0  0  0  0  0  0  0  0  0
   -5.6722   -7.7877   -5.2527 C   0  0  0  0  0  0  0  0  0  0  0  0
   -5.9610   -7.1284   -4.0644 C   0  0  0  0  0  0  0  0  0  0  0  0
   -7.0952   -7.5717   -3.1864 C   0  0  0  0  0  0  0  0  0  0  0  0
   -6.5780   -8.4913   -2.0782 C   0  0  0  0  0  0  0  0  0  0  0  0
   -5.1500   -6.0766   -3.6686 C   0  0  0  0  0  0  0  0  0  0  0  0
   -2.5571   -3.6903   -4.8360 C   0  0  0  0  0  0  0  0  0  0  0  0
   -1.5766   -2.5013   -3.9799 S   0  0  0  0  0  0  0  0  0  0  0  0
   -2.0464   -3.2014   -2.4757 C   0  0  0  0  0  0  0  0  0  0  0  0
   -1.7663   -2.9646   -1.1265 C   0  0  0  0  0  0  0  0  0  0  0  0
   -1.0155   -2.0841   -0.3905 N   0  0  0  0  0  0  0  0  0  0  0  0
   -1.2044   -2.3963    0.9445 C   0  0  0  0  0  0  0  0  0  0  0  0
   -0.7749   -1.7546    2.1318 C   0  0  0  0  0  0  0  0  0  0  0  0
   -0.1709   -0.5316    2.3730 N   0  0  0  0  0  0  0  0  0  0  0  0
    0.0652   -0.4526    3.7212 C   0  0  0  0  0  0  0  0  0  0  0  0
    0.6248    0.4628    4.6182 C   0  0  0  0  0  0  0  0  0  0  0  0
    1.3343    2.0315    4.5120 S   0  0  0  0  0  0  0  0  0  0  0  0
   -0.1887    0.6840    1.5814 C   0  0  0  0  0  0  0  0  0  0  0  0
   -1.5570    0.9578    0.9682 C   0  0  0  0  0  0  0  0  0  0  0  0
    0.1371   -1.4564   -0.9994 C   0  0  0  0  0  0  0  0  0  0  0  0
    1.1590   -2.4988   -1.4521 C   0  0  0  0  0  0  0  0  0  0  0  0
   -2.6186   -3.5981   -6.2030 C   0  0  0  0  0  0  0  0  0  0  0  0
   -2.5665   -3.3617   -7.4004 C   0  0  0  0  0  0  0  0  0  0  0  0
   -2.5608   -3.1784   -8.7614 C   0  0  0  0  0  0  0  0  0  0  0  0
   -1.8534   -2.1656   -9.3526 C   0  0  0  0  0  0  0  0  0  0  0  0
   -1.0705   -1.1857   -8.5648 C   0  0  0  0  0  0  0  0  0  0  0  0
   -0.9281   -1.1585   -7.3599 O   0  0  0  0  0  0  0  0  0  0  0  0
   -0.5056   -0.2477   -9.5542 C   0  0  0  0  0  0  0  0  0  0  0  0
    0.2833    0.8453   -9.3431 C   0  0  0  0  0  0  0  0  0  0  0  0
    0.7104    1.6126  -10.4497 C   0  0  0  0  0  0  0  0  0  0  0  0
    1.5261    2.7511  -10.2884 C   0  0  0  0  0  0  0  0  0  0  0  0
    1.9312    3.4860  -11.3677 C   0  0  0  0  0  0  0  0  0  0  0  0
    1.5224    3.0909  -12.6487 C   0  0  0  0  0  0  0  0  0  0  0  0
    1.9308    3.8272  -13.6986 F   0  0  0  0  0  0  0  0  0  0  0  0
    0.7324    1.9957  -12.8610 C   0  0  0  0  0  0  0  0  0  0  0  0
    0.3060    1.2269  -11.7605 C   0  0  0  0  0  0  0  0  0  0  0  0
   -0.5115    0.0879  -11.9488 C   0  0  0  0  0  0  0  0  0  0  0  0
   -0.9120   -0.6413  -10.8612 C   0  0  0  0  0  0  0  0  0  0  0  0
   -1.7407   -1.8413  -10.7553 C   0  0  0  0  0  0  0  0  0  0  0  0
   -2.2885   -2.5283  -11.8094 C   0  0  0  0  0  0  0  0  0  0  0  0
   -3.0672   -3.6968  -11.6879 C   0  0  0  0  0  0  0  0  0  0  0  0
   -3.7045   -4.6519  -11.6525 N   0  0  0  0  0  0  0  0  0  0  0  0
   -2.1353   -2.1613  -13.1618 C   0  0  0  0  0  0  0  0  0  0  0  0
   -2.0506   -1.9157  -14.2803 N   0  0  0  0  0  0  0  0  0  0  0  0
    3.7072    5.3732    8.5458 H   0  0  0  0  0  0  0  0  0  0  0  0
    5.6342   10.0662    5.9855 H   0  0  0  0  0  0  0  0  0  0  0  0
    5.5800   10.8005    3.6456 H   0  0  0  0  0  0  0  0  0  0  0  0
    0.9049    2.6933    8.8665 H   0  0  0  0  0  0  0  0  0  0  0  0
    1.0008    2.2521   11.2827 H   0  0  0  0  0  0  0  0  0  0  0  0
    1.3113   -0.0430   12.1152 H   0  0  0  0  0  0  0  0  0  0  0  0
    1.9833   -2.3284   11.6611 H   0  0  0  0  0  0  0  0  0  0  0  0
    2.2341   -2.8799    9.9982 H   0  0  0  0  0  0  0  0  0  0  0  0
    0.2973   -4.0432   11.0309 H   0  0  0  0  0  0  0  0  0  0  0  0
   -0.2333   -3.0400    9.6765 H   0  0  0  0  0  0  0  0  0  0  0  0
   -0.4880   -2.4900   11.3332 H   0  0  0  0  0  0  0  0  0  0  0  0
    1.4961   -1.4744    8.1079 H   0  0  0  0  0  0  0  0  0  0  0  0
   -2.9376   -6.0606   -6.2278 H   0  0  0  0  0  0  0  0  0  0  0  0
   -4.3781   -7.9158   -6.9509 H   0  0  0  0  0  0  0  0  0  0  0  0
   -6.2941   -8.6116   -5.5713 H   0  0  0  0  0  0  0  0  0  0  0  0
   -7.5749   -6.7010   -2.7348 H   0  0  0  0  0  0  0  0  0  0  0  0
   -7.8401   -8.1034   -3.7811 H   0  0  0  0  0  0  0  0  0  0  0  0
   -6.1091   -9.3738   -2.5078 H   0  0  0  0  0  0  0  0  0  0  0  0
   -7.3962   -8.8102   -1.4369 H   0  0  0  0  0  0  0  0  0  0  0  0
   -5.8403   -7.9731   -1.4698 H   0  0  0  0  0  0  0  0  0  0  0  0
   -5.3823   -5.5480   -2.7560 H   0  0  0  0  0  0  0  0  0  0  0  0
    0.5874    0.6702    0.8106 H   0  0  0  0  0  0  0  0  0  0  0  0
    0.0659    1.4972    2.2657 H   0  0  0  0  0  0  0  0  0  0  0  0
   -1.8336    0.1928    0.2488 H   0  0  0  0  0  0  0  0  0  0  0  0
   -1.5390    1.9189    0.4619 H   0  0  0  0  0  0  0  0  0  0  0  0
   -2.3154    0.9899    1.7471 H   0  0  0  0  0  0  0  0  0  0  0  0
   -0.2025   -0.8688   -1.8577 H   0  0  0  0  0  0  0  0  0  0  0  0
    0.6095   -0.8011   -0.2757 H   0  0  0  0  0  0  0  0  0  0  0  0
    0.7399   -3.1512   -2.2131 H   0  0  0  0  0  0  0  0  0  0  0  0
    2.0279   -1.9981   -1.8698 H   0  0  0  0  0  0  0  0  0  0  0  0
    1.4769   -3.1067   -0.6074 H   0  0  0  0  0  0  0  0  0  0  0  0
   -3.1481   -3.8707   -9.3503 H   0  0  0  0  0  0  0  0  0  0  0  0
    0.5778    1.1223   -8.3418 H   0  0  0  0  0  0  0  0  0  0  0  0
    1.8279    3.0356   -9.2916 H   0  0  0  0  0  0  0  0  0  0  0  0
    2.5549    4.3594  -11.2617 H   0  0  0  0  0  0  0  0  0  0  0  0
    0.4371    1.7206  -13.8616 H   0  0  0  0  0  0  0  0  0  0  0  0
   -0.8004   -0.1765  -12.9533 H   0  0  0  0  0  0  0  0  0  0  0  0
  1  2  2  0  0  0  0
  2  3  1  0  0  0  0
  3  4  2  0  0  0  0
  3  5  1  0  0  0  0
  5  6  2  0  0  0  0
  6  7  1  0  0  0  0
  7  8  2  0  0  0  0
  8  9  1  0  0  0  0
  9 10  1  0  0  0  0
  9 11  2  0  0  0  0
 11 12  1  0  0  0  0
  6 13  1  0  0  0  0
 13 14  2  0  0  0  0
 14 15  1  0  0  0  0
 15 16  3  0  0  0  0
 14 17  1  0  0  0  0
 17 18  3  0  0  0  0
  1 19  1  0  0  0  0
 19 20  3  0  0  0  0
 20 21  1  0  0  0  0
 21 22  2  0  0  0  0
 22 23  1  0  0  0  0
 23 24  2  0  0  0  0
 24 25  1  0  0  0  0
 25 26  2  0  0  0  0
 26 27  1  0  0  0  0
 27 28  1  0  0  0  0
 28 29  1  0  0  0  0
 27 30  2  0  0  0  0
 22 31  1  0  0  0  0
 31 32  1  0  0  0  0
 32 33  1  0  0  0  0
 33 34  1  0  0  0  0
 34 35  1  0  0  0  0
 35 36  1  0  0  0  0
 36 37  2  0  0  0  0
 37 38  1  0  0  0  0
 38 39  1  0  0  0  0
 36 40  1  0  0  0  0
 40 41  1  0  0  0  0
 41 42  1  0  0  0  0
 42 43  1  0  0  0  0
 43 44  1  0  0  0  0
 44 45  1  0  0  0  0
 45 46  2  0  0  0  0
 46 47  1  0  0  0  0
 47 48  2  0  0  0  0
 48 49  1  0  0  0  0
 49 50  1  0  0  0  0
 50 51  1  0  0  0  0
 49 52  2  0  0  0  0
 44 53  2  0  0  0  0
 53 54  1  0  0  0  0
 54 55  1  0  0  0  0
 55 56  1  0  0  0  0
 56 57  1  0  0  0  0
 57 58  1  0  0  0  0
 58 59  1  0  0  0  0
 59 60  1  0  0  0  0
 60 61  1  0  0  0  0
 61 62  1  0  0  0  0
 62 63  1  0  0  0  0
 60 64  1  0  0  0  0
 64 65  1  0  0  0  0
 57 66  1  0  0  0  0
 66 67  1  0  0  0  0
 53 68  1  0  0  0  0
 68 69  3  0  0  0  0
 69 70  1  0  0  0  0
 70 71  2  0  0  0  0
 71 72  1  0  0  0  0
 72 73  2  0  0  0  0
 72 74  1  0  0  0  0
 74 75  2  0  0  0  0
 75 76  1  0  0  0  0
 76 77  2  0  0  0  0
 77 78  1  0  0  0  0
 78 79  2  0  0  0  0
 79 80  1  0  0  0  0
 79 81  1  0  0  0  0
 81 82  2  0  0  0  0
 82 83  1  0  0  0  0
 83 84  2  0  0  0  0
 84 85  1  0  0  0  0
 85 86  2  0  0  0  0
 86 87  1  0  0  0  0
 87 88  3  0  0  0  0
 86 89  1  0  0  0  0
 89 90  3  0  0  0  0
 13  2  1  0  0  0  0
 63 21  1  0  0  0  0
 85 71  1  0  0  0  0
 11  5  1  0  0  0  0
 30 23  1  0  0  0  0
 62 31  2  0  0  0  0
 84 74  1  0  0  0  0
 61 33  2  0  0  0  0
 82 76  1  0  0  0  0
 59 34  2  0  0  0  0
 39 35  2  0  0  0  0
 58 40  2  0  0  0  0
 56 41  2  0  0  0  0
 55 43  2  0  0  0  0
 52 45  1  0  0  0  0
  1 91  1  0  0  0  0
  7 92  1  0  0  0  0
  8 93  1  0  0  0  0
 24 94  1  0  0  0  0
 25 95  1  0  0  0  0
 26 96  1  0  0  0  0
 28 97  1  0  0  0  0
 28 98  1  0  0  0  0
 29 99  1  0  0  0  0
 29100  1  0  0  0  0
 29101  1  0  0  0  0
 30102  1  0  0  0  0
 46103  1  0  0  0  0
 47104  1  0  0  0  0
 48105  1  0  0  0  0
 50106  1  0  0  0  0
 50107  1  0  0  0  0
 51108  1  0  0  0  0
 51109  1  0  0  0  0
 51110  1  0  0  0  0
 52111  1  0  0  0  0
 64112  1  0  0  0  0
 64113  1  0  0  0  0
 65114  1  0  0  0  0
 65115  1  0  0  0  0
 65116  1  0  0  0  0
 66117  1  0  0  0  0
 66118  1  0  0  0  0
 67119  1  0  0  0  0
 67120  1  0  0  0  0
 67121  1  0  0  0  0
 70122  1  0  0  0  0
 75123  1  0  0  0  0
 77124  1  0  0  0  0
 78125  1  0  0  0  0
 81126  1  0  0  0  0
 83127  1  0  0  0  0
M  END
