
  xtb     02062201353D
 energy: -338.925703668384 gnorm: 0.000243894865 xtb: 6.4.1 (unknown)
196215  0     0  0            999 V2000
    4.8795    8.1696    9.4946 C   0  0  0  0  0  0  0  0  0  0  0  0
    4.0119    8.3146   10.5320 C   0  0  0  0  0  0  0  0  0  0  0  0
    2.7254    7.5781   10.6543 C   0  0  0  0  0  0  0  0  0  0  0  0
    2.2679    6.7607    9.8910 O   0  0  0  0  0  0  0  0  0  0  0  0
    2.1914    7.9485   11.9846 C   0  0  0  0  0  0  0  0  0  0  0  0
    3.0982    8.8014   12.6410 C   0  0  0  0  0  0  0  0  0  0  0  0
    2.8120    9.2674   13.9152 C   0  0  0  0  0  0  0  0  0  0  0  0
    1.6221    8.8802   14.5126 C   0  0  0  0  0  0  0  0  0  0  0  0
    0.7302    8.0423   13.8603 C   0  0  0  0  0  0  0  0  0  0  0  0
   -0.8763    7.5572   14.7265 Br  0  0  0  0  0  0  0  0  0  0  0  0
    1.0029    7.5531   12.5780 C   0  0  0  0  0  0  0  0  0  0  0  0
   -0.0929    6.5177   11.7700 Cl  0  0  0  0  0  0  0  0  0  0  0  0
    4.2432    9.0388   11.7657 C   0  0  0  0  0  0  0  0  0  0  0  0
    5.3110    9.8486   12.0495 C   0  0  0  0  0  0  0  0  0  0  0  0
    5.4779   10.5461   13.2646 C   0  0  0  0  0  0  0  0  0  0  0  0
    5.6759   11.1324   14.2313 N   0  0  0  0  0  0  0  0  0  0  0  0
    6.3910   10.1064   11.1775 C   0  0  0  0  0  0  0  0  0  0  0  0
    7.3016   10.3788   10.5334 N   0  0  0  0  0  0  0  0  0  0  0  0
    4.5717    7.5757    8.2298 C   0  0  0  0  0  0  0  0  0  0  0  0
    3.3679    7.7365    7.5577 C   0  0  0  0  0  0  0  0  0  0  0  0
    2.4414    8.5822    8.0237 F   0  0  0  0  0  0  0  0  0  0  0  0
    3.1111    7.1086    6.3423 C   0  0  0  0  0  0  0  0  0  0  0  0
    1.9098    7.3513    5.7859 F   0  0  0  0  0  0  0  0  0  0  0  0
    4.0201    6.2657    5.7006 C   0  0  0  0  0  0  0  0  0  0  0  0
    5.3126    6.1680    6.3229 C   0  0  0  0  0  0  0  0  0  0  0  0
    6.2985    5.4672    5.7426 N   0  0  0  0  0  0  0  0  0  0  0  0
    7.4788    5.3858    6.3089 C   0  0  0  0  0  0  0  0  0  0  0  0
    8.4953    4.5527    5.5879 C   0  0  0  0  0  0  0  0  0  0  0  0
    8.4177    3.0993    6.0634 C   0  0  0  0  0  0  0  0  0  0  0  0
    7.7268    6.0217    7.5544 C   0  0  0  0  0  0  0  0  0  0  0  0
    6.7765    6.7078    8.1409 N   0  0  0  0  0  0  0  0  0  0  0  0
    5.5736    6.8174    7.5559 C   0  0  0  0  0  0  0  0  0  0  0  0
    9.0544    6.0130    8.2466 C   0  0  0  0  0  0  0  0  0  0  0  0
    9.8839    7.2186    7.7950 C   0  0  0  0  0  0  0  0  0  0  0  0
    3.6741    5.5372    4.5217 C   0  0  0  0  0  0  0  0  0  0  0  0
    4.4651    4.6434    3.8185 C   0  0  0  0  0  0  0  0  0  0  0  0
    3.7769    4.0351    2.7783 C   0  0  0  0  0  0  0  0  0  0  0  0
    4.1926    2.7958    1.6255 S   0  0  0  0  0  0  0  0  0  0  0  0
    2.5688    2.8378    1.0251 C   0  0  0  0  0  0  0  0  0  0  0  0
    1.8153    2.0721    0.0812 C   0  0  0  0  0  0  0  0  0  0  0  0
    2.1747    0.9848   -0.7113 C   0  0  0  0  0  0  0  0  0  0  0  0
    1.1725    0.3695   -1.4233 C   0  0  0  0  0  0  0  0  0  0  0  0
    1.2661   -0.8653   -2.3061 C   0  0  0  0  0  0  0  0  0  0  0  0
    1.9098   -0.5774   -3.6547 C   0  0  0  0  0  0  0  0  0  0  0  0
    2.3268   -1.6325   -4.4567 C   0  0  0  0  0  0  0  0  0  0  0  0
    2.8527   -1.3962   -5.7119 C   0  0  0  0  0  0  0  0  0  0  0  0
    2.9696   -0.1027   -6.2045 C   0  0  0  0  0  0  0  0  0  0  0  0
    3.5813    0.1544   -7.5513 C   0  0  0  0  0  0  0  0  0  0  0  0
    5.0976    0.3172   -7.4273 C   0  0  0  0  0  0  0  0  0  0  0  0
    2.5479    0.9476   -5.4012 C   0  0  0  0  0  0  0  0  0  0  0  0
    2.0183    0.7163   -4.1445 C   0  0  0  0  0  0  0  0  0  0  0  0
    1.9750   -1.9729   -1.5580 C   0  0  0  0  0  0  0  0  0  0  0  0
    1.2666   -2.8986   -0.8053 C   0  0  0  0  0  0  0  0  0  0  0  0
    1.9314   -3.8830   -0.0974 C   0  0  0  0  0  0  0  0  0  0  0  0
    3.3173   -3.9606   -0.1111 C   0  0  0  0  0  0  0  0  0  0  0  0
    4.0330   -5.0602    0.6186 C   0  0  0  0  0  0  0  0  0  0  0  0
    4.1803   -6.2893   -0.2808 C   0  0  0  0  0  0  0  0  0  0  0  0
    4.0226   -3.0238   -0.8555 C   0  0  0  0  0  0  0  0  0  0  0  0
    3.3630   -2.0409   -1.5681 C   0  0  0  0  0  0  0  0  0  0  0  0
   -0.1924   -1.1266   -2.5797 C   0  0  0  0  0  0  0  0  0  0  0  0
   -0.9641   -0.1108   -2.0708 C   0  0  0  0  0  0  0  0  0  0  0  0
   -0.1642    0.8248   -1.3385 C   0  0  0  0  0  0  0  0  0  0  0  0
   -0.5150    1.9411   -0.5873 C   0  0  0  0  0  0  0  0  0  0  0  0
    0.4895    2.5636    0.1174 C   0  0  0  0  0  0  0  0  0  0  0  0
    0.3738    3.7456    1.0640 C   0  0  0  0  0  0  0  0  0  0  0  0
    0.1876    5.0765    0.3526 C   0  0  0  0  0  0  0  0  0  0  0  0
    0.3286    5.2065   -1.0207 C   0  0  0  0  0  0  0  0  0  0  0  0
    0.2023    6.4469   -1.6208 C   0  0  0  0  0  0  0  0  0  0  0  0
   -0.0538    7.5838   -0.8673 C   0  0  0  0  0  0  0  0  0  0  0  0
   -0.2327    8.9207   -1.5270 C   0  0  0  0  0  0  0  0  0  0  0  0
   -1.7036    9.1482   -1.8814 C   0  0  0  0  0  0  0  0  0  0  0  0
   -0.1862    7.4474    0.5093 C   0  0  0  0  0  0  0  0  0  0  0  0
   -0.0650    6.2119    1.1137 C   0  0  0  0  0  0  0  0  0  0  0  0
   -0.7322    3.4897    2.0663 C   0  0  0  0  0  0  0  0  0  0  0  0
   -2.0366    3.8656    1.7714 C   0  0  0  0  0  0  0  0  0  0  0  0
   -3.0592    3.6055    2.6631 C   0  0  0  0  0  0  0  0  0  0  0  0
   -2.8083    2.9650    3.8697 C   0  0  0  0  0  0  0  0  0  0  0  0
   -3.9291    2.6521    4.8185 C   0  0  0  0  0  0  0  0  0  0  0  0
   -4.5539    1.2974    4.4788 C   0  0  0  0  0  0  0  0  0  0  0  0
   -1.5055    2.5791    4.1528 C   0  0  0  0  0  0  0  0  0  0  0  0
   -0.4791    2.8329    3.2618 C   0  0  0  0  0  0  0  0  0  0  0  0
    1.7576    3.7659    1.6556 C   0  0  0  0  0  0  0  0  0  0  0  0
    2.4399    4.4568    2.6538 C   0  0  0  0  0  0  0  0  0  0  0  0
    2.0476    5.6333    3.8397 S   0  0  0  0  0  0  0  0  0  0  0  0
   -2.6720   -0.3137   -2.3527 S   0  0  0  0  0  0  0  0  0  0  0  0
   -2.3298   -1.8085   -3.1427 C   0  0  0  0  0  0  0  0  0  0  0  0
   -3.3527   -3.0418   -3.7763 S   0  0  0  0  0  0  0  0  0  0  0  0
   -1.9325   -4.0131   -4.1514 C   0  0  0  0  0  0  0  0  0  0  0  0
   -0.7600   -3.3851   -3.7981 C   0  0  0  0  0  0  0  0  0  0  0  0
   -0.9654   -2.1286   -3.2065 C   0  0  0  0  0  0  0  0  0  0  0  0
   -2.1031   -5.3224   -4.7025 C   0  0  0  0  0  0  0  0  0  0  0  0
   -1.0645   -6.1535   -5.1099 C   0  0  0  0  0  0  0  0  0  0  0  0
    0.2157   -5.7493   -5.0342 F   0  0  0  0  0  0  0  0  0  0  0  0
   -1.2912   -7.4299   -5.6287 C   0  0  0  0  0  0  0  0  0  0  0  0
   -0.2268   -8.1432   -6.0223 F   0  0  0  0  0  0  0  0  0  0  0  0
   -2.5593   -7.9688   -5.7867 C   0  0  0  0  0  0  0  0  0  0  0  0
   -3.6480   -7.1698   -5.3304 C   0  0  0  0  0  0  0  0  0  0  0  0
   -4.8916   -7.6715   -5.2978 N   0  0  0  0  0  0  0  0  0  0  0  0
   -5.8971   -6.9172   -4.9369 C   0  0  0  0  0  0  0  0  0  0  0  0
   -7.2356   -7.5841   -4.8477 C   0  0  0  0  0  0  0  0  0  0  0  0
   -7.4916   -8.0668   -3.4174 C   0  0  0  0  0  0  0  0  0  0  0  0
   -5.6819   -5.5527   -4.5859 C   0  0  0  0  0  0  0  0  0  0  0  0
   -4.4595   -5.0951   -4.5095 N   0  0  0  0  0  0  0  0  0  0  0  0
   -3.4170   -5.8629   -4.8434 C   0  0  0  0  0  0  0  0  0  0  0  0
   -6.7815   -4.5758   -4.3155 C   0  0  0  0  0  0  0  0  0  0  0  0
   -7.2466   -3.9526   -5.6349 C   0  0  0  0  0  0  0  0  0  0  0  0
   -2.7704   -9.3043   -6.2672 C   0  0  0  0  0  0  0  0  0  0  0  0
   -3.8843   -9.6759   -6.9450 C   0  0  0  0  0  0  0  0  0  0  0  0
   -4.8308   -8.7221   -7.5953 C   0  0  0  0  0  0  0  0  0  0  0  0
   -4.6118   -7.5814   -7.9404 O   0  0  0  0  0  0  0  0  0  0  0  0
   -6.0256   -9.5260   -7.9195 C   0  0  0  0  0  0  0  0  0  0  0  0
   -7.2320   -9.1101   -8.4034 C   0  0  0  0  0  0  0  0  0  0  0  0
   -8.2448  -10.0641   -8.6470 C   0  0  0  0  0  0  0  0  0  0  0  0
   -9.5140   -9.6874   -9.1321 C   0  0  0  0  0  0  0  0  0  0  0  0
  -10.4845  -10.6213   -9.3651 C   0  0  0  0  0  0  0  0  0  0  0  0
  -10.2020  -11.9711   -9.1127 C   0  0  0  0  0  0  0  0  0  0  0  0
  -11.1710  -12.8743   -9.3458 F   0  0  0  0  0  0  0  0  0  0  0  0
   -8.9892  -12.3905   -8.6423 C   0  0  0  0  0  0  0  0  0  0  0  0
   -7.9766  -11.4417   -8.3972 C   0  0  0  0  0  0  0  0  0  0  0  0
   -6.7118  -11.8451   -7.9116 C   0  0  0  0  0  0  0  0  0  0  0  0
   -5.7480  -10.9004   -7.6733 C   0  0  0  0  0  0  0  0  0  0  0  0
   -4.3867  -11.0225   -7.1585 C   0  0  0  0  0  0  0  0  0  0  0  0
   -3.7340  -12.1971   -6.9008 C   0  0  0  0  0  0  0  0  0  0  0  0
   -4.2905  -13.4759   -7.1181 C   0  0  0  0  0  0  0  0  0  0  0  0
   -4.6857  -14.5421   -7.2744 N   0  0  0  0  0  0  0  0  0  0  0  0
   -2.4163  -12.3033   -6.4056 C   0  0  0  0  0  0  0  0  0  0  0  0
   -1.3563  -12.4726   -5.9994 N   0  0  0  0  0  0  0  0  0  0  0  0
    5.9149    8.4608    9.6107 H   0  0  0  0  0  0  0  0  0  0  0  0
    3.4869    9.9160   14.4480 H   0  0  0  0  0  0  0  0  0  0  0  0
    1.3792    9.2334   15.5029 H   0  0  0  0  0  0  0  0  0  0  0  0
    9.4986    4.9450    5.7509 H   0  0  0  0  0  0  0  0  0  0  0  0
    8.2735    4.5900    4.5204 H   0  0  0  0  0  0  0  0  0  0  0  0
    9.1445    2.4922    5.5297 H   0  0  0  0  0  0  0  0  0  0  0  0
    8.6209    3.0274    7.1298 H   0  0  0  0  0  0  0  0  0  0  0  0
    7.4246    2.6980    5.8768 H   0  0  0  0  0  0  0  0  0  0  0  0
    8.8772    6.0905    9.3198 H   0  0  0  0  0  0  0  0  0  0  0  0
    9.5940    5.0889    8.0416 H   0  0  0  0  0  0  0  0  0  0  0  0
   10.8482    7.2157    8.2962 H   0  0  0  0  0  0  0  0  0  0  0  0
    9.3644    8.1398    8.0455 H   0  0  0  0  0  0  0  0  0  0  0  0
   10.0503    7.1965    6.7198 H   0  0  0  0  0  0  0  0  0  0  0  0
    5.4866    4.4523    4.0842 H   0  0  0  0  0  0  0  0  0  0  0  0
    3.1932    0.6292   -0.7332 H   0  0  0  0  0  0  0  0  0  0  0  0
    2.2508   -2.6460   -4.0921 H   0  0  0  0  0  0  0  0  0  0  0  0
    3.1714   -2.2305   -6.3202 H   0  0  0  0  0  0  0  0  0  0  0  0
    3.3630   -0.6792   -8.2218 H   0  0  0  0  0  0  0  0  0  0  0  0
    3.1562    1.0622   -7.9843 H   0  0  0  0  0  0  0  0  0  0  0  0
    5.3360    1.1516   -6.7713 H   0  0  0  0  0  0  0  0  0  0  0  0
    5.5415   -0.5837   -7.0098 H   0  0  0  0  0  0  0  0  0  0  0  0
    5.5416    0.5037   -8.4024 H   0  0  0  0  0  0  0  0  0  0  0  0
    2.6283    1.9624   -5.7645 H   0  0  0  0  0  0  0  0  0  0  0  0
    1.6897    1.5512   -3.5429 H   0  0  0  0  0  0  0  0  0  0  0  0
    0.1878   -2.8533   -0.7708 H   0  0  0  0  0  0  0  0  0  0  0  0
    1.3630   -4.5998    0.4781 H   0  0  0  0  0  0  0  0  0  0  0  0
    5.0234   -4.7177    0.9254 H   0  0  0  0  0  0  0  0  0  0  0  0
    3.4734   -5.3352    1.5151 H   0  0  0  0  0  0  0  0  0  0  0  0
    3.2024   -6.6533   -0.5877 H   0  0  0  0  0  0  0  0  0  0  0  0
    4.6985   -7.0870    0.2461 H   0  0  0  0  0  0  0  0  0  0  0  0
    4.7465   -6.0379   -1.1749 H   0  0  0  0  0  0  0  0  0  0  0  0
    5.1024   -3.0637   -0.8773 H   0  0  0  0  0  0  0  0  0  0  0  0
    3.9301   -1.3279   -2.1493 H   0  0  0  0  0  0  0  0  0  0  0  0
   -1.5384    2.2803   -0.5402 H   0  0  0  0  0  0  0  0  0  0  0  0
    0.5360    4.3379   -1.6285 H   0  0  0  0  0  0  0  0  0  0  0  0
    0.3107    6.5309   -2.6930 H   0  0  0  0  0  0  0  0  0  0  0  0
    0.1014    9.7126   -0.8538 H   0  0  0  0  0  0  0  0  0  0  0  0
    0.3685    8.9687   -2.4372 H   0  0  0  0  0  0  0  0  0  0  0  0
   -2.3175    9.1168   -0.9840 H   0  0  0  0  0  0  0  0  0  0  0  0
   -2.0527    8.3744   -2.5617 H   0  0  0  0  0  0  0  0  0  0  0  0
   -1.8352   10.1163   -2.3590 H   0  0  0  0  0  0  0  0  0  0  0  0
   -0.3811    8.3194    1.1167 H   0  0  0  0  0  0  0  0  0  0  0  0
   -0.1715    6.1246    2.1853 H   0  0  0  0  0  0  0  0  0  0  0  0
   -2.2503    4.3771    0.8438 H   0  0  0  0  0  0  0  0  0  0  0  0
   -4.0675    3.9103    2.4208 H   0  0  0  0  0  0  0  0  0  0  0  0
   -3.5518    2.6283    5.8426 H   0  0  0  0  0  0  0  0  0  0  0  0
   -4.6952    3.4275    4.7545 H   0  0  0  0  0  0  0  0  0  0  0  0
   -3.8085    0.5085    4.5508 H   0  0  0  0  0  0  0  0  0  0  0  0
   -4.9453    1.3051    3.4638 H   0  0  0  0  0  0  0  0  0  0  0  0
   -5.3677    1.0708    5.1637 H   0  0  0  0  0  0  0  0  0  0  0  0
   -1.2886    2.0761    5.0844 H   0  0  0  0  0  0  0  0  0  0  0  0
    0.5260    2.5178    3.5028 H   0  0  0  0  0  0  0  0  0  0  0  0
    0.2138   -3.8152   -3.9288 H   0  0  0  0  0  0  0  0  0  0  0  0
   -7.2332   -8.4435   -5.5196 H   0  0  0  0  0  0  0  0  0  0  0  0
   -8.0251   -6.8991   -5.1562 H   0  0  0  0  0  0  0  0  0  0  0  0
   -6.7240   -8.7775   -3.1215 H   0  0  0  0  0  0  0  0  0  0  0  0
   -8.4601   -8.5565   -3.3570 H   0  0  0  0  0  0  0  0  0  0  0  0
   -7.4779   -7.2353   -2.7161 H   0  0  0  0  0  0  0  0  0  0  0  0
   -6.3857   -3.7907   -3.6709 H   0  0  0  0  0  0  0  0  0  0  0  0
   -7.6198   -5.0603   -3.8160 H   0  0  0  0  0  0  0  0  0  0  0  0
   -6.4201   -3.4294   -6.1084 H   0  0  0  0  0  0  0  0  0  0  0  0
   -8.0486   -3.2430   -5.4495 H   0  0  0  0  0  0  0  0  0  0  0  0
   -7.6071   -4.7167   -6.3204 H   0  0  0  0  0  0  0  0  0  0  0  0
   -2.0163  -10.0329   -5.9993 H   0  0  0  0  0  0  0  0  0  0  0  0
   -7.4144   -8.0623   -8.5910 H   0  0  0  0  0  0  0  0  0  0  0  0
   -9.7075   -8.6420   -9.3207 H   0  0  0  0  0  0  0  0  0  0  0  0
  -11.4596  -10.3503   -9.7378 H   0  0  0  0  0  0  0  0  0  0  0  0
   -8.8059  -13.4380   -8.4608 H   0  0  0  0  0  0  0  0  0  0  0  0
   -6.5397  -12.8949   -7.7364 H   0  0  0  0  0  0  0  0  0  0  0  0
  1  2  2  0  0  0  0
  2  3  1  0  0  0  0
  3  4  2  0  0  0  0
  3  5  1  0  0  0  0
  5  6  2  0  0  0  0
  6  7  1  0  0  0  0
  7  8  2  0  0  0  0
  8  9  1  0  0  0  0
  9 10  1  0  0  0  0
  9 11  2  0  0  0  0
 11 12  1  0  0  0  0
  6 13  1  0  0  0  0
 13 14  2  0  0  0  0
 14 15  1  0  0  0  0
 15 16  3  0  0  0  0
 14 17  1  0  0  0  0
 17 18  3  0  0  0  0
  1 19  1  0  0  0  0
 19 20  2  0  0  0  0
 20 21  1  0  0  0  0
 20 22  1  0  0  0  0
 22 23  1  0  0  0  0
 22 24  2  0  0  0  0
 24 25  1  0  0  0  0
 25 26  2  0  0  0  0
 26 27  1  0  0  0  0
 27 28  1  0  0  0  0
 28 29  1  0  0  0  0
 27 30  2  0  0  0  0
 30 31  1  0  0  0  0
 31 32  2  0  0  0  0
 30 33  1  0  0  0  0
 33 34  1  0  0  0  0
 24 35  1  0  0  0  0
 35 36  2  0  0  0  0
 36 37  1  0  0  0  0
 37 38  1  0  0  0  0
 38 39  1  0  0  0  0
 39 40  1  0  0  0  0
 40 41  2  0  0  0  0
 41 42  1  0  0  0  0
 42 43  1  0  0  0  0
 43 44  1  0  0  0  0
 44 45  2  0  0  0  0
 45 46  1  0  0  0  0
 46 47  2  0  0  0  0
 47 48  1  0  0  0  0
 48 49  1  0  0  0  0
 47 50  1  0  0  0  0
 50 51  2  0  0  0  0
 43 52  1  0  0  0  0
 52 53  2  0  0  0  0
 53 54  1  0  0  0  0
 54 55  2  0  0  0  0
 55 56  1  0  0  0  0
 56 57  1  0  0  0  0
 55 58  1  0  0  0  0
 58 59  2  0  0  0  0
 43 60  1  0  0  0  0
 60 61  2  0  0  0  0
 61 62  1  0  0  0  0
 62 63  1  0  0  0  0
 63 64  2  0  0  0  0
 64 65  1  0  0  0  0
 65 66  1  0  0  0  0
 66 67  2  0  0  0  0
 67 68  1  0  0  0  0
 68 69  2  0  0  0  0
 69 70  1  0  0  0  0
 70 71  1  0  0  0  0
 69 72  1  0  0  0  0
 72 73  2  0  0  0  0
 65 74  1  0  0  0  0
 74 75  2  0  0  0  0
 75 76  1  0  0  0  0
 76 77  2  0  0  0  0
 77 78  1  0  0  0  0
 78 79  1  0  0  0  0
 77 80  1  0  0  0  0
 80 81  2  0  0  0  0
 65 82  1  0  0  0  0
 82 83  1  0  0  0  0
 83 84  1  0  0  0  0
 61 85  1  0  0  0  0
 85 86  1  0  0  0  0
 86 87  1  0  0  0  0
 87 88  1  0  0  0  0
 88 89  2  0  0  0  0
 89 90  1  0  0  0  0
 88 91  1  0  0  0  0
 91 92  2  0  0  0  0
 92 93  1  0  0  0  0
 92 94  1  0  0  0  0
 94 95  1  0  0  0  0
 94 96  2  0  0  0  0
 96 97  1  0  0  0  0
 97 98  2  0  0  0  0
 98 99  1  0  0  0  0
 99100  1  0  0  0  0
100101  1  0  0  0  0
 99102  2  0  0  0  0
102103  1  0  0  0  0
103104  2  0  0  0  0
102105  1  0  0  0  0
105106  1  0  0  0  0
 96107  1  0  0  0  0
107108  2  0  0  0  0
108109  1  0  0  0  0
109110  2  0  0  0  0
109111  1  0  0  0  0
111112  2  0  0  0  0
112113  1  0  0  0  0
113114  2  0  0  0  0
114115  1  0  0  0  0
115116  2  0  0  0  0
116117  1  0  0  0  0
116118  1  0  0  0  0
118119  2  0  0  0  0
119120  1  0  0  0  0
120121  2  0  0  0  0
121122  1  0  0  0  0
122123  2  0  0  0  0
123124  1  0  0  0  0
124125  3  0  0  0  0
123126  1  0  0  0  0
126127  3  0  0  0  0
 13  2  1  0  0  0  0
 32 19  1  0  0  0  0
 84 35  1  0  0  0  0
 90 86  2  0  0  0  0
104 91  1  0  0  0  0
122108  1  0  0  0  0
 11  5  1  0  0  0  0
 32 25  1  0  0  0  0
 83 37  2  0  0  0  0
104 97  1  0  0  0  0
121111  1  0  0  0  0
 82 39  2  0  0  0  0
119113  1  0  0  0  0
 64 40  1  0  0  0  0
 73 66  1  0  0  0  0
 81 74  1  0  0  0  0
 62 42  2  0  0  0  0
 51 44  1  0  0  0  0
 59 52  1  0  0  0  0
 90 60  1  0  0  0  0
  1128  1  0  0  0  0
  7129  1  0  0  0  0
  8130  1  0  0  0  0
 28131  1  0  0  0  0
 28132  1  0  0  0  0
 29133  1  0  0  0  0
 29134  1  0  0  0  0
 29135  1  0  0  0  0
 33136  1  0  0  0  0
 33137  1  0  0  0  0
 34138  1  0  0  0  0
 34139  1  0  0  0  0
 34140  1  0  0  0  0
 36141  1  0  0  0  0
 41142  1  0  0  0  0
 45143  1  0  0  0  0
 46144  1  0  0  0  0
 48145  1  0  0  0  0
 48146  1  0  0  0  0
 49147  1  0  0  0  0
 49148  1  0  0  0  0
 49149  1  0  0  0  0
 50150  1  0  0  0  0
 51151  1  0  0  0  0
 53152  1  0  0  0  0
 54153  1  0  0  0  0
 56154  1  0  0  0  0
 56155  1  0  0  0  0
 57156  1  0  0  0  0
 57157  1  0  0  0  0
 57158  1  0  0  0  0
 58159  1  0  0  0  0
 59160  1  0  0  0  0
 63161  1  0  0  0  0
 67162  1  0  0  0  0
 68163  1  0  0  0  0
 70164  1  0  0  0  0
 70165  1  0  0  0  0
 71166  1  0  0  0  0
 71167  1  0  0  0  0
 71168  1  0  0  0  0
 72169  1  0  0  0  0
 73170  1  0  0  0  0
 75171  1  0  0  0  0
 76172  1  0  0  0  0
 78173  1  0  0  0  0
 78174  1  0  0  0  0
 79175  1  0  0  0  0
 79176  1  0  0  0  0
 79177  1  0  0  0  0
 80178  1  0  0  0  0
 81179  1  0  0  0  0
 89180  1  0  0  0  0
100181  1  0  0  0  0
100182  1  0  0  0  0
101183  1  0  0  0  0
101184  1  0  0  0  0
101185  1  0  0  0  0
105186  1  0  0  0  0
105187  1  0  0  0  0
106188  1  0  0  0  0
106189  1  0  0  0  0
106190  1  0  0  0  0
107191  1  0  0  0  0
112192  1  0  0  0  0
114193  1  0  0  0  0
115194  1  0  0  0  0
118195  1  0  0  0  0
120196  1  0  0  0  0
M  END
