216

C          2.12070       -0.82160        4.86820
C          3.31350       -0.57740        4.19210
C          3.35170       -0.16360        2.78530
O          2.41070        0.04600        2.04170
C          4.77960        0.11800        2.49820
C          5.53670       -0.06360        3.66940
C          6.90840        0.11390        3.64460
C          7.51280        0.46790        2.44550
C          6.76370        0.64170        1.29490
Br         7.63740        1.10040       -0.31650
C          5.37570        0.47860        1.30400
Cl         4.45150        0.69300       -0.12410
C          4.62840       -0.47610        4.74310
C          5.00250       -0.82980        6.01980
C          6.30720       -0.69300        6.52590
N          7.35080       -0.57590        6.99230
C          4.12190       -1.38360        6.96670
N          3.46730       -1.88150        7.76900
C          1.03540       -1.41290        4.22770
C         -0.36660       -1.27920        4.40960
N         -0.97630       -0.47960        5.32620
C         -2.26010        0.04870        5.06070
C         -3.25510       -0.04140        6.02800
C         -4.50290        0.49360        5.78250
C         -4.78730        1.12800        4.57800
C         -6.13180        1.74020        4.34370
C         -3.78540        1.21280        3.62010
C         -2.53030        0.68490        3.85390
C         -0.38980       -0.15040        6.56210
C          0.24840       -1.11680        7.33510
C          0.82330       -0.76780        8.54080
C          0.78020        0.54390        9.00280
C          1.46870        0.92100       10.27440
C          0.11010        1.49380        8.24020
C         -0.47390        1.15670        7.03370
C         -1.06280       -1.99720        3.41530
S         -2.73910       -2.17780        2.96640
C         -2.29850       -3.16740        1.58600
C         -0.92800       -3.39810        1.53470
N         -0.31290       -4.19700        0.54950
C          0.53560       -3.59430       -0.39260
C          0.84830       -2.23810       -0.35620
C          1.68920       -1.69060       -1.30360
C          2.21740       -2.45390       -2.33620
C          3.14790       -1.83680       -3.33720
C          1.84630       -3.79110       -2.40710
C          1.01610       -4.35480       -1.45810
C         -0.07430       -5.52890        0.97330
C          1.21230       -6.05840        1.01250
C          1.41680       -7.35210        1.44670
C          0.35670       -8.14750        1.86870
C          0.60180       -9.55010        2.33400
C         -0.91910       -7.60210        1.85160
C         -1.13690       -6.30950        1.41290
C         -0.24480       -2.72990        2.55980
S          1.42210       -2.53560        2.91590
C         -3.18950       -3.46960        0.52470
C         -4.49740       -3.04030        0.31340
C         -5.39830       -2.54640        1.35290
C         -5.49800       -3.20940        2.57530
C         -6.39740       -2.76980        3.52670
C         -7.22340       -1.69090        3.26260
C         -7.15010       -1.02810        2.04460
C         -8.10470        0.07750        1.69740
C         -9.24100       -0.46800        0.82940
C         -6.22420       -1.45520        1.10550
C         -4.84440       -3.12880       -1.04950
S         -6.15310       -2.44950       -2.00900
C         -5.23940       -2.75500       -3.45590
C         -5.14220       -2.27340       -4.77680
C         -5.96560       -1.40820       -5.53230
C         -5.41460       -0.75430       -6.69100
N         -6.28280        0.05530       -7.27210
S         -7.67580       -0.00060       -6.44680
N         -7.21730       -1.05090       -5.30060
C         -4.04190       -0.93140       -6.98150
C         -3.12570       -0.08860       -7.64010
S         -3.08260        1.52630       -8.28220
C         -1.34910        1.59050       -7.99870
C         -0.41550        2.65880       -7.86120
C         -0.66900        4.07290       -8.12990
C         -1.95380        4.60710       -8.06680
C         -2.15860        5.95150       -8.31260
C         -1.09370        6.77950       -8.61910
C          0.19650        6.26770       -8.68430
C          1.35440        7.14810       -9.05860
C          1.54870        7.16030      -10.57590
C          0.39380        4.91760       -8.44610
C          0.78250        2.20750       -7.35830
S          0.81900        0.46490       -7.13900
C         -0.84570        0.36040       -7.58970
C         -1.85320       -0.59120       -7.36830
N         -1.94520       -1.74460       -6.64250
C         -3.27660       -1.93130       -6.31740
C         -3.86530       -2.67690       -5.26360
N         -3.27250       -3.50760       -4.32160
C         -4.06940       -3.47320       -3.20620
C         -3.84250       -3.68750       -1.84560
S         -2.45300       -4.14200       -0.93310
C         -2.36630       -4.62710       -4.49960
C         -2.67650       -5.39840       -5.77810
C         -0.75160       -2.34310       -6.09670
C         -0.46140       -1.83970       -4.68430
C          1.76480        2.88950       -6.50050
C          1.29590        3.09780       -5.19770
C          2.18450        3.39200       -4.19490
C          1.93660        3.44810       -2.70440
C          1.52710        2.06670       -2.14630
C          0.16030        1.54000       -2.56410
C          0.92030        4.57100       -2.41800
C          0.52540        4.75370       -0.95950
C          3.32980        3.75380       -2.19330
C          4.23940        3.88800       -3.26090
C          3.53530        3.63060       -4.50130
C          3.98580        3.52280       -5.80950
C          3.10460        3.10710       -6.79680
C          5.58240        4.14170       -3.01090
C          6.01520        4.22020       -1.70530
C          5.13190        4.04070       -0.62650
C          3.77310        3.79540       -0.89600
C          5.67620        3.98030        0.69710
C          5.06540        3.94300        1.91210
C          5.80270        3.40020        3.08300
O          6.98860        3.16900        3.15390
C          4.76710        3.11850        4.10340
C          4.90560        2.51940        5.34010
C          3.74090        2.30660        6.06270
F          3.82140        1.72310        7.27230
C          2.48680        2.65430        5.58370
C          2.36450        3.28750        4.35670
C          3.51320        3.53610        3.62230
C          3.71880        4.23870        2.35790
C          2.91660        5.23810        1.87800
C          1.66330        5.56510        2.43310
N          0.63140        5.84590        2.84970
C          3.32010        6.09010        0.82620
N          3.63980        6.82310        0.00380
H          2.04070       -0.54180        5.91090
H          7.51480       -0.01070        4.52610
H          8.58020        0.61720        2.40710
H         -3.04140       -0.53200        6.96600
H         -5.27090        0.41780        6.53800
H         -6.18660        2.71310        4.83350
H         -6.91660        1.11250        4.75860
H         -6.31320        1.88220        3.28240
H         -3.98470        1.70750        2.68130
H         -1.75190        0.77330        3.11010
H          0.29380       -2.13750        6.98510
H          1.32730       -1.52180        9.12360
H          1.08240        1.85740       10.66940
H          2.53490        1.04330       10.08180
H          1.35420        0.14120       11.02350
H          0.05310        2.51530        8.58890
H         -0.98930        1.90250        6.44500
H          0.45620       -1.59730        0.41660
H          1.95130       -0.64760       -1.22330
H          4.03310       -1.44500       -2.83730
H          2.66590       -1.00580       -3.85260
H          3.46600       -2.56640       -4.07800
H          2.21690       -4.40790       -3.21460
H          0.73810       -5.39550       -1.53350
H          2.05070       -5.44920        0.70910
H          2.42130       -7.74970        1.47080
H         -0.32130      -10.01740        2.66700
H          1.31390       -9.55810        3.15810
H          1.02250      -10.14900        1.52690
H         -1.75900       -8.19500        2.18430
H         -2.13740       -5.90450        1.41090
H         -4.89040       -4.08220        2.76390
H         -6.46880       -3.28400        4.47360
H         -7.94150       -1.37070        4.00370
H         -8.52280        0.51380        2.60610
H         -7.58170        0.86130        1.14540
H         -8.84530       -0.89180       -0.09060
H         -9.78050       -1.24850        1.36140
H         -9.93940        0.32570        0.57510
H         -6.14510       -0.93070        0.16510
H         -2.79150        3.97770       -7.81180
H         -3.15870        6.35620       -8.26090
H         -1.26250        7.82990       -8.80820
H          1.17150        8.16670       -8.71080
H          2.26540        6.78220       -8.58020
H          0.65420        7.53480      -11.06860
H          2.38760        7.79670      -10.84770
H          1.74260        6.15390      -10.94030
H          1.39170        4.51120       -8.51560
H         -1.32350       -4.30660       -4.46610
H         -2.51850       -5.28140       -3.63670
H         -1.99120       -6.23600       -5.87830
H         -3.69350       -5.78330       -5.74640
H         -2.58410       -4.76290       -6.65600
H         -0.83370       -3.42780       -6.13520
H          0.07320       -2.05710       -6.75520
H          0.39020       -2.36490       -4.26230
H         -0.23050       -0.77840       -4.71320
H         -1.31680       -1.98100       -4.02920
H          0.24400        2.96010       -4.99950
H          2.29250        1.35320       -2.46600
H          1.56430        2.11600       -1.05670
H         -0.62900        2.24830       -2.32770
H          0.13330        1.32570       -3.62840
H         -0.04510        0.61190       -2.03380
H          1.35100        5.50640       -2.78420
H          0.02480        4.37230       -3.00980
H         -0.24740        5.51570       -0.88520
H          0.13730        3.83570       -0.52640
H          1.37530        5.09070       -0.37540
H          5.02080        3.71090       -6.05200
H          3.46400        2.93650       -7.80150
H          6.28240        4.24980       -3.82510
H          7.05880        4.40250       -1.49730
H          3.10190        3.56860       -0.08330
H          6.75140        3.82990        0.74340
H          5.87150        2.23610        5.72810
H          1.61860        2.43120        6.18440
H          1.39000        3.56520        3.98850
