229

C         11.46010        1.42770       -1.30880
C         12.59730        1.94780       -1.89860
C         12.97480        3.35710       -1.94090
O         12.32860        4.31790       -1.56400
C         14.33570        3.39310       -2.52440
C         14.74420        2.08100       -2.82530
C         15.99080        1.85600       -3.38430
C         16.81400        2.94550       -3.63340
C         16.40590        4.23560       -3.33610
Br        17.57190        5.67750       -3.70350
C         15.14950        4.48490       -2.77230
Cl        14.63870        6.07830       -2.40750
C         13.66010        1.16380       -2.46890
C         13.67590       -0.19510       -2.68540
C         14.78740       -0.90590       -3.17770
N         15.66030       -1.55180       -3.55320
C         12.58950       -1.06720       -2.48660
N         11.74650       -1.84400       -2.39290
C         10.36380        2.06070       -0.74040
C          9.27620        1.34740       -0.15780
N          9.25290        0.00900        0.11630
C          8.00770       -0.65290        0.10160
C          7.64260       -1.50100        1.14300
C          6.41240       -2.12450        1.12280
C          5.51890       -1.92040        0.07560
C          4.17930       -2.58920        0.08680
C          5.89910       -1.08380       -0.96500
C          7.13020       -0.45720       -0.96000
C         10.38670       -0.70530        0.54830
C         10.54750       -2.03770        0.17670
C         11.65700       -2.74180        0.59990
C         12.63270       -2.14200        1.38730
C         13.85120       -2.90920        1.79720
C         12.45120       -0.81760        1.76960
C         11.33940       -0.10500        1.36770
C          8.20400        2.21160        0.10640
S          6.60180        2.02180        0.73870
C          6.29530        3.75190        0.59100
C          7.40170        4.42570        0.10530
N          7.48980        5.80270       -0.18880
C          7.26620        6.09980       -1.55590
C          8.27360        6.62480       -2.36040
C          8.02480        6.89330       -3.69080
C          6.78170        6.63300       -4.25810
C          6.52370        6.95030       -5.69950
C          5.79230        6.08480       -3.45350
C          6.02620        5.81820       -2.11720
C          8.33790        6.60050        0.58680
C          8.38870        7.97670        0.35900
C          9.15910        8.79170        1.16090
C          9.89280        8.27570        2.22320
C         10.74370        9.16970        3.07310
C          9.81860        6.91140        2.46120
C          9.05290        6.08260        1.66360
C          8.46930        3.54540       -0.17740
S         10.05680        3.80140       -0.80060
C          4.96120        4.16310        0.90110
C          4.40200        5.36660        1.28770
C          5.11030        6.64100        1.61020
C          5.85790        6.52590        2.93890
C          3.01070        5.24510        1.45560
S          1.78530        6.40880        1.90620
C          0.58870        5.16740        1.77800
C         -0.80390        5.01140        1.91740
C         -1.86300        5.93590        2.09480
C         -3.22650        5.45760        2.00970
N         -4.14750        6.39680        2.09690
Se        -3.35310        7.95690        2.30810
N         -1.74390        7.23830        2.26010
C         -3.45590        4.06200        1.92160
C         -4.62410        3.27800        1.97760
S         -6.34340        3.47870        1.94990
C         -6.52800        1.74080        2.01310
C         -7.65420        0.90560        1.90980
C         -9.04440        1.44410        1.77320
C         -9.55960        1.35930        0.33720
C         -7.28170       -0.42240        1.87030
S         -5.55080       -0.64110        2.12690
C         -5.31090        1.06350        2.08500
C         -4.22150        1.93930        2.04600
N         -2.85430        1.85670        1.99320
C         -2.37460        3.14630        1.88300
C         -1.06550        3.63760        1.69440
N          0.10530        2.98700        1.35400
C          1.11150        3.92100        1.41410
C          2.49550        3.96960        1.21900
S          3.75170        2.87760        0.77060
C          0.21290        1.83450        0.48250
C          0.50790        2.25470       -0.95740
C         -2.15360        0.70720        2.52480
C         -2.54560        0.44470        3.97830
C         -8.07740       -1.57480        1.58410
C         -7.74690       -2.64940        0.76220
N         -6.60620       -2.79310       -0.00620
C         -5.91210       -1.70770       -0.54910
C         -6.57540       -0.55320       -0.96250
C         -5.85750        0.56040       -1.34660
C         -4.46660        0.55310       -1.36000
C         -3.70370        1.79440       -1.70880
C         -3.81540       -0.62880       -1.03170
C         -4.52050       -1.74640       -0.63130
C         -6.15340       -4.10180       -0.27690
C         -5.81350       -4.46980       -1.57420
C         -5.41950       -5.76470       -1.84310
C         -5.35590       -6.71990       -0.83530
C         -4.98730       -8.13710       -1.14520
C         -5.67280       -6.33560        0.46130
C         -6.06270       -5.04150        0.74480
C         -8.77750       -3.62280        0.76220
S         -8.97460       -5.12610       -0.06340
C        -10.56160       -5.33990        0.68640
C        -10.93910       -4.20420        1.46030
N        -12.14890       -4.01770        2.06170
C        -13.35940       -4.48710        1.51550
C        -13.56550       -4.49990        0.13830
C        -14.75680       -4.97080       -0.37620
C        -15.77350       -5.41880        0.45960
C        -17.05760       -5.95350       -0.09410
C        -15.56990       -5.36800        1.83360
C        -14.37870       -4.91380        2.36290
C        -12.21530       -3.20800        3.21580
C        -13.17370       -2.20620        3.32050
C        -13.22640       -1.41880        4.45380
C        -12.33390       -1.60860        5.50170
C        -12.37300       -0.73790        6.71870
C        -11.38660       -2.62080        5.39050
C        -11.32410       -3.41620        4.26470
C         -9.88550       -3.27850        1.52530
S         -9.68520       -1.73180        2.28370
C        -11.29010       -6.51970        0.66370
C        -11.05680       -7.70830       -0.00610
C        -10.01220       -7.94610       -0.99600
O         -9.12900       -7.18890       -1.35780
C        -10.24970       -9.31320       -1.51420
C        -11.37690       -9.86060       -0.87570
C        -11.80300      -11.13710       -1.20190
C        -11.09640      -11.84930       -2.16140
C         -9.98370      -11.30670       -2.78340
Br        -9.05780      -12.33140       -4.07550
C         -9.53780      -10.01860       -2.46790
Cl        -8.16410       -9.34010       -3.23380
C        -11.87990       -8.88370        0.09280
C        -12.93200       -9.10250        0.95280
C        -13.74340      -10.25320        0.93340
N        -14.45320      -11.15600        0.96560
C        -13.33130       -8.24210        1.99230
N        -13.69880       -7.62250        2.88890
H         11.40670        0.34710       -1.28200
H         16.33500        0.86470       -3.62710
H         17.79010        2.79180       -4.06720
H          8.32400       -1.65860        1.96580
H          6.13380       -2.77550        1.93860
H          3.64240       -2.40260       -0.83940
H          4.29040       -3.66440        0.21680
H          3.58050       -2.21460        0.91660
H          5.22690       -0.92060       -1.79440
H          7.42010        0.18310       -1.78030
H          9.81010       -2.50970       -0.45280
H         11.77700       -3.77020        0.29480
H         14.43350       -2.35740        2.53070
H         13.57350       -3.87280        2.22020
H         14.48130       -3.09880        0.92810
H         13.18680       -0.33680        2.39820
H         11.20930        0.92080        1.68060
H          9.25030        6.81020       -1.93890
H          8.81430        7.30140       -4.30530
H          6.37360        8.02310       -5.82490
H          7.37200        6.65930       -6.31580
H          5.63440        6.43830       -6.05870
H          4.82130        5.86550       -3.87430
H          5.24620        5.39250       -1.50370
H          7.81420        8.40510       -0.44910
H          9.18520        9.85380        0.96260
H         10.95770        8.70520        4.03280
H         11.69250        9.36950        2.57380
H         10.25010       10.12420        3.24540
H         10.36920        6.48260        3.28650
H          9.01260        5.02730        1.88820
H          5.81120        6.89690        0.81940
H          4.36380        7.43450        1.68230
H          6.38710        7.45140        3.14850
H          6.58470        5.71890        2.89820
H          5.16110        6.32750        3.75060
H         -9.72030        0.89850        2.43480
H         -9.02850        2.48970        2.08700
H         -9.65730        0.32200        0.02600
H        -10.53600        1.83110        0.26450
H         -8.87690        1.86700       -0.33990
H          1.01540        1.18700        0.85090
H         -0.73150        1.29310        0.49680
H         -0.25600        2.94450       -1.31050
H          0.51300        1.37730       -1.59850
H          1.47700        2.73950       -1.03130
H         -1.08210        0.89690        2.48700
H         -2.39850       -0.16680        1.91170
H         -3.59890        0.19210        4.05790
H         -1.96210       -0.38510        4.36720
H         -2.34900        1.32610        4.58500
H         -7.65390       -0.52970       -0.96260
H         -6.38450        1.45810       -1.63620
H         -2.64050        1.58530       -1.79930
H         -4.05870        2.21300       -2.64900
H         -3.84370        2.55180       -0.93620
H         -2.73540       -0.67170       -1.06720
H         -3.99830       -2.64620       -0.34170
H         -5.87470       -3.73840       -2.36690
H         -5.17390       -6.04390       -2.85730
H         -5.88990       -8.70500       -1.37200
H         -4.33020       -8.19090       -2.01020
H         -4.49810       -8.60990       -0.29640
H         -5.61760       -7.06030        1.26090
H         -6.30760       -4.75290        1.75720
H        -12.78840       -4.14770       -0.52420
H        -14.90050       -4.98250       -1.44700
H        -17.10500       -5.82170       -1.17200
H        -17.14590       -7.01660        0.12910
H        -17.90910       -5.44910        0.35960
H        -16.34770       -5.70850        2.49990
H        -14.22710       -4.90060        3.43060
H        -13.86900       -2.04690        2.50970
H        -13.97130       -0.63950        4.52170
H        -12.24130       -1.33080        7.62140
H        -13.31510       -0.20000        6.78390
H        -11.56440       -0.00760        6.67890
H        -10.69240       -2.79090        6.20020
H        -10.59280       -4.20790        4.19250
H        -12.17780       -6.50470        1.28260
H        -12.66230      -11.58730       -0.73420
H        -11.41240      -12.84570       -2.42940
