
  xtb     02062211423D
 energy: -414.968323028907 gnorm: 0.000944449968 xtb: 6.4.1 (unknown)
249274  0     0  0            999 V2000
    5.0903  -10.3318    5.4359 C   0  0  0  0  0  0  0  0  0  0  0  0
    5.1531  -11.6787    5.7444 C   0  0  0  0  0  0  0  0  0  0  0  0
    4.2817  -12.7208    5.2116 C   0  0  0  0  0  0  0  0  0  0  0  0
    3.4201  -12.6139    4.3574 O   0  0  0  0  0  0  0  0  0  0  0  0
    4.6336  -13.9570    5.9481 C   0  0  0  0  0  0  0  0  0  0  0  0
    5.6588  -13.6705    6.8678 C   0  0  0  0  0  0  0  0  0  0  0  0
    6.1607  -14.6742    7.6787 C   0  0  0  0  0  0  0  0  0  0  0  0
    5.6304  -15.9517    7.5608 C   0  0  0  0  0  0  0  0  0  0  0  0
    4.6222  -16.2283    6.6520 C   0  0  0  0  0  0  0  0  0  0  0  0
    3.9455  -17.9897    6.5365 Br  0  0  0  0  0  0  0  0  0  0  0  0
    4.1014  -15.2284    5.8228 C   0  0  0  0  0  0  0  0  0  0  0  0
    2.8588  -15.5670    4.6939 Cl  0  0  0  0  0  0  0  0  0  0  0  0
    6.0150  -12.2559    6.7405 C   0  0  0  0  0  0  0  0  0  0  0  0
    7.0193  -11.6318    7.4449 C   0  0  0  0  0  0  0  0  0  0  0  0
    7.4674  -10.3142    7.2370 C   0  0  0  0  0  0  0  0  0  0  0  0
    7.9199   -9.2634    7.1181 N   0  0  0  0  0  0  0  0  0  0  0  0
    7.7714  -12.2457    8.4649 C   0  0  0  0  0  0  0  0  0  0  0  0
    8.4052  -12.6739    9.3221 N   0  0  0  0  0  0  0  0  0  0  0  0
    4.3298   -9.6550    4.4939 C   0  0  0  0  0  0  0  0  0  0  0  0
    4.3712   -8.2388    4.3380 C   0  0  0  0  0  0  0  0  0  0  0  0
    4.9495   -7.3619    5.2114 N   0  0  0  0  0  0  0  0  0  0  0  0
    5.4390   -6.1369    4.7146 C   0  0  0  0  0  0  0  0  0  0  0  0
    6.2326   -6.1176    3.5704 C   0  0  0  0  0  0  0  0  0  0  0  0
    6.7059   -4.9187    3.0792 C   0  0  0  0  0  0  0  0  0  0  0  0
    6.4085   -3.7163    3.7123 C   0  0  0  0  0  0  0  0  0  0  0  0
    6.9315   -2.4258    3.1622 C   0  0  0  0  0  0  0  0  0  0  0  0
    5.6265   -3.7488    4.8598 C   0  0  0  0  0  0  0  0  0  0  0  0
    5.1431   -4.9419    5.3606 C   0  0  0  0  0  0  0  0  0  0  0  0
    4.9456   -7.5632    6.6057 C   0  0  0  0  0  0  0  0  0  0  0  0
    6.0298   -7.1385    7.3693 C   0  0  0  0  0  0  0  0  0  0  0  0
    6.0285   -7.3344    8.7358 C   0  0  0  0  0  0  0  0  0  0  0  0
    4.9628   -7.9601    9.3721 C   0  0  0  0  0  0  0  0  0  0  0  0
    4.9995   -8.2012   10.8493 C   0  0  0  0  0  0  0  0  0  0  0  0
    3.8764   -8.3603    8.6024 C   0  0  0  0  0  0  0  0  0  0  0  0
    3.8564   -8.1586    7.2370 C   0  0  0  0  0  0  0  0  0  0  0  0
    3.7135   -7.8503    3.1631 C   0  0  0  0  0  0  0  0  0  0  0  0
    3.3794   -6.3291    2.3978 S   0  0  0  0  0  0  0  0  0  0  0  0
    2.4265   -7.1329    1.1579 C   0  0  0  0  0  0  0  0  0  0  0  0
    2.3699   -8.5031    1.3443 C   0  0  0  0  0  0  0  0  0  0  0  0
    1.5865   -9.3995    0.5898 N   0  0  0  0  0  0  0  0  0  0  0  0
    0.2889   -9.5885    1.1485 C   0  0  0  0  0  0  0  0  0  0  0  0
   -0.0063  -10.7339    1.8833 C   0  0  0  0  0  0  0  0  0  0  0  0
   -1.2599  -10.8992    2.4356 C   0  0  0  0  0  0  0  0  0  0  0  0
   -2.2444   -9.9279    2.2858 C   0  0  0  0  0  0  0  0  0  0  0  0
   -3.6073  -10.1312    2.8742 C   0  0  0  0  0  0  0  0  0  0  0  0
   -1.9330   -8.7803    1.5705 C   0  0  0  0  0  0  0  0  0  0  0  0
   -0.6812   -8.6065    1.0072 C   0  0  0  0  0  0  0  0  0  0  0  0
    2.2163  -10.4802   -0.0303 C   0  0  0  0  0  0  0  0  0  0  0  0
    3.6031  -10.5803   -0.1030 C   0  0  0  0  0  0  0  0  0  0  0  0
    4.1976  -11.6355   -0.7674 C   0  0  0  0  0  0  0  0  0  0  0  0
    3.4394  -12.6090   -1.3990 C   0  0  0  0  0  0  0  0  0  0  0  0
    4.0830  -13.7612   -2.1103 C   0  0  0  0  0  0  0  0  0  0  0  0
    2.0555  -12.4883   -1.3504 C   0  0  0  0  0  0  0  0  0  0  0  0
    1.4497  -11.4462   -0.6825 C   0  0  0  0  0  0  0  0  0  0  0  0
    3.1125   -8.9006    2.4772 C   0  0  0  0  0  0  0  0  0  0  0  0
    3.3384  -10.4264    3.2495 S   0  0  0  0  0  0  0  0  0  0  0  0
    1.7770   -6.3150    0.1895 C   0  0  0  0  0  0  0  0  0  0  0  0
    1.3024   -6.6280   -1.0706 C   0  0  0  0  0  0  0  0  0  0  0  0
    1.5946   -7.8351   -1.8484 C   0  0  0  0  0  0  0  0  0  0  0  0
    0.5683   -8.5503   -2.4548 C   0  0  0  0  0  0  0  0  0  0  0  0
    0.8722   -9.6130   -3.2835 C   0  0  0  0  0  0  0  0  0  0  0  0
    2.1904   -9.9443   -3.5398 C   0  0  0  0  0  0  0  0  0  0  0  0
    3.2269   -9.2319   -2.9513 C   0  0  0  0  0  0  0  0  0  0  0  0
    4.6551   -9.5424   -3.2933 C   0  0  0  0  0  0  0  0  0  0  0  0
    5.0766   -8.7869   -4.5554 C   0  0  0  0  0  0  0  0  0  0  0  0
    2.9167   -8.1862   -2.0962 C   0  0  0  0  0  0  0  0  0  0  0  0
    0.5863   -5.5494   -1.6265 C   0  0  0  0  0  0  0  0  0  0  0  0
   -0.2526   -5.3648   -3.1474 S   0  0  0  0  0  0  0  0  0  0  0  0
   -0.6258   -3.7325   -2.7085 C   0  0  0  0  0  0  0  0  0  0  0  0
   -1.3319   -2.6313   -3.2149 C   0  0  0  0  0  0  0  0  0  0  0  0
   -2.1400   -2.5160   -4.3659 C   0  0  0  0  0  0  0  0  0  0  0  0
   -2.8504   -1.2921   -4.5899 C   0  0  0  0  0  0  0  0  0  0  0  0
   -3.6074   -1.3362   -5.6751 N   0  0  0  0  0  0  0  0  0  0  0  0
   -3.4373   -2.7953   -6.3576 S   0  0  0  0  0  0  0  0  0  0  0  0
   -2.3911   -3.4260   -5.2939 N   0  0  0  0  0  0  0  0  0  0  0  0
   -2.6311   -0.2092   -3.7120 C   0  0  0  0  0  0  0  0  0  0  0  0
   -3.0702    1.1207   -3.7865 C   0  0  0  0  0  0  0  0  0  0  0  0
   -4.0821    2.1190   -4.7765 S   0  0  0  0  0  0  0  0  0  0  0  0
   -3.6079    3.5032   -3.8186 C   0  0  0  0  0  0  0  0  0  0  0  0
   -3.9590    4.8633   -3.8772 C   0  0  0  0  0  0  0  0  0  0  0  0
   -4.9284    5.3933   -4.8384 C   0  0  0  0  0  0  0  0  0  0  0  0
   -4.8089    5.0806   -6.1884 C   0  0  0  0  0  0  0  0  0  0  0  0
   -5.7317    5.5701   -7.0926 C   0  0  0  0  0  0  0  0  0  0  0  0
   -6.7684    6.3781   -6.6634 C   0  0  0  0  0  0  0  0  0  0  0  0
   -6.9109    6.6911   -5.3174 C   0  0  0  0  0  0  0  0  0  0  0  0
   -8.0649    7.5276   -4.8448 C   0  0  0  0  0  0  0  0  0  0  0  0
   -9.2877    6.6502   -4.5703 C   0  0  0  0  0  0  0  0  0  0  0  0
   -5.9958    6.1789   -4.4123 C   0  0  0  0  0  0  0  0  0  0  0  0
   -3.2967    5.6023   -2.9062 C   0  0  0  0  0  0  0  0  0  0  0  0
   -2.2582    4.5923   -1.9030 S   0  0  0  0  0  0  0  0  0  0  0  0
   -2.7191    3.1855   -2.7901 C   0  0  0  0  0  0  0  0  0  0  0  0
   -2.4306    1.8156   -2.7591 C   0  0  0  0  0  0  0  0  0  0  0  0
   -1.6454    0.9618   -2.0357 N   0  0  0  0  0  0  0  0  0  0  0  0
   -1.7584   -0.3029   -2.5873 C   0  0  0  0  0  0  0  0  0  0  0  0
   -1.1843   -1.5682   -2.2764 C   0  0  0  0  0  0  0  0  0  0  0  0
   -0.4516   -2.0495   -1.2046 N   0  0  0  0  0  0  0  0  0  0  0  0
   -0.1133   -3.3493   -1.4676 C   0  0  0  0  0  0  0  0  0  0  0  0
    0.5630   -4.3994   -0.8337 C   0  0  0  0  0  0  0  0  0  0  0  0
    1.3933   -4.6602    0.6594 S   0  0  0  0  0  0  0  0  0  0  0  0
   -0.1775   -1.5082    0.1051 C   0  0  0  0  0  0  0  0  0  0  0  0
    1.2903   -1.1095    0.2643 C   0  0  0  0  0  0  0  0  0  0  0  0
   -0.8040    1.5073   -0.9982 C   0  0  0  0  0  0  0  0  0  0  0  0
   -1.5916    1.7974    0.2802 C   0  0  0  0  0  0  0  0  0  0  0  0
   -3.2230    7.0146   -2.7778 C   0  0  0  0  0  0  0  0  0  0  0  0
   -2.6514    7.7585   -1.7463 C   0  0  0  0  0  0  0  0  0  0  0  0
   -2.2179    7.2625   -0.5258 N   0  0  0  0  0  0  0  0  0  0  0  0
   -1.1060    7.9128    0.0492 C   0  0  0  0  0  0  0  0  0  0  0  0
    0.0315    8.1255   -0.7229 C   0  0  0  0  0  0  0  0  0  0  0  0
    1.0976    8.8346   -0.2062 C   0  0  0  0  0  0  0  0  0  0  0  0
    1.0602    9.3391    1.0871 C   0  0  0  0  0  0  0  0  0  0  0  0
    2.1888   10.1621    1.6252 C   0  0  0  0  0  0  0  0  0  0  0  0
   -0.0690    9.0954    1.8602 C   0  0  0  0  0  0  0  0  0  0  0  0
   -1.1438    8.3939    1.3537 C   0  0  0  0  0  0  0  0  0  0  0  0
   -3.0018    6.3974    0.2399 C   0  0  0  0  0  0  0  0  0  0  0  0
   -4.3820    6.3103    0.0617 C   0  0  0  0  0  0  0  0  0  0  0  0
   -5.1242    5.4119    0.7993 C   0  0  0  0  0  0  0  0  0  0  0  0
   -4.5256    4.5840    1.7430 C   0  0  0  0  0  0  0  0  0  0  0  0
   -5.3498    3.6122    2.5311 C   0  0  0  0  0  0  0  0  0  0  0  0
   -3.1537    4.6899    1.9307 C   0  0  0  0  0  0  0  0  0  0  0  0
   -2.3967    5.5756    1.1902 C   0  0  0  0  0  0  0  0  0  0  0  0
   -2.5594    9.1277   -2.0854 C   0  0  0  0  0  0  0  0  0  0  0  0
   -1.9498   10.5154   -1.2559 S   0  0  0  0  0  0  0  0  0  0  0  0
   -2.4087   11.5402   -2.6232 C   0  0  0  0  0  0  0  0  0  0  0  0
   -3.1190   10.8086   -3.6184 C   0  0  0  0  0  0  0  0  0  0  0  0
   -3.7407   11.3423   -4.7083 N   0  0  0  0  0  0  0  0  0  0  0  0
   -3.9601   10.5232   -5.8376 C   0  0  0  0  0  0  0  0  0  0  0  0
   -2.9057    9.8084   -6.3980 C   0  0  0  0  0  0  0  0  0  0  0  0
   -3.1238    9.0141   -7.5054 C   0  0  0  0  0  0  0  0  0  0  0  0
   -4.3855    8.9155   -8.0805 C   0  0  0  0  0  0  0  0  0  0  0  0
   -4.5957    8.0840   -9.3067 C   0  0  0  0  0  0  0  0  0  0  0  0
   -5.4302    9.6336   -7.5119 C   0  0  0  0  0  0  0  0  0  0  0  0
   -5.2269   10.4309   -6.4034 C   0  0  0  0  0  0  0  0  0  0  0  0
   -4.3277   12.6234   -4.7090 C   0  0  0  0  0  0  0  0  0  0  0  0
   -4.3025   13.3885   -5.8719 C   0  0  0  0  0  0  0  0  0  0  0  0
   -4.8754   14.6443   -5.8834 C   0  0  0  0  0  0  0  0  0  0  0  0
   -5.4768   15.1706   -4.7462 C   0  0  0  0  0  0  0  0  0  0  0  0
   -6.0512   16.5531   -4.7652 C   0  0  0  0  0  0  0  0  0  0  0  0
   -5.5180   14.3878   -3.5980 C   0  0  0  0  0  0  0  0  0  0  0  0
   -4.9614   13.1246   -3.5749 C   0  0  0  0  0  0  0  0  0  0  0  0
   -3.1169    9.4383   -3.3193 C   0  0  0  0  0  0  0  0  0  0  0  0
   -3.7440    8.0315   -4.1185 S   0  0  0  0  0  0  0  0  0  0  0  0
   -2.0054   12.8558   -2.7955 C   0  0  0  0  0  0  0  0  0  0  0  0
   -1.3078   13.7007   -1.9514 C   0  0  0  0  0  0  0  0  0  0  0  0
   -0.9373   13.4257   -0.5673 C   0  0  0  0  0  0  0  0  0  0  0  0
   -1.0899   12.3964    0.0690 O   0  0  0  0  0  0  0  0  0  0  0  0
   -0.3382   14.6777   -0.0519 C   0  0  0  0  0  0  0  0  0  0  0  0
    0.1610   14.9366    1.2070 C   0  0  0  0  0  0  0  0  0  0  0  0
    0.6650   16.2100    1.4287 C   0  0  0  0  0  0  0  0  0  0  0  0
    1.1639   16.5103    2.6425 F   0  0  0  0  0  0  0  0  0  0  0  0
    0.6753   17.1859    0.4457 C   0  0  0  0  0  0  0  0  0  0  0  0
    0.1708   16.9090   -0.8176 C   0  0  0  0  0  0  0  0  0  0  0  0
   -0.3414   15.6460   -1.0700 C   0  0  0  0  0  0  0  0  0  0  0  0
   -0.9185   15.0488   -2.2769 C   0  0  0  0  0  0  0  0  0  0  0  0
   -1.0239   15.6802   -3.4947 C   0  0  0  0  0  0  0  0  0  0  0  0
   -1.4483   15.0831   -4.6963 C   0  0  0  0  0  0  0  0  0  0  0  0
   -1.7422   14.6698   -5.7289 N   0  0  0  0  0  0  0  0  0  0  0  0
   -0.6813   17.0279   -3.7181 C   0  0  0  0  0  0  0  0  0  0  0  0
   -0.4412   18.1238   -3.9663 N   0  0  0  0  0  0  0  0  0  0  0  0
    5.7407   -9.6930    6.0192 H   0  0  0  0  0  0  0  0  0  0  0  0
    6.9451  -14.4898    8.3933 H   0  0  0  0  0  0  0  0  0  0  0  0
    6.0069  -16.7479    8.1843 H   0  0  0  0  0  0  0  0  0  0  0  0
    6.4808   -7.0470    3.0790 H   0  0  0  0  0  0  0  0  0  0  0  0
    7.3226   -4.9137    2.1924 H   0  0  0  0  0  0  0  0  0  0  0  0
    8.0208   -2.4259    3.1684 H   0  0  0  0  0  0  0  0  0  0  0  0
    6.5818   -1.5807    3.7493 H   0  0  0  0  0  0  0  0  0  0  0  0
    6.6059   -2.2939    2.1313 H   0  0  0  0  0  0  0  0  0  0  0  0
    5.3850   -2.8268    5.3681 H   0  0  0  0  0  0  0  0  0  0  0  0
    4.5297   -4.9537    6.2493 H   0  0  0  0  0  0  0  0  0  0  0  0
    6.8732   -6.6708    6.8866 H   0  0  0  0  0  0  0  0  0  0  0  0
    6.8804   -7.0132    9.3157 H   0  0  0  0  0  0  0  0  0  0  0  0
    5.2575   -7.2869   11.3807 H   0  0  0  0  0  0  0  0  0  0  0  0
    5.7583   -8.9469   11.0866 H   0  0  0  0  0  0  0  0  0  0  0  0
    4.0394   -8.5596   11.2117 H   0  0  0  0  0  0  0  0  0  0  0  0
    3.0278   -8.8304    9.0782 H   0  0  0  0  0  0  0  0  0  0  0  0
    3.0007   -8.4675    6.6544 H   0  0  0  0  0  0  0  0  0  0  0  0
    0.7539  -11.4891    2.0198 H   0  0  0  0  0  0  0  0  0  0  0  0
   -1.4762  -11.7933    3.0024 H   0  0  0  0  0  0  0  0  0  0  0  0
   -4.1537   -9.1928    2.9271 H   0  0  0  0  0  0  0  0  0  0  0  0
   -4.1800  -10.8251    2.2581 H   0  0  0  0  0  0  0  0  0  0  0  0
   -3.5358  -10.5557    3.8736 H   0  0  0  0  0  0  0  0  0  0  0  0
   -2.6801   -8.0091    1.4460 H   0  0  0  0  0  0  0  0  0  0  0  0
   -0.4587   -7.7090    0.4534 H   0  0  0  0  0  0  0  0  0  0  0  0
    4.2279   -9.8279    0.3543 H   0  0  0  0  0  0  0  0  0  0  0  0
    5.2765  -11.6973   -0.7946 H   0  0  0  0  0  0  0  0  0  0  0  0
    4.0226  -14.6626   -1.4996 H   0  0  0  0  0  0  0  0  0  0  0  0
    5.1325  -13.5580   -2.3107 H   0  0  0  0  0  0  0  0  0  0  0  0
    3.5769  -13.9642   -3.0525 H   0  0  0  0  0  0  0  0  0  0  0  0
    1.4401  -13.2243   -1.8480 H   0  0  0  0  0  0  0  0  0  0  0  0
    0.3732  -11.3690   -0.6697 H   0  0  0  0  0  0  0  0  0  0  0  0
   -0.4599   -8.2811   -2.2655 H   0  0  0  0  0  0  0  0  0  0  0  0
    0.0752  -10.1776   -3.7440 H   0  0  0  0  0  0  0  0  0  0  0  0
    2.4203  -10.7650   -4.2032 H   0  0  0  0  0  0  0  0  0  0  0  0
    5.3054   -9.2551   -2.4655 H   0  0  0  0  0  0  0  0  0  0  0  0
    4.7662  -10.6151   -3.4594 H   0  0  0  0  0  0  0  0  0  0  0  0
    4.4458   -9.0708   -5.3945 H   0  0  0  0  0  0  0  0  0  0  0  0
    6.1108   -9.0114   -4.8064 H   0  0  0  0  0  0  0  0  0  0  0  0
    4.9801   -7.7139   -4.4046 H   0  0  0  0  0  0  0  0  0  0  0  0
    3.7102   -7.6149   -1.6343 H   0  0  0  0  0  0  0  0  0  0  0  0
   -3.9883    4.4649   -6.5243 H   0  0  0  0  0  0  0  0  0  0  0  0
   -5.6411    5.3179   -8.1385 H   0  0  0  0  0  0  0  0  0  0  0  0
   -7.4818    6.7652   -7.3766 H   0  0  0  0  0  0  0  0  0  0  0  0
   -8.3159    8.2696   -5.6054 H   0  0  0  0  0  0  0  0  0  0  0  0
   -7.7869    8.0575   -3.9316 H   0  0  0  0  0  0  0  0  0  0  0  0
  -10.1238    7.2564   -4.2294 H   0  0  0  0  0  0  0  0  0  0  0  0
   -9.0585    5.9115   -3.8056 H   0  0  0  0  0  0  0  0  0  0  0  0
   -9.5857    6.1234   -5.4739 H   0  0  0  0  0  0  0  0  0  0  0  0
   -6.1088    6.3899   -3.3579 H   0  0  0  0  0  0  0  0  0  0  0  0
   -0.4027   -2.2927    0.8365 H   0  0  0  0  0  0  0  0  0  0  0  0
   -0.8462   -0.6744    0.2994 H   0  0  0  0  0  0  0  0  0  0  0  0
    1.9214   -1.9938    0.2489 H   0  0  0  0  0  0  0  0  0  0  0  0
    1.4334   -0.6028    1.2146 H   0  0  0  0  0  0  0  0  0  0  0  0
    1.6157   -0.4525   -0.5396 H   0  0  0  0  0  0  0  0  0  0  0  0
    0.0312    0.8377   -0.8161 H   0  0  0  0  0  0  0  0  0  0  0  0
   -0.3974    2.4531   -1.3735 H   0  0  0  0  0  0  0  0  0  0  0  0
   -0.9114    2.1087    1.0678 H   0  0  0  0  0  0  0  0  0  0  0  0
   -2.3048    2.5995    0.1088 H   0  0  0  0  0  0  0  0  0  0  0  0
   -2.1449    0.9224    0.6158 H   0  0  0  0  0  0  0  0  0  0  0  0
    0.0648    7.7443   -1.7336 H   0  0  0  0  0  0  0  0  0  0  0  0
    1.9694    9.0054   -0.8215 H   0  0  0  0  0  0  0  0  0  0  0  0
    1.9644   11.2195    1.4830 H   0  0  0  0  0  0  0  0  0  0  0  0
    2.3264    9.9885    2.6902 H   0  0  0  0  0  0  0  0  0  0  0  0
    3.1181    9.9407    1.1060 H   0  0  0  0  0  0  0  0  0  0  0  0
   -0.1164    9.4815    2.8678 H   0  0  0  0  0  0  0  0  0  0  0  0
   -2.0257    8.2346    1.9563 H   0  0  0  0  0  0  0  0  0  0  0  0
   -4.8708    6.9531   -0.6555 H   0  0  0  0  0  0  0  0  0  0  0  0
   -6.1924    5.3545    0.6453 H   0  0  0  0  0  0  0  0  0  0  0  0
   -5.8976    2.9476    1.8641 H   0  0  0  0  0  0  0  0  0  0  0  0
   -6.0794    4.1420    3.1429 H   0  0  0  0  0  0  0  0  0  0  0  0
   -4.7229    3.0110    3.1848 H   0  0  0  0  0  0  0  0  0  0  0  0
   -2.6653    4.0609    2.6613 H   0  0  0  0  0  0  0  0  0  0  0  0
   -1.3281    5.6310    1.3330 H   0  0  0  0  0  0  0  0  0  0  0  0
   -1.9191    9.8897   -5.9660 H   0  0  0  0  0  0  0  0  0  0  0  0
   -2.2987    8.4668   -7.9367 H   0  0  0  0  0  0  0  0  0  0  0  0
   -5.6477    7.8479   -9.4414 H   0  0  0  0  0  0  0  0  0  0  0  0
   -4.2531    8.6286  -10.1872 H   0  0  0  0  0  0  0  0  0  0  0  0
   -4.0281    7.1586   -9.2446 H   0  0  0  0  0  0  0  0  0  0  0  0
   -6.4184    9.5684   -7.9425 H   0  0  0  0  0  0  0  0  0  0  0  0
   -6.0456   10.9838   -5.9671 H   0  0  0  0  0  0  0  0  0  0  0  0
   -3.8202   13.0008   -6.7552 H   0  0  0  0  0  0  0  0  0  0  0  0
   -4.8362   15.2343   -6.7863 H   0  0  0  0  0  0  0  0  0  0  0  0
   -6.6992   16.6877   -5.6294 H   0  0  0  0  0  0  0  0  0  0  0  0
   -6.6223   16.7529   -3.8621 H   0  0  0  0  0  0  0  0  0  0  0  0
   -5.2491   17.2879   -4.8356 H   0  0  0  0  0  0  0  0  0  0  0  0
   -5.9988   14.7683   -2.7083 H   0  0  0  0  0  0  0  0  0  0  0  0
   -5.0078   12.5266   -2.6767 H   0  0  0  0  0  0  0  0  0  0  0  0
   -2.2762   13.2782   -3.7544 H   0  0  0  0  0  0  0  0  0  0  0  0
    0.1581   14.1867    1.9818 H   0  0  0  0  0  0  0  0  0  0  0  0
    1.0794   18.1594    0.6748 H   0  0  0  0  0  0  0  0  0  0  0  0
    0.1844   17.6764   -1.5737 H   0  0  0  0  0  0  0  0  0  0  0  0
  1  2  2  0  0  0  0
  2  3  1  0  0  0  0
  3  4  2  0  0  0  0
  3  5  1  0  0  0  0
  5  6  2  0  0  0  0
  6  7  1  0  0  0  0
  7  8  2  0  0  0  0
  8  9  1  0  0  0  0
  9 10  1  0  0  0  0
  9 11  2  0  0  0  0
 11 12  1  0  0  0  0
  6 13  1  0  0  0  0
 13 14  2  0  0  0  0
 14 15  1  0  0  0  0
 15 16  3  0  0  0  0
 14 17  1  0  0  0  0
 17 18  3  0  0  0  0
  1 19  1  0  0  0  0
 19 20  2  0  0  0  0
 20 21  1  0  0  0  0
 21 22  1  0  0  0  0
 22 23  2  0  0  0  0
 23 24  1  0  0  0  0
 24 25  2  0  0  0  0
 25 26  1  0  0  0  0
 25 27  1  0  0  0  0
 27 28  2  0  0  0  0
 21 29  1  0  0  0  0
 29 30  2  0  0  0  0
 30 31  1  0  0  0  0
 31 32  2  0  0  0  0
 32 33  1  0  0  0  0
 32 34  1  0  0  0  0
 34 35  2  0  0  0  0
 20 36  1  0  0  0  0
 36 37  1  0  0  0  0
 37 38  1  0  0  0  0
 38 39  2  0  0  0  0
 39 40  1  0  0  0  0
 40 41  1  0  0  0  0
 41 42  2  0  0  0  0
 42 43  1  0  0  0  0
 43 44  2  0  0  0  0
 44 45  1  0  0  0  0
 44 46  1  0  0  0  0
 46 47  2  0  0  0  0
 40 48  1  0  0  0  0
 48 49  2  0  0  0  0
 49 50  1  0  0  0  0
 50 51  2  0  0  0  0
 51 52  1  0  0  0  0
 51 53  1  0  0  0  0
 53 54  2  0  0  0  0
 39 55  1  0  0  0  0
 55 56  1  0  0  0  0
 38 57  1  0  0  0  0
 57 58  2  0  0  0  0
 58 59  1  0  0  0  0
 59 60  2  0  0  0  0
 60 61  1  0  0  0  0
 61 62  2  0  0  0  0
 62 63  1  0  0  0  0
 63 64  1  0  0  0  0
 64 65  1  0  0  0  0
 63 66  2  0  0  0  0
 58 67  1  0  0  0  0
 67 68  1  0  0  0  0
 68 69  1  0  0  0  0
 69 70  1  0  0  0  0
 70 71  1  0  0  0  0
 71 72  1  0  0  0  0
 72 73  2  0  0  0  0
 73 74  1  0  0  0  0
 74 75  1  0  0  0  0
 72 76  1  0  0  0  0
 76 77  1  0  0  0  0
 77 78  1  0  0  0  0
 78 79  1  0  0  0  0
 79 80  1  0  0  0  0
 80 81  1  0  0  0  0
 81 82  2  0  0  0  0
 82 83  1  0  0  0  0
 83 84  2  0  0  0  0
 84 85  1  0  0  0  0
 85 86  1  0  0  0  0
 86 87  1  0  0  0  0
 85 88  2  0  0  0  0
 80 89  2  0  0  0  0
 89 90  1  0  0  0  0
 90 91  1  0  0  0  0
 91 92  1  0  0  0  0
 92 93  1  0  0  0  0
 93 94  1  0  0  0  0
 94 95  1  0  0  0  0
 95 96  1  0  0  0  0
 96 97  1  0  0  0  0
 97 98  1  0  0  0  0
 98 99  1  0  0  0  0
 96100  1  0  0  0  0
100101  1  0  0  0  0
 93102  1  0  0  0  0
102103  1  0  0  0  0
 89104  1  0  0  0  0
104105  2  0  0  0  0
105106  1  0  0  0  0
106107  1  0  0  0  0
107108  2  0  0  0  0
108109  1  0  0  0  0
109110  2  0  0  0  0
110111  1  0  0  0  0
110112  1  0  0  0  0
112113  2  0  0  0  0
106114  1  0  0  0  0
114115  2  0  0  0  0
115116  1  0  0  0  0
116117  2  0  0  0  0
117118  1  0  0  0  0
117119  1  0  0  0  0
119120  2  0  0  0  0
105121  1  0  0  0  0
121122  1  0  0  0  0
122123  1  0  0  0  0
123124  2  0  0  0  0
124125  1  0  0  0  0
125126  1  0  0  0  0
126127  2  0  0  0  0
127128  1  0  0  0  0
128129  2  0  0  0  0
129130  1  0  0  0  0
129131  1  0  0  0  0
131132  2  0  0  0  0
125133  1  0  0  0  0
133134  2  0  0  0  0
134135  1  0  0  0  0
135136  2  0  0  0  0
136137  1  0  0  0  0
136138  1  0  0  0  0
138139  2  0  0  0  0
124140  1  0  0  0  0
140141  1  0  0  0  0
123142  1  0  0  0  0
142143  2  0  0  0  0
143144  1  0  0  0  0
144145  2  0  0  0  0
144146  1  0  0  0  0
146147  2  0  0  0  0
147148  1  0  0  0  0
148149  1  0  0  0  0
148150  2  0  0  0  0
150151  1  0  0  0  0
151152  2  0  0  0  0
152153  1  0  0  0  0
153154  2  0  0  0  0
154155  1  0  0  0  0
155156  3  0  0  0  0
154157  1  0  0  0  0
157158  3  0  0  0  0
 13  2  1  0  0  0  0
 56 19  1  0  0  0  0
 99 57  1  0  0  0  0
141104  1  0  0  0  0
153143  1  0  0  0  0
 11  5  1  0  0  0  0
 28 22  1  0  0  0  0
 35 29  1  0  0  0  0
 55 36  2  0  0  0  0
 66 59  1  0  0  0  0
 98 67  2  0  0  0  0
113107  1  0  0  0  0
120114  1  0  0  0  0
140121  2  0  0  0  0
152146  1  0  0  0  0
 47 41  1  0  0  0  0
 54 48  1  0  0  0  0
 97 69  2  0  0  0  0
132126  1  0  0  0  0
139133  1  0  0  0  0
 95 70  2  0  0  0  0
 75 71  2  0  0  0  0
 94 76  2  0  0  0  0
 92 77  2  0  0  0  0
 91 79  2  0  0  0  0
 88 81  1  0  0  0  0
  1159  1  0  0  0  0
  7160  1  0  0  0  0
  8161  1  0  0  0  0
 23162  1  0  0  0  0
 24163  1  0  0  0  0
 26164  1  0  0  0  0
 26165  1  0  0  0  0
 26166  1  0  0  0  0
 27167  1  0  0  0  0
 28168  1  0  0  0  0
 30169  1  0  0  0  0
 31170  1  0  0  0  0
 33171  1  0  0  0  0
 33172  1  0  0  0  0
 33173  1  0  0  0  0
 34174  1  0  0  0  0
 35175  1  0  0  0  0
 42176  1  0  0  0  0
 43177  1  0  0  0  0
 45178  1  0  0  0  0
 45179  1  0  0  0  0
 45180  1  0  0  0  0
 46181  1  0  0  0  0
 47182  1  0  0  0  0
 49183  1  0  0  0  0
 50184  1  0  0  0  0
 52185  1  0  0  0  0
 52186  1  0  0  0  0
 52187  1  0  0  0  0
 53188  1  0  0  0  0
 54189  1  0  0  0  0
 60190  1  0  0  0  0
 61191  1  0  0  0  0
 62192  1  0  0  0  0
 64193  1  0  0  0  0
 64194  1  0  0  0  0
 65195  1  0  0  0  0
 65196  1  0  0  0  0
 65197  1  0  0  0  0
 66198  1  0  0  0  0
 82199  1  0  0  0  0
 83200  1  0  0  0  0
 84201  1  0  0  0  0
 86202  1  0  0  0  0
 86203  1  0  0  0  0
 87204  1  0  0  0  0
 87205  1  0  0  0  0
 87206  1  0  0  0  0
 88207  1  0  0  0  0
100208  1  0  0  0  0
100209  1  0  0  0  0
101210  1  0  0  0  0
101211  1  0  0  0  0
101212  1  0  0  0  0
102213  1  0  0  0  0
102214  1  0  0  0  0
103215  1  0  0  0  0
103216  1  0  0  0  0
103217  1  0  0  0  0
108218  1  0  0  0  0
109219  1  0  0  0  0
111220  1  0  0  0  0
111221  1  0  0  0  0
111222  1  0  0  0  0
112223  1  0  0  0  0
113224  1  0  0  0  0
115225  1  0  0  0  0
116226  1  0  0  0  0
118227  1  0  0  0  0
118228  1  0  0  0  0
118229  1  0  0  0  0
119230  1  0  0  0  0
120231  1  0  0  0  0
127232  1  0  0  0  0
128233  1  0  0  0  0
130234  1  0  0  0  0
130235  1  0  0  0  0
130236  1  0  0  0  0
131237  1  0  0  0  0
132238  1  0  0  0  0
134239  1  0  0  0  0
135240  1  0  0  0  0
137241  1  0  0  0  0
137242  1  0  0  0  0
137243  1  0  0  0  0
138244  1  0  0  0  0
139245  1  0  0  0  0
142246  1  0  0  0  0
147247  1  0  0  0  0
150248  1  0  0  0  0
151249  1  0  0  0  0
M  END
