
  xtb     02052218273D
 energy: -418.349270720537 gnorm: 0.000451898221 xtb: 6.4.1 (unknown)
249274  0     0  0            999 V2000
   -5.9323   -3.3683    3.6932 C   0  0  0  0  0  0  0  0  0  0  0  0
   -5.2566   -4.5434    3.9006 C   0  0  0  0  0  0  0  0  0  0  0  0
   -5.7850   -5.8050    3.3444 C   0  0  0  0  0  0  0  0  0  0  0  0
   -6.8856   -5.9970    2.8798 O   0  0  0  0  0  0  0  0  0  0  0  0
   -4.6524   -6.7614    3.4399 C   0  0  0  0  0  0  0  0  0  0  0  0
   -3.5876   -6.1567    4.1348 C   0  0  0  0  0  0  0  0  0  0  0  0
   -2.3923   -6.8309    4.3096 C   0  0  0  0  0  0  0  0  0  0  0  0
   -2.2689   -8.1070    3.7786 C   0  0  0  0  0  0  0  0  0  0  0  0
   -3.3185   -8.7016    3.0971 C   0  0  0  0  0  0  0  0  0  0  0  0
   -3.0858  -10.4403    2.3897 Br  0  0  0  0  0  0  0  0  0  0  0  0
   -4.5364   -8.0370    2.9164 C   0  0  0  0  0  0  0  0  0  0  0  0
   -5.8298   -8.7689    2.0661 Cl  0  0  0  0  0  0  0  0  0  0  0  0
   -4.0061   -4.8201    4.5527 C   0  0  0  0  0  0  0  0  0  0  0  0
   -3.4432   -4.0959    5.5768 C   0  0  0  0  0  0  0  0  0  0  0  0
   -4.0514   -2.9583    6.1413 C   0  0  0  0  0  0  0  0  0  0  0  0
   -4.5444   -2.0641    6.6697 N   0  0  0  0  0  0  0  0  0  0  0  0
   -2.2604   -4.4638    6.2444 C   0  0  0  0  0  0  0  0  0  0  0  0
   -1.2941   -4.7122    6.8135 N   0  0  0  0  0  0  0  0  0  0  0  0
   -5.4044   -2.0708    3.7463 C   0  0  0  0  0  0  0  0  0  0  0  0
   -6.0782   -0.8761    4.0621 C   0  0  0  0  0  0  0  0  0  0  0  0
   -7.4165   -0.7476    4.2910 N   0  0  0  0  0  0  0  0  0  0  0  0
   -7.8672    0.1565    5.2748 C   0  0  0  0  0  0  0  0  0  0  0  0
   -8.9480    0.9916    5.0116 C   0  0  0  0  0  0  0  0  0  0  0  0
   -9.4000    1.8591    5.9858 C   0  0  0  0  0  0  0  0  0  0  0  0
   -8.7963    1.9061    7.2372 C   0  0  0  0  0  0  0  0  0  0  0  0
   -9.2756    2.8625    8.2850 C   0  0  0  0  0  0  0  0  0  0  0  0
   -7.7247    1.0573    7.4893 C   0  0  0  0  0  0  0  0  0  0  0  0
   -7.2521    0.1925    6.5223 C   0  0  0  0  0  0  0  0  0  0  0  0
   -8.3640   -1.4952    3.5736 C   0  0  0  0  0  0  0  0  0  0  0  0
   -9.4897   -2.0027    4.2155 C   0  0  0  0  0  0  0  0  0  0  0  0
  -10.4155   -2.7406    3.5046 C   0  0  0  0  0  0  0  0  0  0  0  0
  -10.2465   -2.9919    2.1479 C   0  0  0  0  0  0  0  0  0  0  0  0
  -11.2251   -3.8344    1.3928 C   0  0  0  0  0  0  0  0  0  0  0  0
   -9.1267   -2.4662    1.5123 C   0  0  0  0  0  0  0  0  0  0  0  0
   -8.1961   -1.7226    2.2088 C   0  0  0  0  0  0  0  0  0  0  0  0
   -5.1625    0.1974    4.1676 C   0  0  0  0  0  0  0  0  0  0  0  0
   -5.3117    1.8742    4.5717 S   0  0  0  0  0  0  0  0  0  0  0  0
   -3.6072    2.1272    4.2486 C   0  0  0  0  0  0  0  0  0  0  0  0
   -2.9678    0.9617    3.8587 C   0  0  0  0  0  0  0  0  0  0  0  0
   -1.6110    0.8896    3.5550 N   0  0  0  0  0  0  0  0  0  0  0  0
   -1.1875    0.3340    2.3452 C   0  0  0  0  0  0  0  0  0  0  0  0
   -2.0361    0.2946    1.2401 C   0  0  0  0  0  0  0  0  0  0  0  0
   -1.5926   -0.2190    0.0367 C   0  0  0  0  0  0  0  0  0  0  0  0
   -0.2948   -0.6911   -0.1134 C   0  0  0  0  0  0  0  0  0  0  0  0
    0.1976   -1.1841   -1.4414 C   0  0  0  0  0  0  0  0  0  0  0  0
    0.5411   -0.6669    0.9975 C   0  0  0  0  0  0  0  0  0  0  0  0
    0.1042   -0.1760    2.2112 C   0  0  0  0  0  0  0  0  0  0  0  0
   -0.7101    1.5342    4.4230 C   0  0  0  0  0  0  0  0  0  0  0  0
    0.3322    2.3175    3.9352 C   0  0  0  0  0  0  0  0  0  0  0  0
    1.1681    2.9801    4.8111 C   0  0  0  0  0  0  0  0  0  0  0  0
    0.9973    2.8777    6.1865 C   0  0  0  0  0  0  0  0  0  0  0  0
    1.9134    3.6095    7.1173 C   0  0  0  0  0  0  0  0  0  0  0  0
   -0.0337    2.0794    6.6647 C   0  0  0  0  0  0  0  0  0  0  0  0
   -0.8797    1.4155    5.7992 C   0  0  0  0  0  0  0  0  0  0  0  0
   -3.8588   -0.1331    3.8331 C   0  0  0  0  0  0  0  0  0  0  0  0
   -3.6849   -1.8016    3.4437 S   0  0  0  0  0  0  0  0  0  0  0  0
   -2.9390    3.4082    4.1143 C   0  0  0  0  0  0  0  0  0  0  0  0
   -2.2767    4.2581    4.9810 C   0  0  0  0  0  0  0  0  0  0  0  0
   -2.4183    4.2316    6.4355 C   0  0  0  0  0  0  0  0  0  0  0  0
   -1.4788    4.8450    7.2645 C   0  0  0  0  0  0  0  0  0  0  0  0
   -1.5983    4.7729    8.6380 C   0  0  0  0  0  0  0  0  0  0  0  0
   -2.6449    4.0786    9.2177 C   0  0  0  0  0  0  0  0  0  0  0  0
   -3.6049    3.4776    8.4152 C   0  0  0  0  0  0  0  0  0  0  0  0
   -4.7182    2.6683    9.0132 C   0  0  0  0  0  0  0  0  0  0  0  0
   -4.3370    1.1859    9.0120 C   0  0  0  0  0  0  0  0  0  0  0  0
   -3.4908    3.5773    7.0380 C   0  0  0  0  0  0  0  0  0  0  0  0
   -1.3581    5.0803    4.2622 C   0  0  0  0  0  0  0  0  0  0  0  0
   -0.0097    6.1069    4.7306 S   0  0  0  0  0  0  0  0  0  0  0  0
    0.5863    6.0981    3.1004 C   0  0  0  0  0  0  0  0  0  0  0  0
    1.7939    6.2951    2.3977 C   0  0  0  0  0  0  0  0  0  0  0  0
    3.1159    6.5557    2.8327 C   0  0  0  0  0  0  0  0  0  0  0  0
    4.2266    6.1573    1.9968 C   0  0  0  0  0  0  0  0  0  0  0  0
    5.3903    6.3153    2.6049 N   0  0  0  0  0  0  0  0  0  0  0  0
    5.1293    6.9261    4.0823 S   0  0  0  0  0  0  0  0  0  0  0  0
    3.5124    6.9961    4.0146 N   0  0  0  0  0  0  0  0  0  0  0  0
    3.9769    5.6498    0.7002 C   0  0  0  0  0  0  0  0  0  0  0  0
    4.7589    4.9840   -0.2716 C   0  0  0  0  0  0  0  0  0  0  0  0
    6.2864    4.1672   -0.4043 S   0  0  0  0  0  0  0  0  0  0  0  0
    5.7224    3.3218   -1.8348 C   0  0  0  0  0  0  0  0  0  0  0  0
    6.1521    2.1630   -2.5348 C   0  0  0  0  0  0  0  0  0  0  0  0
    7.4368    1.4895   -2.3749 C   0  0  0  0  0  0  0  0  0  0  0  0
    8.1805    1.6276   -1.2054 C   0  0  0  0  0  0  0  0  0  0  0  0
    9.4163    1.0202   -1.0931 C   0  0  0  0  0  0  0  0  0  0  0  0
    9.9342    0.2827   -2.1413 C   0  0  0  0  0  0  0  0  0  0  0  0
    9.2112    0.1302   -3.3197 C   0  0  0  0  0  0  0  0  0  0  0  0
    9.7872   -0.6455   -4.4725 C   0  0  0  0  0  0  0  0  0  0  0  0
   10.1037   -2.0944   -4.1034 C   0  0  0  0  0  0  0  0  0  0  0  0
    7.9677    0.7317   -3.4199 C   0  0  0  0  0  0  0  0  0  0  0  0
    5.1836    1.7489   -3.4317 C   0  0  0  0  0  0  0  0  0  0  0  0
    3.8161    2.8567   -3.5347 S   0  0  0  0  0  0  0  0  0  0  0  0
    4.4681    3.7759   -2.2357 C   0  0  0  0  0  0  0  0  0  0  0  0
    3.9156    4.6987   -1.3458 C   0  0  0  0  0  0  0  0  0  0  0  0
    2.6470    5.1579   -1.0984 N   0  0  0  0  0  0  0  0  0  0  0  0
    2.6542    5.6622    0.1896 C   0  0  0  0  0  0  0  0  0  0  0  0
    1.5694    5.8149    1.0811 C   0  0  0  0  0  0  0  0  0  0  0  0
    0.2848    5.3206    0.9896 N   0  0  0  0  0  0  0  0  0  0  0  0
   -0.2905    5.4605    2.2226 C   0  0  0  0  0  0  0  0  0  0  0  0
   -1.3758    4.8763    2.8867 C   0  0  0  0  0  0  0  0  0  0  0  0
   -2.5508    3.7120    2.4242 S   0  0  0  0  0  0  0  0  0  0  0  0
   -0.2849    4.4154    0.0180 C   0  0  0  0  0  0  0  0  0  0  0  0
   -1.4753    5.0361   -0.7081 C   0  0  0  0  0  0  0  0  0  0  0  0
    1.7722    5.5611   -2.1785 C   0  0  0  0  0  0  0  0  0  0  0  0
    2.4648    6.5639   -3.0999 C   0  0  0  0  0  0  0  0  0  0  0  0
    4.9154    0.4431   -3.9618 C   0  0  0  0  0  0  0  0  0  0  0  0
    4.8122   -0.7138   -3.2061 C   0  0  0  0  0  0  0  0  0  0  0  0
    5.2444   -0.8787   -1.8974 N   0  0  0  0  0  0  0  0  0  0  0  0
    4.8451    0.0219   -0.9026 C   0  0  0  0  0  0  0  0  0  0  0  0
    3.6151    0.6689   -0.9747 C   0  0  0  0  0  0  0  0  0  0  0  0
    3.2268    1.5423    0.0237 C   0  0  0  0  0  0  0  0  0  0  0  0
    4.0442    1.7839    1.1180 C   0  0  0  0  0  0  0  0  0  0  0  0
    3.6179    2.6846    2.2336 C   0  0  0  0  0  0  0  0  0  0  0  0
    5.2739    1.1358    1.1809 C   0  0  0  0  0  0  0  0  0  0  0  0
    5.6754    0.2677    0.1889 C   0  0  0  0  0  0  0  0  0  0  0  0
    5.8138   -2.1166   -1.5672 C   0  0  0  0  0  0  0  0  0  0  0  0
    6.6325   -2.7594   -2.4917 C   0  0  0  0  0  0  0  0  0  0  0  0
    7.1769   -3.9949   -2.2011 C   0  0  0  0  0  0  0  0  0  0  0  0
    6.9353   -4.6158   -0.9834 C   0  0  0  0  0  0  0  0  0  0  0  0
    7.5143   -5.9607   -0.6674 C   0  0  0  0  0  0  0  0  0  0  0  0
    6.1195   -3.9652   -0.0643 C   0  0  0  0  0  0  0  0  0  0  0  0
    5.5576   -2.7378   -0.3474 C   0  0  0  0  0  0  0  0  0  0  0  0
    4.0870   -1.7134   -3.8945 C   0  0  0  0  0  0  0  0  0  0  0  0
    3.3777   -3.1750   -3.3421 S   0  0  0  0  0  0  0  0  0  0  0  0
    2.4613   -3.3147   -4.8441 C   0  0  0  0  0  0  0  0  0  0  0  0
    2.7817   -2.2721   -5.7561 C   0  0  0  0  0  0  0  0  0  0  0  0
    2.2402   -2.1128   -7.0056 N   0  0  0  0  0  0  0  0  0  0  0  0
    1.9233   -0.8141   -7.4445 C   0  0  0  0  0  0  0  0  0  0  0  0
    2.2367   -0.3981   -8.7343 C   0  0  0  0  0  0  0  0  0  0  0  0
    1.9184    0.8819   -9.1429 C   0  0  0  0  0  0  0  0  0  0  0  0
    1.2910    1.7765   -8.2841 C   0  0  0  0  0  0  0  0  0  0  0  0
    0.9795    3.1750   -8.7191 C   0  0  0  0  0  0  0  0  0  0  0  0
    0.9762    1.3493   -6.9994 C   0  0  0  0  0  0  0  0  0  0  0  0
    1.2804    0.0701   -6.5812 C   0  0  0  0  0  0  0  0  0  0  0  0
    2.1186   -3.1922   -7.8979 C   0  0  0  0  0  0  0  0  0  0  0  0
    1.0390   -3.2582   -8.7734 C   0  0  0  0  0  0  0  0  0  0  0  0
    0.9402   -4.3049   -9.6687 C   0  0  0  0  0  0  0  0  0  0  0  0
    1.9031   -5.3053   -9.7120 C   0  0  0  0  0  0  0  0  0  0  0  0
    1.7763   -6.4620  -10.6491 C   0  0  0  0  0  0  0  0  0  0  0  0
    2.9802   -5.2264   -8.8345 C   0  0  0  0  0  0  0  0  0  0  0  0
    3.0935   -4.1868   -7.9368 C   0  0  0  0  0  0  0  0  0  0  0  0
    3.6421   -1.3371   -5.1562 C   0  0  0  0  0  0  0  0  0  0  0  0
    4.1669    0.2739   -5.5486 S   0  0  0  0  0  0  0  0  0  0  0  0
    1.4171   -4.2222   -5.0310 C   0  0  0  0  0  0  0  0  0  0  0  0
    0.6332   -4.8528   -4.0849 C   0  0  0  0  0  0  0  0  0  0  0  0
    0.6698   -4.6374   -2.6343 C   0  0  0  0  0  0  0  0  0  0  0  0
    1.6021   -4.2724   -1.9465 O   0  0  0  0  0  0  0  0  0  0  0  0
   -0.6926   -4.9721   -2.1520 C   0  0  0  0  0  0  0  0  0  0  0  0
   -1.4260   -5.5472   -3.2061 C   0  0  0  0  0  0  0  0  0  0  0  0
   -2.7387   -5.9409   -3.0090 C   0  0  0  0  0  0  0  0  0  0  0  0
   -3.3185   -5.7115   -1.7686 C   0  0  0  0  0  0  0  0  0  0  0  0
   -2.6000   -5.1185   -0.7438 C   0  0  0  0  0  0  0  0  0  0  0  0
   -3.4631   -4.7601    0.9013 Br  0  0  0  0  0  0  0  0  0  0  0  0
   -1.2576   -4.7575   -0.9061 C   0  0  0  0  0  0  0  0  0  0  0  0
   -0.3766   -4.0536    0.3850 Cl  0  0  0  0  0  0  0  0  0  0  0  0
   -0.5738   -5.5800   -4.3943 C   0  0  0  0  0  0  0  0  0  0  0  0
   -0.8573   -6.2419   -5.5631 C   0  0  0  0  0  0  0  0  0  0  0  0
   -2.0754   -6.8985   -5.8249 C   0  0  0  0  0  0  0  0  0  0  0  0
   -3.0558   -7.4288   -6.1020 N   0  0  0  0  0  0  0  0  0  0  0  0
    0.0676   -6.4332   -6.6077 C   0  0  0  0  0  0  0  0  0  0  0  0
    0.7830   -6.6898   -7.4691 N   0  0  0  0  0  0  0  0  0  0  0  0
   -6.9712   -3.4825    3.4048 H   0  0  0  0  0  0  0  0  0  0  0  0
   -1.5603   -6.3814    4.8263 H   0  0  0  0  0  0  0  0  0  0  0  0
   -1.3425   -8.6493    3.8901 H   0  0  0  0  0  0  0  0  0  0  0  0
   -9.4264    0.9553    4.0438 H   0  0  0  0  0  0  0  0  0  0  0  0
  -10.2357    2.5092    5.7713 H   0  0  0  0  0  0  0  0  0  0  0  0
  -10.3380    3.0643    8.1718 H   0  0  0  0  0  0  0  0  0  0  0  0
   -8.7418    3.8095    8.1944 H   0  0  0  0  0  0  0  0  0  0  0  0
   -9.0934    2.4691    9.2823 H   0  0  0  0  0  0  0  0  0  0  0  0
   -7.2632    1.0614    8.4646 H   0  0  0  0  0  0  0  0  0  0  0  0
   -6.4251   -0.4697    6.7319 H   0  0  0  0  0  0  0  0  0  0  0  0
   -9.6246   -1.8259    5.2721 H   0  0  0  0  0  0  0  0  0  0  0  0
  -11.2788   -3.1393    4.0164 H   0  0  0  0  0  0  0  0  0  0  0  0
  -12.2022   -3.8213    1.8693 H   0  0  0  0  0  0  0  0  0  0  0  0
  -11.3246   -3.4902    0.3658 H   0  0  0  0  0  0  0  0  0  0  0  0
  -10.8733   -4.8662    1.3682 H   0  0  0  0  0  0  0  0  0  0  0  0
   -8.9814   -2.6429    0.4568 H   0  0  0  0  0  0  0  0  0  0  0  0
   -7.3305   -1.3190    1.7040 H   0  0  0  0  0  0  0  0  0  0  0  0
   -3.0407    0.6843    1.3192 H   0  0  0  0  0  0  0  0  0  0  0  0
   -2.2680   -0.2382   -0.8075 H   0  0  0  0  0  0  0  0  0  0  0  0
    0.5646   -0.3462   -2.0375 H   0  0  0  0  0  0  0  0  0  0  0  0
   -0.6051   -1.6635   -2.0011 H   0  0  0  0  0  0  0  0  0  0  0  0
    1.0138   -1.8928   -1.3192 H   0  0  0  0  0  0  0  0  0  0  0  0
    1.5509   -1.0422    0.9110 H   0  0  0  0  0  0  0  0  0  0  0  0
    0.7653   -0.1815    3.0648 H   0  0  0  0  0  0  0  0  0  0  0  0
    0.4731    2.4148    2.8681 H   0  0  0  0  0  0  0  0  0  0  0  0
    1.9568    3.6081    4.4227 H   0  0  0  0  0  0  0  0  0  0  0  0
    2.1549    4.5939    6.7205 H   0  0  0  0  0  0  0  0  0  0  0  0
    2.8469    3.0584    7.2363 H   0  0  0  0  0  0  0  0  0  0  0  0
    1.4573    3.7223    8.0973 H   0  0  0  0  0  0  0  0  0  0  0  0
   -0.1844    1.9799    7.7293 H   0  0  0  0  0  0  0  0  0  0  0  0
   -1.6830    0.8059    6.1864 H   0  0  0  0  0  0  0  0  0  0  0  0
   -0.6393    5.3708    6.8447 H   0  0  0  0  0  0  0  0  0  0  0  0
   -0.8608    5.2570    9.2615 H   0  0  0  0  0  0  0  0  0  0  0  0
   -2.7222    4.0097   10.2933 H   0  0  0  0  0  0  0  0  0  0  0  0
   -4.9070    2.9942   10.0381 H   0  0  0  0  0  0  0  0  0  0  0  0
   -5.6305    2.8098    8.4302 H   0  0  0  0  0  0  0  0  0  0  0  0
   -3.3998    1.0374    9.5442 H   0  0  0  0  0  0  0  0  0  0  0  0
   -5.1036    0.5872    9.4979 H   0  0  0  0  0  0  0  0  0  0  0  0
   -4.2127    0.8244    7.9942 H   0  0  0  0  0  0  0  0  0  0  0  0
   -4.2658    3.1423    6.4303 H   0  0  0  0  0  0  0  0  0  0  0  0
    7.7902    2.2019   -0.3810 H   0  0  0  0  0  0  0  0  0  0  0  0
    9.9852    1.1341   -0.1821 H   0  0  0  0  0  0  0  0  0  0  0  0
   10.9127   -0.1645   -2.0501 H   0  0  0  0  0  0  0  0  0  0  0  0
    9.0829   -0.6305   -5.3071 H   0  0  0  0  0  0  0  0  0  0  0  0
   10.7066   -0.1549   -4.8052 H   0  0  0  0  0  0  0  0  0  0  0  0
   10.8652   -2.1414   -3.3294 H   0  0  0  0  0  0  0  0  0  0  0  0
    9.2133   -2.5936   -3.7315 H   0  0  0  0  0  0  0  0  0  0  0  0
   10.4690   -2.6325   -4.9754 H   0  0  0  0  0  0  0  0  0  0  0  0
    7.4097    0.6410   -4.3413 H   0  0  0  0  0  0  0  0  0  0  0  0
    0.4905    4.1022   -0.6785 H   0  0  0  0  0  0  0  0  0  0  0  0
   -0.6313    3.5221    0.5522 H   0  0  0  0  0  0  0  0  0  0  0  0
   -1.8582    4.3380   -1.4467 H   0  0  0  0  0  0  0  0  0  0  0  0
   -1.1990    5.9612   -1.2090 H   0  0  0  0  0  0  0  0  0  0  0  0
   -2.2686    5.2568    0.0012 H   0  0  0  0  0  0  0  0  0  0  0  0
    1.4832    4.6759   -2.7562 H   0  0  0  0  0  0  0  0  0  0  0  0
    0.8862    6.0268   -1.7500 H   0  0  0  0  0  0  0  0  0  0  0  0
    3.3289    6.1111   -3.5792 H   0  0  0  0  0  0  0  0  0  0  0  0
    1.7727    6.8915   -3.8710 H   0  0  0  0  0  0  0  0  0  0  0  0
    2.7951    7.4320   -2.5334 H   0  0  0  0  0  0  0  0  0  0  0  0
    2.9561    0.4723   -1.8079 H   0  0  0  0  0  0  0  0  0  0  0  0
    2.2618    2.0261   -0.0420 H   0  0  0  0  0  0  0  0  0  0  0  0
    4.4238    3.3626    2.5090 H   0  0  0  0  0  0  0  0  0  0  0  0
    2.7459    3.2711    1.9534 H   0  0  0  0  0  0  0  0  0  0  0  0
    3.3654    2.0894    3.1114 H   0  0  0  0  0  0  0  0  0  0  0  0
    5.9253    1.3207    2.0225 H   0  0  0  0  0  0  0  0  0  0  0  0
    6.6321   -0.2291    0.2460 H   0  0  0  0  0  0  0  0  0  0  0  0
    6.8359   -2.2812   -3.4391 H   0  0  0  0  0  0  0  0  0  0  0  0
    7.8029   -4.4859   -2.9331 H   0  0  0  0  0  0  0  0  0  0  0  0
    8.2981   -6.2237   -1.3734 H   0  0  0  0  0  0  0  0  0  0  0  0
    6.7371   -6.7235   -0.7181 H   0  0  0  0  0  0  0  0  0  0  0  0
    7.9281   -5.9745    0.3392 H   0  0  0  0  0  0  0  0  0  0  0  0
    5.9085   -4.4367    0.8845 H   0  0  0  0  0  0  0  0  0  0  0  0
    4.9073   -2.2617    0.3707 H   0  0  0  0  0  0  0  0  0  0  0  0
    2.7338   -1.0798   -9.4081 H   0  0  0  0  0  0  0  0  0  0  0  0
    2.1713    1.1941  -10.1455 H   0  0  0  0  0  0  0  0  0  0  0  0
    0.9244    3.2430   -9.8025 H   0  0  0  0  0  0  0  0  0  0  0  0
    0.0361    3.5117   -8.2947 H   0  0  0  0  0  0  0  0  0  0  0  0
    1.7622    3.8522   -8.3755 H   0  0  0  0  0  0  0  0  0  0  0  0
    0.4818    2.0267   -6.3184 H   0  0  0  0  0  0  0  0  0  0  0  0
    1.0185   -0.2551   -5.5843 H   0  0  0  0  0  0  0  0  0  0  0  0
    0.2805   -2.4891   -8.7426 H   0  0  0  0  0  0  0  0  0  0  0  0
    0.0924   -4.3503  -10.3364 H   0  0  0  0  0  0  0  0  0  0  0  0
    2.7415   -6.7231  -11.0780 H   0  0  0  0  0  0  0  0  0  0  0  0
    1.0759   -6.2440  -11.4513 H   0  0  0  0  0  0  0  0  0  0  0  0
    1.4087   -7.3256  -10.0958 H   0  0  0  0  0  0  0  0  0  0  0  0
    3.7384   -5.9945   -8.8558 H   0  0  0  0  0  0  0  0  0  0  0  0
    3.9354   -4.1327   -7.2620 H   0  0  0  0  0  0  0  0  0  0  0  0
    1.0844   -4.3262   -6.0591 H   0  0  0  0  0  0  0  0  0  0  0  0
   -3.3191   -6.3970   -3.7936 H   0  0  0  0  0  0  0  0  0  0  0  0
   -4.3476   -5.9873   -1.5970 H   0  0  0  0  0  0  0  0  0  0  0  0
  1  2  2  0  0  0  0
  2  3  1  0  0  0  0
  3  4  2  0  0  0  0
  3  5  1  0  0  0  0
  5  6  2  0  0  0  0
  6  7  1  0  0  0  0
  7  8  2  0  0  0  0
  8  9  1  0  0  0  0
  9 10  1  0  0  0  0
  9 11  2  0  0  0  0
 11 12  1  0  0  0  0
  6 13  1  0  0  0  0
 13 14  2  0  0  0  0
 14 15  1  0  0  0  0
 15 16  3  0  0  0  0
 14 17  1  0  0  0  0
 17 18  3  0  0  0  0
  1 19  1  0  0  0  0
 19 20  2  0  0  0  0
 20 21  1  0  0  0  0
 21 22  1  0  0  0  0
 22 23  2  0  0  0  0
 23 24  1  0  0  0  0
 24 25  2  0  0  0  0
 25 26  1  0  0  0  0
 25 27  1  0  0  0  0
 27 28  2  0  0  0  0
 21 29  1  0  0  0  0
 29 30  2  0  0  0  0
 30 31  1  0  0  0  0
 31 32  2  0  0  0  0
 32 33  1  0  0  0  0
 32 34  1  0  0  0  0
 34 35  2  0  0  0  0
 20 36  1  0  0  0  0
 36 37  1  0  0  0  0
 37 38  1  0  0  0  0
 38 39  2  0  0  0  0
 39 40  1  0  0  0  0
 40 41  1  0  0  0  0
 41 42  2  0  0  0  0
 42 43  1  0  0  0  0
 43 44  2  0  0  0  0
 44 45  1  0  0  0  0
 44 46  1  0  0  0  0
 46 47  2  0  0  0  0
 40 48  1  0  0  0  0
 48 49  2  0  0  0  0
 49 50  1  0  0  0  0
 50 51  2  0  0  0  0
 51 52  1  0  0  0  0
 51 53  1  0  0  0  0
 53 54  2  0  0  0  0
 39 55  1  0  0  0  0
 55 56  1  0  0  0  0
 38 57  1  0  0  0  0
 57 58  2  0  0  0  0
 58 59  1  0  0  0  0
 59 60  2  0  0  0  0
 60 61  1  0  0  0  0
 61 62  2  0  0  0  0
 62 63  1  0  0  0  0
 63 64  1  0  0  0  0
 64 65  1  0  0  0  0
 63 66  2  0  0  0  0
 58 67  1  0  0  0  0
 67 68  1  0  0  0  0
 68 69  1  0  0  0  0
 69 70  1  0  0  0  0
 70 71  1  0  0  0  0
 71 72  1  0  0  0  0
 72 73  2  0  0  0  0
 73 74  1  0  0  0  0
 74 75  1  0  0  0  0
 72 76  1  0  0  0  0
 76 77  1  0  0  0  0
 77 78  1  0  0  0  0
 78 79  1  0  0  0  0
 79 80  1  0  0  0  0
 80 81  1  0  0  0  0
 81 82  2  0  0  0  0
 82 83  1  0  0  0  0
 83 84  2  0  0  0  0
 84 85  1  0  0  0  0
 85 86  1  0  0  0  0
 86 87  1  0  0  0  0
 85 88  2  0  0  0  0
 80 89  2  0  0  0  0
 89 90  1  0  0  0  0
 90 91  1  0  0  0  0
 91 92  1  0  0  0  0
 92 93  1  0  0  0  0
 93 94  1  0  0  0  0
 94 95  1  0  0  0  0
 95 96  1  0  0  0  0
 96 97  1  0  0  0  0
 97 98  1  0  0  0  0
 98 99  1  0  0  0  0
 96100  1  0  0  0  0
100101  1  0  0  0  0
 93102  1  0  0  0  0
102103  1  0  0  0  0
 89104  1  0  0  0  0
104105  2  0  0  0  0
105106  1  0  0  0  0
106107  1  0  0  0  0
107108  2  0  0  0  0
108109  1  0  0  0  0
109110  2  0  0  0  0
110111  1  0  0  0  0
110112  1  0  0  0  0
112113  2  0  0  0  0
106114  1  0  0  0  0
114115  2  0  0  0  0
115116  1  0  0  0  0
116117  2  0  0  0  0
117118  1  0  0  0  0
117119  1  0  0  0  0
119120  2  0  0  0  0
105121  1  0  0  0  0
121122  1  0  0  0  0
122123  1  0  0  0  0
123124  2  0  0  0  0
124125  1  0  0  0  0
125126  1  0  0  0  0
126127  2  0  0  0  0
127128  1  0  0  0  0
128129  2  0  0  0  0
129130  1  0  0  0  0
129131  1  0  0  0  0
131132  2  0  0  0  0
125133  1  0  0  0  0
133134  2  0  0  0  0
134135  1  0  0  0  0
135136  2  0  0  0  0
136137  1  0  0  0  0
136138  1  0  0  0  0
138139  2  0  0  0  0
124140  1  0  0  0  0
140141  1  0  0  0  0
123142  1  0  0  0  0
142143  2  0  0  0  0
143144  1  0  0  0  0
144145  2  0  0  0  0
144146  1  0  0  0  0
146147  2  0  0  0  0
147148  1  0  0  0  0
148149  2  0  0  0  0
149150  1  0  0  0  0
150151  1  0  0  0  0
150152  2  0  0  0  0
152153  1  0  0  0  0
147154  1  0  0  0  0
154155  2  0  0  0  0
155156  1  0  0  0  0
156157  3  0  0  0  0
155158  1  0  0  0  0
158159  3  0  0  0  0
 13  2  1  0  0  0  0
 56 19  1  0  0  0  0
 99 57  1  0  0  0  0
141104  1  0  0  0  0
154143  1  0  0  0  0
 11  5  1  0  0  0  0
 28 22  1  0  0  0  0
 35 29  1  0  0  0  0
 55 36  2  0  0  0  0
 66 59  1  0  0  0  0
 98 67  2  0  0  0  0
113107  1  0  0  0  0
120114  1  0  0  0  0
140121  2  0  0  0  0
152146  1  0  0  0  0
 47 41  1  0  0  0  0
 54 48  1  0  0  0  0
 97 69  2  0  0  0  0
132126  1  0  0  0  0
139133  1  0  0  0  0
 95 70  2  0  0  0  0
 75 71  2  0  0  0  0
 94 76  2  0  0  0  0
 92 77  2  0  0  0  0
 91 79  2  0  0  0  0
 88 81  1  0  0  0  0
  1160  1  0  0  0  0
  7161  1  0  0  0  0
  8162  1  0  0  0  0
 23163  1  0  0  0  0
 24164  1  0  0  0  0
 26165  1  0  0  0  0
 26166  1  0  0  0  0
 26167  1  0  0  0  0
 27168  1  0  0  0  0
 28169  1  0  0  0  0
 30170  1  0  0  0  0
 31171  1  0  0  0  0
 33172  1  0  0  0  0
 33173  1  0  0  0  0
 33174  1  0  0  0  0
 34175  1  0  0  0  0
 35176  1  0  0  0  0
 42177  1  0  0  0  0
 43178  1  0  0  0  0
 45179  1  0  0  0  0
 45180  1  0  0  0  0
 45181  1  0  0  0  0
 46182  1  0  0  0  0
 47183  1  0  0  0  0
 49184  1  0  0  0  0
 50185  1  0  0  0  0
 52186  1  0  0  0  0
 52187  1  0  0  0  0
 52188  1  0  0  0  0
 53189  1  0  0  0  0
 54190  1  0  0  0  0
 60191  1  0  0  0  0
 61192  1  0  0  0  0
 62193  1  0  0  0  0
 64194  1  0  0  0  0
 64195  1  0  0  0  0
 65196  1  0  0  0  0
 65197  1  0  0  0  0
 65198  1  0  0  0  0
 66199  1  0  0  0  0
 82200  1  0  0  0  0
 83201  1  0  0  0  0
 84202  1  0  0  0  0
 86203  1  0  0  0  0
 86204  1  0  0  0  0
 87205  1  0  0  0  0
 87206  1  0  0  0  0
 87207  1  0  0  0  0
 88208  1  0  0  0  0
100209  1  0  0  0  0
100210  1  0  0  0  0
101211  1  0  0  0  0
101212  1  0  0  0  0
101213  1  0  0  0  0
102214  1  0  0  0  0
102215  1  0  0  0  0
103216  1  0  0  0  0
103217  1  0  0  0  0
103218  1  0  0  0  0
108219  1  0  0  0  0
109220  1  0  0  0  0
111221  1  0  0  0  0
111222  1  0  0  0  0
111223  1  0  0  0  0
112224  1  0  0  0  0
113225  1  0  0  0  0
115226  1  0  0  0  0
116227  1  0  0  0  0
118228  1  0  0  0  0
118229  1  0  0  0  0
118230  1  0  0  0  0
119231  1  0  0  0  0
120232  1  0  0  0  0
127233  1  0  0  0  0
128234  1  0  0  0  0
130235  1  0  0  0  0
130236  1  0  0  0  0
130237  1  0  0  0  0
131238  1  0  0  0  0
132239  1  0  0  0  0
134240  1  0  0  0  0
135241  1  0  0  0  0
137242  1  0  0  0  0
137243  1  0  0  0  0
137244  1  0  0  0  0
138245  1  0  0  0  0
139246  1  0  0  0  0
142247  1  0  0  0  0
148248  1  0  0  0  0
149249  1  0  0  0  0
M  END
