231

C        -10.03610       -2.34530        6.21150
C        -10.21960       -1.14850        6.88440
C         -9.55350        0.11970        6.55220
O         -8.66060        0.32510        5.75490
C        -10.28810        1.16320        7.30920
C        -11.32700        0.56780        8.04420
C        -12.16530        1.35050        8.81970
C        -11.95280        2.72200        8.85100
C        -10.92620        3.30430        8.12580
Br       -10.68170        5.17810        8.21340
C        -10.07290        2.52980        7.33270
Cl        -8.81050        3.24740        6.42840
C        -11.27570       -0.87740        7.82040
C        -12.04810       -1.80240        8.48250
C        -11.84610       -3.19390        8.44550
N        -11.72100       -4.33270        8.53690
C        -13.10260       -1.47510        9.35610
N        -13.98920       -1.27580       10.05920
C         -8.94720       -2.69810        5.41310
C         -8.94500       -3.60360        4.32000
N        -10.01050       -4.33980        3.88190
C        -10.86040       -5.00680        4.78470
C        -10.33030       -5.65890        5.89570
C        -11.16420       -6.34310        6.75360
C        -12.53810       -6.39200        6.53290
C        -13.42390       -7.10940        7.49950
C        -13.05480       -5.74080        5.42040
C        -12.22990       -5.05590        4.54820
C        -10.16330       -4.58430        2.50470
C         -9.97620       -3.55210        1.58830
C        -10.14740       -3.78560        0.23950
C        -10.51540       -5.04110       -0.23070
C        -10.75000       -5.26630       -1.69230
C        -10.69470       -6.06480        0.69110
C        -10.52070       -5.84710        2.04330
C         -7.70070       -3.58790        3.66690
S         -7.06270       -4.40660        2.27610
C         -5.49670       -3.64200        2.52590
C         -5.46350       -2.86210        3.68080
N         -4.34640       -2.22440        4.19880
C         -4.54910       -0.97610        4.82100
C         -5.33980       -0.01690        4.19620
C         -5.57190        1.19910        4.80800
C         -5.01660        1.49310        6.04590
C         -5.27350        2.80320        6.72380
C         -4.22450        0.52940        6.66090
C         -3.99410       -0.69360        6.06550
C         -3.14080       -2.91290        4.36520
C         -3.11320       -4.30050        4.48540
C         -1.91030       -4.96860        4.59530
C         -0.70400       -4.27940        4.61420
C          0.59920       -5.01250        4.70550
C         -0.74030       -2.89260        4.52540
C         -1.93400       -2.21410        4.39250
C         -6.73470       -2.80970        4.29390
S         -7.35720       -1.97880        5.66090
C         -4.49020       -3.78470        1.53550
C         -4.46900       -4.67860        0.47630
C         -5.46420       -5.74040        0.25180
C         -6.38170       -5.57740       -0.78040
C         -7.33720       -6.54310       -1.02860
C         -7.38170       -7.68040       -0.24230
C         -6.45660       -7.85550        0.77050
C         -5.48490       -6.89980        1.03120
C         -4.44130       -7.14930        2.08200
C         -3.18610       -7.75500        1.45050
C         -3.38630       -4.43500       -0.38200
S         -2.82160       -5.22170       -1.83880
C         -1.50140       -4.09890       -1.90850
C         -0.36240       -3.82920       -2.69220
C          0.26470       -4.49800       -3.76920
C          1.55130       -4.03940       -4.23440
N          2.04450       -4.81350       -5.18760
S          0.99030       -6.00470       -5.48570
N         -0.13990       -5.58490       -4.40640
C          2.09200       -2.84200       -3.71120
C          3.22820       -2.06820       -4.01770
S          4.65780       -2.15640       -4.99390
C          5.14070       -0.58960       -4.38900
C          6.27530        0.20860       -4.60670
C          7.40860       -0.16700       -5.47110
C          7.40190        0.12330       -6.83540
C          6.25300        0.84830       -7.47880
C          6.47300        2.36240       -7.45910
C          8.50490       -0.24440       -7.59470
C          9.58460       -0.89260       -7.02410
C          9.57430       -1.19540       -5.67350
C          8.48800       -0.83370       -4.90060
C          6.21150        1.38630       -3.88610
S          4.73560        1.51510       -2.93260
C          4.21860       -0.03360       -3.49670
C          3.13390       -0.88510       -3.27400
N          2.00340       -0.90250       -2.49500
C          1.37730       -2.11260       -2.72750
C          0.25370       -2.69350       -2.10830
N         -0.43970       -2.31600       -0.97180
C         -1.50800       -3.17110       -0.86060
C         -2.58000       -3.36510        0.01420
S         -3.16410       -2.62910        1.45980
C          0.14120       -1.72750        0.21880
C          0.58420       -2.80660        1.20650
C          1.35220        0.33120       -2.10310
C          1.03310        1.19960       -3.31970
C          7.15250        2.44520       -3.81980
S          8.76840        2.29890       -4.46010
C          9.13660        3.91090       -3.93800
C         10.37060        4.58250       -3.98660
C         10.49700        5.76980       -3.24060
O          9.49850        6.29350       -2.50610
C          8.14880        5.96260       -2.89830
C          7.76590        6.90090       -4.03930
C          7.22090        6.46060       -5.23580
C          6.91280        7.36740       -6.23450
C          7.14370        8.72540       -6.06480
C          6.85510        9.69750       -7.17180
C          8.07820        9.84920       -8.07860
C          7.69430        9.15820       -4.86440
C          7.99930        8.25930       -3.86200
C          7.25930        6.18570       -1.68890
C          7.74610        5.95160       -0.41160
C          6.92130        6.10360        0.68760
C          5.59430        6.48250        0.53660
C          4.68320        6.59690        1.72480
C          3.92640        5.28550        1.94540
C          5.11260        6.70740       -0.74690
C          5.93270        6.56320       -1.84970
C          8.05020        4.52060       -3.32410
C          6.93820        3.68850       -3.24990
C         11.78250        6.27100       -3.28030
C         12.66270        5.49730       -4.05090
S         11.83910        4.11120       -4.74260
C         14.00660        5.83850       -4.19980
C         15.02320        5.19680       -4.87650
C         14.88360        3.94400       -5.61310
O         13.86950        3.29030       -5.78440
C         16.23450        3.61520       -6.11810
C         17.13350        4.62260       -5.72200
C         18.46900        4.53480       -6.07770
C         18.88850        3.44130       -6.82280
C         17.99900        2.45170       -7.20870
Br        18.63290        0.98620       -8.21950
C         16.64510        2.52140       -6.86090
Cl        15.54130        1.30110       -7.33330
C         16.39850        5.62780       -4.95060
C         16.95400        6.76410       -4.41510
C         16.26700        7.74870       -3.67600
N         15.79060        8.60120       -3.07020
C         18.31430        7.11460       -4.53430
N         19.40730        7.46280       -4.59000
H        -10.84980       -3.06210        6.25690
H        -12.97440        0.92550        9.38960
H        -12.59530        3.35090        9.44760
H         -9.26540       -5.62430        6.07380
H        -10.74880       -6.84540        7.61300
H        -14.44650       -7.16100        7.13490
H        -13.05960       -8.11950        7.67840
H        -13.41760       -6.57950        8.45120
H        -14.11860       -5.76230        5.23380
H        -12.63880       -4.55220        3.68440
H         -9.70850       -2.56700        1.94220
H        -10.00500       -2.97550       -0.46070
H        -11.74430       -4.91170       -1.96700
H        -10.69020       -6.32350       -1.93850
H        -10.02570       -4.71710       -2.29000
H        -10.97320       -7.04990        0.34690
H        -10.65840       -6.65290        2.74860
H         -5.77350       -0.23230        3.23030
H         -6.19680        1.92800        4.31450
H         -4.36240        3.19180        7.17510
H         -6.00820        2.67140        7.51850
H         -5.66000        3.53760        6.02160
H         -3.79160        0.73660        7.62930
H         -3.39190       -1.43860        6.56470
H         -4.04140       -4.85320        4.50330
H         -1.91070       -6.04590        4.68010
H          0.94820       -5.28070        3.70720
H          1.36110       -4.39330        5.17280
H          0.48890       -5.92950        5.27960
H          0.18400       -2.33360        4.55300
H         -1.94310       -1.13850        4.30190
H         -6.34220       -4.68110       -1.38210
H         -8.04110       -6.40940       -1.83460
H         -8.13020       -8.43720       -0.42420
H         -6.48330       -8.75340        1.37150
H         -4.17170       -6.21670        2.57890
H         -4.83580       -7.83660        2.83300
H         -2.77130       -7.07890        0.70670
H         -2.43020       -7.93960        2.21030
H         -3.42500       -8.69570        0.95990
H          6.15710        0.51730       -8.51480
H          5.32150        0.61200       -6.96060
H          5.67210        2.86740       -7.99450
H          7.42060        2.61320       -7.93060
H          6.49070        2.73320       -6.43700
H          8.51150       -0.01960       -8.65170
H         10.43250       -1.16610       -7.63380
H         10.40930       -1.70980       -5.22290
H          8.46800       -1.06150       -3.84460
H          1.01170       -1.13750       -0.06100
H         -0.60690       -1.08060        0.68730
H          1.08530       -2.34230        2.05060
H         -0.26750       -3.36770        1.58120
H          1.27540       -3.49410        0.72300
H          0.41830        0.09210       -1.59690
H          2.01220        0.87730       -1.42100
H          0.48990        2.08500       -3.00140
H          1.94240        1.51530       -3.82310
H          0.41700        0.64500       -4.02430
H          7.02750        5.41010       -5.39620
H          6.48580        7.00990       -7.16070
H          6.59600       10.67110       -6.75150
H          6.00920        9.34400       -7.76480
H          8.34580        8.89020       -8.51670
H          7.87160       10.55290       -8.88150
H          8.92950       10.21300       -7.50770
H          7.88230       10.21130       -4.71260
H          8.42620        8.60060       -2.93060
H          8.77680        5.65910       -0.28110
H          7.31550        5.92400        1.67770
H          5.26550        6.83120        2.61760
H          3.96480        7.40330        1.56360
H          3.26780        5.36650        2.80700
H          3.32690        5.04270        1.07070
H          4.62580        4.47020        2.11730
H          4.08260        7.00430       -0.88520
H          5.54220        6.74790       -2.84000
H          6.00010        3.97170       -2.80640
H         12.09420        7.16070       -2.76450
H         14.27300        6.74970       -3.67870
H         19.18530        5.28670       -5.79250
H         19.92540        3.35450       -7.10890
