206

C          9.01290        2.42020       -5.87540
C          9.16060        3.35970       -6.88360
C          8.05380        4.16740       -7.40200
O          6.89020        4.14660       -7.04740
C          8.62220        4.92360       -8.54590
C          9.97310        4.57220       -8.71140
C         10.71920        5.14100       -9.72800
C         10.10910        6.07110      -10.55890
C          8.78350        6.42970      -10.37880
Br         8.01720        7.72950      -11.52030
C          8.01030        5.85340       -9.36520
Cl         6.37380        6.30590       -9.12690
C         10.33250        3.61850       -7.66120
C         11.60820        3.19500       -7.36790
C         12.75110        3.57520       -8.09240
N         13.71810        3.87240       -8.63780
C         11.93180        2.40300       -6.24950
N         12.26910        1.79010       -5.33810
C          8.04050        2.43930       -4.88350
C          7.24540        3.49360       -4.36810
N          7.42850        4.82660       -4.56560
C          6.36460        5.71880       -4.29360
C          5.10320        5.49860       -4.83700
C          4.06880        6.36310       -4.53890
C          4.26500        7.45650       -3.70220
C          3.12400        8.35840       -3.34980
C          5.53830        7.68380       -3.19500
C          6.58330        6.83030       -3.48800
C          8.64880        5.38770       -4.97080
C          9.86620        4.91860       -4.47880
C         11.04970        5.46450       -4.92790
C         11.06130        6.48840       -5.87340
C         12.35790        7.02440       -6.39180
C          9.84340        6.98410       -6.31880
C          8.64890        6.44830       -5.87450
C          6.28480        2.98110       -3.46720
S          5.00350        3.68770       -2.54780
C          4.68460        2.15400       -1.74310
C          5.48750        1.13300       -2.23560
N          5.50030       -0.19490       -1.81190
C          4.36380       -0.99300       -1.94740
C          3.40440       -0.70680       -2.91920
C          2.26070       -1.47380       -3.01420
C          2.04150       -2.54640       -2.15860
C          0.78830       -3.36110       -2.27220
C          3.01210       -2.83890       -1.20790
C          4.15710       -2.07730       -1.09610
C          6.76130       -0.75120       -1.53860
C          7.10040       -2.03470       -1.95540
C          8.35860       -2.53870       -1.69070
C          9.31320       -1.78270       -1.02200
C         10.68950       -2.31700       -0.77280
C          8.96740       -0.50060       -0.61140
C          7.70960        0.00970       -0.85790
C          6.40100        1.62460       -3.19770
S          7.69070        0.89650       -4.07900
C          3.68180        2.16080       -0.72450
C          3.37600        3.24020        0.09350
C          4.20050        4.44820        0.18030
C          3.64010        5.71510        0.06800
C          4.45930        6.82840        0.09030
C          5.83020        6.68920        0.21950
C          6.40300        5.43220        0.36580
C          7.89020        5.24930        0.47940
C          8.46360        4.64170       -0.80240
C          5.57450        4.32250        0.36000
C          2.23380        2.99340        0.87480
S          1.35970        3.95030        2.04910
C          0.25130        2.63380        2.26010
C         -0.93290        2.33160        2.94880
C         -1.73200        3.13860        3.78660
C         -2.97300        2.61350        4.27170
N         -3.64230        3.48820        5.00640
S         -2.77920        4.85650        5.08320
N         -1.52050        4.38490        4.18030
C         -3.31440        1.27950        3.96310
C         -4.40970        0.50660        4.37390
S         -5.85980        0.67140        5.30460
C         -6.20660       -1.01700        5.01240
C         -7.26270       -1.85060        5.41920
C         -8.34810       -1.38510        6.28530
C         -8.65020       -2.05150        7.46990
C         -9.64290       -1.56260        8.29680
C        -10.33230       -0.41150        7.95580
C        -10.03560        0.27020        6.78270
C        -10.72810        1.55610        6.43730
C         -9.89760        2.74680        6.92130
C         -9.03800       -0.22480        5.95620
C         -7.10250       -3.13960        4.93650
S         -5.61800       -3.32340        4.00480
C         -5.23290       -1.65700        4.23910
C         -4.21000       -0.77880        3.86580
N         -3.04310       -0.82390        3.15330
C         -2.47500        0.43810        3.17300
C         -1.30410        1.00050        2.58990
N         -0.37450        0.53800        1.67380
C          0.55920        1.51660        1.48320
C          1.68860        1.72330        0.68220
S          2.57810        0.81640       -0.48630
C         -0.30350       -0.64750        0.85320
C          0.72810       -1.64490        1.38090
C         -2.57790       -2.10360        2.67340
C         -3.29520       -2.52650        1.39060
C         -7.98000       -4.25180        4.98910
C         -7.67180       -5.54160        4.59440
C         -8.74470       -6.43100        4.63920
C         -8.58800       -7.85650        4.35890
C         -9.13600       -8.82480        5.19810
C         -8.97540      -10.16590        4.91450
C         -8.26250      -10.58160        3.79370
C         -8.12420      -12.03930        3.46820
C         -9.33710      -12.52870        2.67450
C         -7.70850       -9.61440        2.96550
C         -7.86080       -8.26960        3.24390
C         -9.92890       -5.81400        5.06010
S         -9.63960       -4.13230        5.46500
C        -11.23760       -6.29450        5.21980
C        -11.87660       -7.38300        4.68140
C        -13.08280       -7.89580        5.37240
O        -13.69490       -7.35620        6.26530
C        -13.33820       -9.22580        4.76800
C        -12.42980       -9.43870        3.71450
C        -12.47060      -10.61640        2.98850
C        -13.40800      -11.57850        3.33600
C        -14.29950      -11.36730        4.37590
Br       -15.55530      -12.71600        4.79740
C        -14.28490      -10.17660        5.11180
Cl       -15.39570       -9.90620        6.38630
C        -11.58400       -8.25310        3.57620
C        -10.82330       -7.95560        2.47120
C        -10.27850       -6.68030        2.23200
N         -9.86130       -5.64220        1.97370
C        -10.55840       -8.85930        1.42650
N        -10.28090       -9.56790        0.56580
H          9.67560        1.56340       -5.87040
H         11.75160        4.87950       -9.89010
H         10.67250        6.52960      -11.35690
H          4.96030        4.66600       -5.50810
H          3.09210        6.18880       -4.96570
H          3.48220        9.31900       -2.98850
H          2.52350        7.89960       -2.56390
H          2.47900        8.52210       -4.21040
H          5.71570        8.53860       -2.55960
H          7.57070        7.02170       -3.09320
H          9.88240        4.12410       -3.74810
H         11.98560        5.08430       -4.54530
H         12.86350        6.26960       -6.99490
H         13.02130        7.28500       -5.56920
H         12.19750        7.90470       -7.00850
H          9.82500        7.79240       -7.03540
H          7.70840        6.83770       -6.23440
H          3.56170        0.11950       -3.59690
H          1.52530       -1.23720       -3.76960
H          0.71780       -3.81310       -3.26070
H         -0.09040       -2.73160       -2.13360
H          0.77000       -4.15540       -1.52990
H          2.86880       -3.67400       -0.53680
H          4.89340       -2.30760       -0.34080
H          6.37990       -2.62920       -2.49690
H          8.60710       -3.53560       -2.02460
H         11.05440       -2.00740        0.20440
H         10.70210       -3.40270       -0.82720
H         11.37840       -1.93070       -1.52450
H          9.69330        0.10510       -0.08850
H          7.45290        1.00560       -0.52490
H          2.57260        5.81900       -0.05390
H          4.02600        7.81300       -0.00310
H          6.46240        7.56540        0.21690
H          8.11480        4.58770        1.31970
H          8.36900        6.21160        0.66820
H          8.24260        5.28130       -1.65340
H          9.54260        4.52990       -0.72150
H          8.02870        3.66260       -0.99310
H          5.99870        3.33550        0.48500
H         -8.09460       -2.93590        7.74550
H         -9.87590       -2.07800        9.21660
H        -11.10590       -0.03550        8.60960
H        -10.86070        1.62610        5.35590
H        -11.71330        1.58630        6.90620
H         -9.76920        2.70390        8.00050
H        -10.39030        3.68220        6.66690
H         -8.91280        2.73430        6.45990
H         -8.79970        0.29130        5.03740
H         -1.29040       -1.09120        0.76530
H          0.00870       -0.33050       -0.14810
H          0.57400       -1.85800        2.43690
H          1.73010       -1.24210        1.26130
H          0.66520       -2.57070        0.81720
H         -2.79950       -2.84130        3.45260
H         -1.49990       -2.07600        2.54560
H         -3.24070       -1.75220        0.62810
H         -4.34490       -2.71830        1.59530
H         -2.84950       -3.43790        1.00200
H         -6.67860       -5.83140        4.29790
H         -9.67470       -8.51990        6.08370
H         -9.40190      -10.90490        5.57780
H         -7.22070      -12.19880        2.87720
H         -8.03890      -12.61890        4.38990
H         -9.21210      -13.57280        2.39840
H         -9.45520      -11.93920        1.76770
H        -10.24130      -12.43390        3.27240
H         -7.15210       -9.91690        2.09060
H         -7.43810       -7.52830        2.58170
H        -11.84830       -5.73550        5.92490
H        -11.79370      -10.80060        2.17190
H        -13.45100      -12.50820        2.78960
