
  xtb     02072213063D
 energy: -412.718266787750 gnorm: 0.000338784712 xtb: 6.4.1 (unknown)
246271  0     0  0            999 V2000
   -0.3599   -2.5226  -12.7689 C   0  0  0  0  0  0  0  0  0  0  0  0
   -1.5500   -2.0708  -13.2888 C   0  0  0  0  0  0  0  0  0  0  0  0
   -1.5745   -1.4917  -14.6447 C   0  0  0  0  0  0  0  0  0  0  0  0
   -0.6934   -1.5341  -15.4749 O   0  0  0  0  0  0  0  0  0  0  0  0
   -2.8919   -0.8127  -14.7484 C   0  0  0  0  0  0  0  0  0  0  0  0
   -3.6380   -1.0675  -13.5821 C   0  0  0  0  0  0  0  0  0  0  0  0
   -4.8919   -0.5058  -13.4188 C   0  0  0  0  0  0  0  0  0  0  0  0
   -5.3923    0.3033  -14.4294 C   0  0  0  0  0  0  0  0  0  0  0  0
   -4.6632    0.5391  -15.5836 C   0  0  0  0  0  0  0  0  0  0  0  0
   -5.4059    1.6400  -16.9294 Br  0  0  0  0  0  0  0  0  0  0  0  0
   -3.3921   -0.0178  -15.7652 C   0  0  0  0  0  0  0  0  0  0  0  0
   -2.4893    0.2753  -17.1910 Cl  0  0  0  0  0  0  0  0  0  0  0  0
   -2.8659   -1.9713  -12.7269 C   0  0  0  0  0  0  0  0  0  0  0  0
   -3.4053   -2.7815  -11.7532 C   0  0  0  0  0  0  0  0  0  0  0  0
   -2.7199   -3.8820  -11.2040 C   0  0  0  0  0  0  0  0  0  0  0  0
   -2.2175   -4.8324  -10.7976 N   0  0  0  0  0  0  0  0  0  0  0  0
   -4.7332   -2.6858  -11.3072 C   0  0  0  0  0  0  0  0  0  0  0  0
   -5.8103   -2.6408  -10.9084 N   0  0  0  0  0  0  0  0  0  0  0  0
    0.0140   -2.6590  -11.4326 C   0  0  0  0  0  0  0  0  0  0  0  0
    1.2200   -3.2254  -10.9641 C   0  0  0  0  0  0  0  0  0  0  0  0
    2.0981   -3.9326  -11.7304 N   0  0  0  0  0  0  0  0  0  0  0  0
    1.6669   -4.7074  -12.8302 C   0  0  0  0  0  0  0  0  0  0  0  0
    0.5096   -5.4751  -12.7434 C   0  0  0  0  0  0  0  0  0  0  0  0
    0.1010   -6.2231  -13.8294 C   0  0  0  0  0  0  0  0  0  0  0  0
    0.8331   -6.2381  -15.0113 C   0  0  0  0  0  0  0  0  0  0  0  0
    0.3711   -7.0283  -16.1957 C   0  0  0  0  0  0  0  0  0  0  0  0
    1.9983   -5.4828  -15.0770 C   0  0  0  0  0  0  0  0  0  0  0  0
    2.4158   -4.7230  -14.0024 C   0  0  0  0  0  0  0  0  0  0  0  0
    3.4664   -3.9409  -11.4015 C   0  0  0  0  0  0  0  0  0  0  0  0
    4.2075   -5.1158  -11.4958 C   0  0  0  0  0  0  0  0  0  0  0  0
    5.5636   -5.0984  -11.2448 C   0  0  0  0  0  0  0  0  0  0  0  0
    6.2157   -3.9216  -10.8912 C   0  0  0  0  0  0  0  0  0  0  0  0
    7.6996   -3.9061  -10.6921 C   0  0  0  0  0  0  0  0  0  0  0  0
    5.4624   -2.7614  -10.7705 C   0  0  0  0  0  0  0  0  0  0  0  0
    4.1051   -2.7628  -11.0254 C   0  0  0  0  0  0  0  0  0  0  0  0
    1.3750   -3.0065   -9.5818 C   0  0  0  0  0  0  0  0  0  0  0  0
    2.5746   -3.4426   -8.4100 S   0  0  0  0  0  0  0  0  0  0  0  0
    1.6082   -2.7396   -7.1176 C   0  0  0  0  0  0  0  0  0  0  0  0
    0.4388   -2.1513   -7.5992 C   0  0  0  0  0  0  0  0  0  0  0  0
   -0.5623   -1.5375   -6.8455 N   0  0  0  0  0  0  0  0  0  0  0  0
   -0.3213   -0.3595   -6.1419 C   0  0  0  0  0  0  0  0  0  0  0  0
    0.7927    0.4291   -6.4271 C   0  0  0  0  0  0  0  0  0  0  0  0
    1.0591    1.5578   -5.6784 C   0  0  0  0  0  0  0  0  0  0  0  0
    0.2276    1.9424   -4.6342 C   0  0  0  0  0  0  0  0  0  0  0  0
    0.5171    3.1788   -3.8386 C   0  0  0  0  0  0  0  0  0  0  0  0
   -0.8876    1.1584   -4.3624 C   0  0  0  0  0  0  0  0  0  0  0  0
   -1.1617    0.0229   -5.0951 C   0  0  0  0  0  0  0  0  0  0  0  0
   -1.8688   -2.0085   -7.0897 C   0  0  0  0  0  0  0  0  0  0  0  0
   -2.9382   -1.1410   -7.2933 C   0  0  0  0  0  0  0  0  0  0  0  0
   -4.2023   -1.6464   -7.5204 C   0  0  0  0  0  0  0  0  0  0  0  0
   -4.4366   -3.0174   -7.5649 C   0  0  0  0  0  0  0  0  0  0  0  0
   -5.8187   -3.5423   -7.7916 C   0  0  0  0  0  0  0  0  0  0  0  0
   -3.3561   -3.8734   -7.3980 C   0  0  0  0  0  0  0  0  0  0  0  0
   -2.0883   -3.3810   -7.1590 C   0  0  0  0  0  0  0  0  0  0  0  0
    0.3193   -2.3272   -8.9912 C   0  0  0  0  0  0  0  0  0  0  0  0
   -0.9063   -1.9008  -10.1257 S   0  0  0  0  0  0  0  0  0  0  0  0
    2.0342   -2.8830   -5.7724 C   0  0  0  0  0  0  0  0  0  0  0  0
    3.1141   -3.6150   -5.3008 C   0  0  0  0  0  0  0  0  0  0  0  0
    4.0890   -4.3302   -6.1423 C   0  0  0  0  0  0  0  0  0  0  0  0
    5.1515   -3.6164   -6.6871 C   0  0  0  0  0  0  0  0  0  0  0  0
    6.1007   -4.2545   -7.4604 C   0  0  0  0  0  0  0  0  0  0  0  0
    5.9867   -5.6126   -7.6994 C   0  0  0  0  0  0  0  0  0  0  0  0
    4.9392   -6.3261   -7.1476 C   0  0  0  0  0  0  0  0  0  0  0  0
    3.9846   -5.7063   -6.3528 C   0  0  0  0  0  0  0  0  0  0  0  0
    2.8545   -6.5062   -5.7689 C   0  0  0  0  0  0  0  0  0  0  0  0
    1.6276   -6.4890   -6.6825 C   0  0  0  0  0  0  0  0  0  0  0  0
    3.2019   -3.5661   -3.9029 C   0  0  0  0  0  0  0  0  0  0  0  0
    4.3490   -4.2416   -2.7697 S   0  0  0  0  0  0  0  0  0  0  0  0
    3.5013   -3.4458   -1.4846 C   0  0  0  0  0  0  0  0  0  0  0  0
    3.6504   -3.2025   -0.1102 C   0  0  0  0  0  0  0  0  0  0  0  0
    4.6844   -3.5385    0.7915 C   0  0  0  0  0  0  0  0  0  0  0  0
    4.6897   -2.9415    2.0983 C   0  0  0  0  0  0  0  0  0  0  0  0
    5.7567   -3.2813    2.8042 N   0  0  0  0  0  0  0  0  0  0  0  0
    6.6705   -4.2732    1.9092 S   0  0  0  0  0  0  0  0  0  0  0  0
    5.7441   -4.3035    0.5816 N   0  0  0  0  0  0  0  0  0  0  0  0
    3.5991   -2.1330    2.4853 C   0  0  0  0  0  0  0  0  0  0  0  0
    3.3084   -1.4583    3.6843 C   0  0  0  0  0  0  0  0  0  0  0  0
    4.0426   -1.1379    5.2196 S   0  0  0  0  0  0  0  0  0  0  0  0
    2.6306   -0.2133    5.6687 C   0  0  0  0  0  0  0  0  0  0  0  0
    2.2973    0.4868    6.8463 C   0  0  0  0  0  0  0  0  0  0  0  0
    3.1924    0.4669    8.0130 C   0  0  0  0  0  0  0  0  0  0  0  0
    2.8310   -0.1666    9.2038 C   0  0  0  0  0  0  0  0  0  0  0  0
    1.4943   -0.8329    9.3760 C   0  0  0  0  0  0  0  0  0  0  0  0
    1.4749   -2.1948    8.6791 C   0  0  0  0  0  0  0  0  0  0  0  0
    3.7745   -0.2518   10.2189 C   0  0  0  0  0  0  0  0  0  0  0  0
    5.0412    0.2800   10.0733 C   0  0  0  0  0  0  0  0  0  0  0  0
    5.3911    0.9082    8.8911 C   0  0  0  0  0  0  0  0  0  0  0  0
    4.4727    0.9905    7.8639 C   0  0  0  0  0  0  0  0  0  0  0  0
    1.0650    1.0953    6.7272 C   0  0  0  0  0  0  0  0  0  0  0  0
    0.2859    0.7551    5.1824 S   0  0  0  0  0  0  0  0  0  0  0  0
    1.6488   -0.1786    4.6771 C   0  0  0  0  0  0  0  0  0  0  0  0
    2.0392   -0.8931    3.5382 C   0  0  0  0  0  0  0  0  0  0  0  0
    1.5311   -1.1830    2.2961 N   0  0  0  0  0  0  0  0  0  0  0  0
    2.4925   -1.9182    1.6196 C   0  0  0  0  0  0  0  0  0  0  0  0
    2.5793   -2.3479    0.2726 C   0  0  0  0  0  0  0  0  0  0  0  0
    1.8216   -2.0597   -0.8486 N   0  0  0  0  0  0  0  0  0  0  0  0
    2.3819   -2.7229   -1.9091 C   0  0  0  0  0  0  0  0  0  0  0  0
    2.2051   -2.7966   -3.2951 C   0  0  0  0  0  0  0  0  0  0  0  0
    1.1108   -2.1564   -4.4642 S   0  0  0  0  0  0  0  0  0  0  0  0
    0.9045   -0.9654   -1.0863 C   0  0  0  0  0  0  0  0  0  0  0  0
   -0.5030   -1.4511   -1.4305 C   0  0  0  0  0  0  0  0  0  0  0  0
    0.0957   -1.2228    2.1164 C   0  0  0  0  0  0  0  0  0  0  0  0
   -0.5562   -2.2260    3.0685 C   0  0  0  0  0  0  0  0  0  0  0  0
    0.3712    1.9558    7.6312 C   0  0  0  0  0  0  0  0  0  0  0  0
    0.8667    2.8448    8.5655 C   0  0  0  0  0  0  0  0  0  0  0  0
    2.2264    3.1542    8.7627 N   0  0  0  0  0  0  0  0  0  0  0  0
    2.7754    2.9986   10.0358 C   0  0  0  0  0  0  0  0  0  0  0  0
    4.0748    3.4322   10.2964 C   0  0  0  0  0  0  0  0  0  0  0  0
    4.6466    3.2294   11.5350 C   0  0  0  0  0  0  0  0  0  0  0  0
    3.9581    2.5811   12.5521 C   0  0  0  0  0  0  0  0  0  0  0  0
    4.5772    2.3849   13.9030 C   0  0  0  0  0  0  0  0  0  0  0  0
    2.6752    2.1284   12.2801 C   0  0  0  0  0  0  0  0  0  0  0  0
    2.0905    2.3246   11.0449 C   0  0  0  0  0  0  0  0  0  0  0  0
    2.6657    4.2198    7.9266 C   0  0  0  0  0  0  0  0  0  0  0  0
    2.8491    4.0060    6.5677 C   0  0  0  0  0  0  0  0  0  0  0  0
    3.2433    5.0471    5.7463 C   0  0  0  0  0  0  0  0  0  0  0  0
    3.4595    6.3196    6.2554 C   0  0  0  0  0  0  0  0  0  0  0  0
    3.9054    7.4464    5.3747 C   0  0  0  0  0  0  0  0  0  0  0  0
    3.2577    6.5284    7.6160 C   0  0  0  0  0  0  0  0  0  0  0  0
    2.8586    5.4984    8.4429 C   0  0  0  0  0  0  0  0  0  0  0  0
   -0.1834    3.5190    9.2289 C   0  0  0  0  0  0  0  0  0  0  0  0
   -0.2154    4.7727   10.4078 S   0  0  0  0  0  0  0  0  0  0  0  0
   -1.9871    4.7751   10.3915 C   0  0  0  0  0  0  0  0  0  0  0  0
   -2.5066    3.8941    9.4177 C   0  0  0  0  0  0  0  0  0  0  0  0
   -3.8003    3.8076    8.9912 N   0  0  0  0  0  0  0  0  0  0  0  0
   -4.7233    4.8552    9.1039 C   0  0  0  0  0  0  0  0  0  0  0  0
   -4.3442    6.1842    8.9170 C   0  0  0  0  0  0  0  0  0  0  0  0
   -5.2638    7.1977    9.0835 C   0  0  0  0  0  0  0  0  0  0  0  0
   -6.5846    6.9250    9.4330 C   0  0  0  0  0  0  0  0  0  0  0  0
   -7.5541    8.0421    9.6576 C   0  0  0  0  0  0  0  0  0  0  0  0
   -6.9674    5.5968    9.5617 C   0  0  0  0  0  0  0  0  0  0  0  0
   -6.0550    4.5710    9.4011 C   0  0  0  0  0  0  0  0  0  0  0  0
   -4.2309    2.6169    8.3630 C   0  0  0  0  0  0  0  0  0  0  0  0
   -3.9819    1.3811    8.9523 C   0  0  0  0  0  0  0  0  0  0  0  0
   -4.3937    0.2257    8.3203 C   0  0  0  0  0  0  0  0  0  0  0  0
   -5.0601    0.2726    7.0998 C   0  0  0  0  0  0  0  0  0  0  0  0
   -5.4794   -0.9946    6.4207 C   0  0  0  0  0  0  0  0  0  0  0  0
   -5.3207    1.5137    6.5333 C   0  0  0  0  0  0  0  0  0  0  0  0
   -4.9131    2.6791    7.1538 C   0  0  0  0  0  0  0  0  0  0  0  0
   -1.4587    3.1654    8.8099 C   0  0  0  0  0  0  0  0  0  0  0  0
   -1.3841    1.9712    7.5580 S   0  0  0  0  0  0  0  0  0  0  0  0
   -2.6180    5.6471   11.2810 C   0  0  0  0  0  0  0  0  0  0  0  0
   -3.9086    5.5362   11.7516 C   0  0  0  0  0  0  0  0  0  0  0  0
   -4.6484    4.2599   11.8359 C   0  0  0  0  0  0  0  0  0  0  0  0
   -4.2561    3.1520   11.5245 O   0  0  0  0  0  0  0  0  0  0  0  0
   -5.9051    4.6244   12.4972 C   0  0  0  0  0  0  0  0  0  0  0  0
   -7.3361    3.8107   12.9604 S   0  0  0  0  0  0  0  0  0  0  0  0
   -7.9896    5.3178   13.5474 C   0  0  0  0  0  0  0  0  0  0  0  0
   -9.5513    5.3639   14.2291 Cl  0  0  0  0  0  0  0  0  0  0  0  0
   -7.1449    6.3822   13.3960 C   0  0  0  0  0  0  0  0  0  0  0  0
   -5.9419    5.9764   12.7911 C   0  0  0  0  0  0  0  0  0  0  0  0
   -4.7060    6.5855   12.3294 C   0  0  0  0  0  0  0  0  0  0  0  0
   -4.4536    7.9345   12.3115 C   0  0  0  0  0  0  0  0  0  0  0  0
   -3.3153    8.5257   11.7329 C   0  0  0  0  0  0  0  0  0  0  0  0
   -2.4258    9.0697   11.2510 N   0  0  0  0  0  0  0  0  0  0  0  0
   -5.3774    8.8685   12.8161 C   0  0  0  0  0  0  0  0  0  0  0  0
   -6.1265    9.6466   13.2063 N   0  0  0  0  0  0  0  0  0  0  0  0
    0.4218   -2.6788  -13.5051 H   0  0  0  0  0  0  0  0  0  0  0  0
   -5.4752   -0.6723  -12.5285 H   0  0  0  0  0  0  0  0  0  0  0  0
   -6.3651    0.7579  -14.3223 H   0  0  0  0  0  0  0  0  0  0  0  0
   -0.0736   -5.4772  -11.8347 H   0  0  0  0  0  0  0  0  0  0  0  0
   -0.8016   -6.8108  -13.7510 H   0  0  0  0  0  0  0  0  0  0  0  0
   -0.3084   -7.8214  -15.8941 H   0  0  0  0  0  0  0  0  0  0  0  0
    1.2158   -7.4654  -16.7238 H   0  0  0  0  0  0  0  0  0  0  0  0
   -0.1563   -6.3753  -16.8917 H   0  0  0  0  0  0  0  0  0  0  0  0
    2.5820   -5.4810  -15.9857 H   0  0  0  0  0  0  0  0  0  0  0  0
    3.3168   -4.1308  -14.0686 H   0  0  0  0  0  0  0  0  0  0  0  0
    3.7139   -6.0345  -11.7751 H   0  0  0  0  0  0  0  0  0  0  0  0
    6.1297   -6.0142  -11.3317 H   0  0  0  0  0  0  0  0  0  0  0  0
    8.2027   -3.9475  -11.6588 H   0  0  0  0  0  0  0  0  0  0  0  0
    8.0178   -2.9987  -10.1852 H   0  0  0  0  0  0  0  0  0  0  0  0
    8.0239   -4.7688  -10.1143 H   0  0  0  0  0  0  0  0  0  0  0  0
    5.9457   -1.8360  -10.4934 H   0  0  0  0  0  0  0  0  0  0  0  0
    3.5390   -1.8450  -10.9606 H   0  0  0  0  0  0  0  0  0  0  0  0
    1.4516    0.1503   -7.2368 H   0  0  0  0  0  0  0  0  0  0  0  0
    1.9295    2.1539   -5.9129 H   0  0  0  0  0  0  0  0  0  0  0  0
    1.5881    3.3049   -3.6940 H   0  0  0  0  0  0  0  0  0  0  0  0
    0.1458    4.0588   -4.3652 H   0  0  0  0  0  0  0  0  0  0  0  0
    0.0315    3.1383   -2.8663 H   0  0  0  0  0  0  0  0  0  0  0  0
   -1.5490    1.4371   -3.5541 H   0  0  0  0  0  0  0  0  0  0  0  0
   -2.0172   -0.5885   -4.8515 H   0  0  0  0  0  0  0  0  0  0  0  0
   -2.7716   -0.0739   -7.2760 H   0  0  0  0  0  0  0  0  0  0  0  0
   -5.0263   -0.9650   -7.6755 H   0  0  0  0  0  0  0  0  0  0  0  0
   -5.8463   -4.6237   -7.6864 H   0  0  0  0  0  0  0  0  0  0  0  0
   -6.5161   -3.0999   -7.0820 H   0  0  0  0  0  0  0  0  0  0  0  0
   -6.1555   -3.2832   -8.7952 H   0  0  0  0  0  0  0  0  0  0  0  0
   -3.5063   -4.9416   -7.4494 H   0  0  0  0  0  0  0  0  0  0  0  0
   -1.2608   -4.0619   -7.0198 H   0  0  0  0  0  0  0  0  0  0  0  0
    5.2258   -2.5557   -6.4952 H   0  0  0  0  0  0  0  0  0  0  0  0
    6.9267   -3.6941   -7.8686 H   0  0  0  0  0  0  0  0  0  0  0  0
    6.7207   -6.1215   -8.3058 H   0  0  0  0  0  0  0  0  0  0  0  0
    4.8623   -7.3892   -7.3256 H   0  0  0  0  0  0  0  0  0  0  0  0
    2.5801   -6.1075   -4.7904 H   0  0  0  0  0  0  0  0  0  0  0  0
    3.1819   -7.5387   -5.6333 H   0  0  0  0  0  0  0  0  0  0  0  0
    1.2254   -5.4825   -6.7649 H   0  0  0  0  0  0  0  0  0  0  0  0
    1.8922   -6.8338   -7.6796 H   0  0  0  0  0  0  0  0  0  0  0  0
    0.8511   -7.1375   -6.2837 H   0  0  0  0  0  0  0  0  0  0  0  0
    1.3000   -0.9734   10.4409 H   0  0  0  0  0  0  0  0  0  0  0  0
    0.6968   -0.2098    8.9694 H   0  0  0  0  0  0  0  0  0  0  0  0
    1.6393   -2.0805    7.6100 H   0  0  0  0  0  0  0  0  0  0  0  0
    0.5161   -2.6855    8.8313 H   0  0  0  0  0  0  0  0  0  0  0  0
    2.2606   -2.8330    9.0769 H   0  0  0  0  0  0  0  0  0  0  0  0
    3.5078   -0.7492   11.1402 H   0  0  0  0  0  0  0  0  0  0  0  0
    5.7542    0.2018   10.8799 H   0  0  0  0  0  0  0  0  0  0  0  0
    6.3793    1.3237    8.7651 H   0  0  0  0  0  0  0  0  0  0  0  0
    4.7415    1.4716    6.9349 H   0  0  0  0  0  0  0  0  0  0  0  0
    0.9055   -0.3085   -0.2160 H   0  0  0  0  0  0  0  0  0  0  0  0
    1.2840   -0.3888   -1.9384 H   0  0  0  0  0  0  0  0  0  0  0  0
   -0.8808   -2.1543   -0.6915 H   0  0  0  0  0  0  0  0  0  0  0  0
   -0.5010   -1.9480   -2.3964 H   0  0  0  0  0  0  0  0  0  0  0  0
   -1.1779   -0.6020   -1.4866 H   0  0  0  0  0  0  0  0  0  0  0  0
   -0.3045   -0.2211    2.3043 H   0  0  0  0  0  0  0  0  0  0  0  0
   -0.1300   -1.5197    1.0987 H   0  0  0  0  0  0  0  0  0  0  0  0
   -1.6252   -2.2659    2.8776 H   0  0  0  0  0  0  0  0  0  0  0  0
   -0.1348   -3.2174    2.9155 H   0  0  0  0  0  0  0  0  0  0  0  0
   -0.4024   -1.9384    4.1047 H   0  0  0  0  0  0  0  0  0  0  0  0
    4.6408    3.9211    9.5184 H   0  0  0  0  0  0  0  0  0  0  0  0
    5.6543    3.5780   11.7116 H   0  0  0  0  0  0  0  0  0  0  0  0
    4.2237    1.4638   14.3614 H   0  0  0  0  0  0  0  0  0  0  0  0
    5.6618    2.3496   13.8306 H   0  0  0  0  0  0  0  0  0  0  0  0
    4.3105    3.2117   14.5629 H   0  0  0  0  0  0  0  0  0  0  0  0
    2.1190    1.6087   13.0476 H   0  0  0  0  0  0  0  0  0  0  0  0
    1.0986    1.9389   10.8644 H   0  0  0  0  0  0  0  0  0  0  0  0
    2.6846    3.0245    6.1534 H   0  0  0  0  0  0  0  0  0  0  0  0
    3.3865    4.8619    4.6911 H   0  0  0  0  0  0  0  0  0  0  0  0
    4.9461    7.6953    5.5825 H   0  0  0  0  0  0  0  0  0  0  0  0
    3.8206    7.1782    4.3246 H   0  0  0  0  0  0  0  0  0  0  0  0
    3.3081    8.3373    5.5602 H   0  0  0  0  0  0  0  0  0  0  0  0
    3.4040    7.5156    8.0298 H   0  0  0  0  0  0  0  0  0  0  0  0
    2.6902    5.6776    9.4949 H   0  0  0  0  0  0  0  0  0  0  0  0
   -3.3259    6.4216    8.6475 H   0  0  0  0  0  0  0  0  0  0  0  0
   -4.9504    8.2228    8.9491 H   0  0  0  0  0  0  0  0  0  0  0  0
   -7.6944    8.6131    8.7404 H   0  0  0  0  0  0  0  0  0  0  0  0
   -7.1778    8.7265   10.4172 H   0  0  0  0  0  0  0  0  0  0  0  0
   -8.5191    7.6611    9.9813 H   0  0  0  0  0  0  0  0  0  0  0  0
   -7.9912    5.3578    9.8107 H   0  0  0  0  0  0  0  0  0  0  0  0
   -6.3627    3.5432    9.5235 H   0  0  0  0  0  0  0  0  0  0  0  0
   -3.4926    1.3473    9.9130 H   0  0  0  0  0  0  0  0  0  0  0  0
   -4.2010   -0.7310    8.7832 H   0  0  0  0  0  0  0  0  0  0  0  0
   -6.0895   -0.7859    5.5458 H   0  0  0  0  0  0  0  0  0  0  0  0
   -4.6014   -1.5572    6.1043 H   0  0  0  0  0  0  0  0  0  0  0  0
   -6.0483   -1.6238    7.1030 H   0  0  0  0  0  0  0  0  0  0  0  0
   -5.8448    1.5723    5.5905 H   0  0  0  0  0  0  0  0  0  0  0  0
   -5.1158    3.6401    6.7035 H   0  0  0  0  0  0  0  0  0  0  0  0
   -2.0107    6.4691   11.6411 H   0  0  0  0  0  0  0  0  0  0  0  0
   -7.3854    7.3821   13.7051 H   0  0  0  0  0  0  0  0  0  0  0  0
  1  2  2  0  0  0  0
  2  3  1  0  0  0  0
  3  4  2  0  0  0  0
  3  5  1  0  0  0  0
  5  6  2  0  0  0  0
  6  7  1  0  0  0  0
  7  8  2  0  0  0  0
  8  9  1  0  0  0  0
  9 10  1  0  0  0  0
  9 11  2  0  0  0  0
 11 12  1  0  0  0  0
  6 13  1  0  0  0  0
 13 14  2  0  0  0  0
 14 15  1  0  0  0  0
 15 16  3  0  0  0  0
 14 17  1  0  0  0  0
 17 18  3  0  0  0  0
  1 19  1  0  0  0  0
 19 20  2  0  0  0  0
 20 21  1  0  0  0  0
 21 22  1  0  0  0  0
 22 23  2  0  0  0  0
 23 24  1  0  0  0  0
 24 25  2  0  0  0  0
 25 26  1  0  0  0  0
 25 27  1  0  0  0  0
 27 28  2  0  0  0  0
 21 29  1  0  0  0  0
 29 30  2  0  0  0  0
 30 31  1  0  0  0  0
 31 32  2  0  0  0  0
 32 33  1  0  0  0  0
 32 34  1  0  0  0  0
 34 35  2  0  0  0  0
 20 36  1  0  0  0  0
 36 37  1  0  0  0  0
 37 38  1  0  0  0  0
 38 39  2  0  0  0  0
 39 40  1  0  0  0  0
 40 41  1  0  0  0  0
 41 42  2  0  0  0  0
 42 43  1  0  0  0  0
 43 44  2  0  0  0  0
 44 45  1  0  0  0  0
 44 46  1  0  0  0  0
 46 47  2  0  0  0  0
 40 48  1  0  0  0  0
 48 49  2  0  0  0  0
 49 50  1  0  0  0  0
 50 51  2  0  0  0  0
 51 52  1  0  0  0  0
 51 53  1  0  0  0  0
 53 54  2  0  0  0  0
 39 55  1  0  0  0  0
 55 56  1  0  0  0  0
 38 57  1  0  0  0  0
 57 58  2  0  0  0  0
 58 59  1  0  0  0  0
 59 60  2  0  0  0  0
 60 61  1  0  0  0  0
 61 62  2  0  0  0  0
 62 63  1  0  0  0  0
 63 64  2  0  0  0  0
 64 65  1  0  0  0  0
 65 66  1  0  0  0  0
 58 67  1  0  0  0  0
 67 68  1  0  0  0  0
 68 69  1  0  0  0  0
 69 70  1  0  0  0  0
 70 71  1  0  0  0  0
 71 72  1  0  0  0  0
 72 73  2  0  0  0  0
 73 74  1  0  0  0  0
 74 75  1  0  0  0  0
 72 76  1  0  0  0  0
 76 77  1  0  0  0  0
 77 78  1  0  0  0  0
 78 79  1  0  0  0  0
 79 80  1  0  0  0  0
 80 81  1  0  0  0  0
 81 82  2  0  0  0  0
 82 83  1  0  0  0  0
 83 84  1  0  0  0  0
 82 85  1  0  0  0  0
 85 86  2  0  0  0  0
 86 87  1  0  0  0  0
 87 88  2  0  0  0  0
 80 89  2  0  0  0  0
 89 90  1  0  0  0  0
 90 91  1  0  0  0  0
 91 92  1  0  0  0  0
 92 93  1  0  0  0  0
 93 94  1  0  0  0  0
 94 95  1  0  0  0  0
 95 96  1  0  0  0  0
 96 97  1  0  0  0  0
 97 98  1  0  0  0  0
 98 99  1  0  0  0  0
 96100  1  0  0  0  0
100101  1  0  0  0  0
 93102  1  0  0  0  0
102103  1  0  0  0  0
 89104  1  0  0  0  0
104105  2  0  0  0  0
105106  1  0  0  0  0
106107  1  0  0  0  0
107108  2  0  0  0  0
108109  1  0  0  0  0
109110  2  0  0  0  0
110111  1  0  0  0  0
110112  1  0  0  0  0
112113  2  0  0  0  0
106114  1  0  0  0  0
114115  2  0  0  0  0
115116  1  0  0  0  0
116117  2  0  0  0  0
117118  1  0  0  0  0
117119  1  0  0  0  0
119120  2  0  0  0  0
105121  1  0  0  0  0
121122  1  0  0  0  0
122123  1  0  0  0  0
123124  2  0  0  0  0
124125  1  0  0  0  0
125126  1  0  0  0  0
126127  2  0  0  0  0
127128  1  0  0  0  0
128129  2  0  0  0  0
129130  1  0  0  0  0
129131  1  0  0  0  0
131132  2  0  0  0  0
125133  1  0  0  0  0
133134  2  0  0  0  0
134135  1  0  0  0  0
135136  2  0  0  0  0
136137  1  0  0  0  0
136138  1  0  0  0  0
138139  2  0  0  0  0
124140  1  0  0  0  0
140141  1  0  0  0  0
123142  1  0  0  0  0
142143  2  0  0  0  0
143144  1  0  0  0  0
144145  2  0  0  0  0
144146  1  0  0  0  0
146147  1  0  0  0  0
147148  1  0  0  0  0
148149  1  0  0  0  0
148150  2  0  0  0  0
150151  1  0  0  0  0
151152  1  0  0  0  0
152153  2  0  0  0  0
153154  1  0  0  0  0
154155  3  0  0  0  0
153156  1  0  0  0  0
156157  3  0  0  0  0
 13  2  1  0  0  0  0
 56 19  1  0  0  0  0
 99 57  1  0  0  0  0
141104  1  0  0  0  0
152143  1  0  0  0  0
 11  5  1  0  0  0  0
 28 22  1  0  0  0  0
 35 29  1  0  0  0  0
 55 36  2  0  0  0  0
 64 59  1  0  0  0  0
 98 67  2  0  0  0  0
113107  1  0  0  0  0
120114  1  0  0  0  0
140121  2  0  0  0  0
151146  2  0  0  0  0
 47 41  1  0  0  0  0
 54 48  1  0  0  0  0
 97 69  2  0  0  0  0
132126  1  0  0  0  0
139133  1  0  0  0  0
 95 70  2  0  0  0  0
 75 71  2  0  0  0  0
 94 76  2  0  0  0  0
 92 77  2  0  0  0  0
 91 79  2  0  0  0  0
 88 81  1  0  0  0  0
  1158  1  0  0  0  0
  7159  1  0  0  0  0
  8160  1  0  0  0  0
 23161  1  0  0  0  0
 24162  1  0  0  0  0
 26163  1  0  0  0  0
 26164  1  0  0  0  0
 26165  1  0  0  0  0
 27166  1  0  0  0  0
 28167  1  0  0  0  0
 30168  1  0  0  0  0
 31169  1  0  0  0  0
 33170  1  0  0  0  0
 33171  1  0  0  0  0
 33172  1  0  0  0  0
 34173  1  0  0  0  0
 35174  1  0  0  0  0
 42175  1  0  0  0  0
 43176  1  0  0  0  0
 45177  1  0  0  0  0
 45178  1  0  0  0  0
 45179  1  0  0  0  0
 46180  1  0  0  0  0
 47181  1  0  0  0  0
 49182  1  0  0  0  0
 50183  1  0  0  0  0
 52184  1  0  0  0  0
 52185  1  0  0  0  0
 52186  1  0  0  0  0
 53187  1  0  0  0  0
 54188  1  0  0  0  0
 60189  1  0  0  0  0
 61190  1  0  0  0  0
 62191  1  0  0  0  0
 63192  1  0  0  0  0
 65193  1  0  0  0  0
 65194  1  0  0  0  0
 66195  1  0  0  0  0
 66196  1  0  0  0  0
 66197  1  0  0  0  0
 83198  1  0  0  0  0
 83199  1  0  0  0  0
 84200  1  0  0  0  0
 84201  1  0  0  0  0
 84202  1  0  0  0  0
 85203  1  0  0  0  0
 86204  1  0  0  0  0
 87205  1  0  0  0  0
 88206  1  0  0  0  0
100207  1  0  0  0  0
100208  1  0  0  0  0
101209  1  0  0  0  0
101210  1  0  0  0  0
101211  1  0  0  0  0
102212  1  0  0  0  0
102213  1  0  0  0  0
103214  1  0  0  0  0
103215  1  0  0  0  0
103216  1  0  0  0  0
108217  1  0  0  0  0
109218  1  0  0  0  0
111219  1  0  0  0  0
111220  1  0  0  0  0
111221  1  0  0  0  0
112222  1  0  0  0  0
113223  1  0  0  0  0
115224  1  0  0  0  0
116225  1  0  0  0  0
118226  1  0  0  0  0
118227  1  0  0  0  0
118228  1  0  0  0  0
119229  1  0  0  0  0
120230  1  0  0  0  0
127231  1  0  0  0  0
128232  1  0  0  0  0
130233  1  0  0  0  0
130234  1  0  0  0  0
130235  1  0  0  0  0
131236  1  0  0  0  0
132237  1  0  0  0  0
134238  1  0  0  0  0
135239  1  0  0  0  0
137240  1  0  0  0  0
137241  1  0  0  0  0
137242  1  0  0  0  0
138243  1  0  0  0  0
139244  1  0  0  0  0
142245  1  0  0  0  0
150246  1  0  0  0  0
M  END
