225

C         -3.80370       -4.06700       10.44800
C         -4.97480       -3.74270       11.11280
C         -6.30830       -4.04850       10.58770
O         -6.58040       -4.61870        9.54850
C         -7.25500       -3.64000       11.65480
C         -6.53180       -3.14670       12.75440
C         -7.20010       -2.70270       13.88150
C         -8.58800       -2.73950       13.88830
C         -9.29650       -3.20830       12.79430
Br       -11.18760       -3.19790       12.84730
C         -8.63660       -3.67660       11.65330
Cl        -9.50750       -4.24110       10.28850
C         -5.10660       -3.18370       12.42340
C         -4.10020       -2.61110       13.16540
C         -4.29990       -1.95420       14.39220
N         -4.41100       -1.38550       15.38470
C         -2.75910       -2.53670       12.74180
N         -1.65760       -2.41100       12.44030
C         -3.65600       -4.19570        9.07050
C         -4.42090       -3.68780        7.99230
N         -5.43680       -2.78160        8.05560
C         -5.56720       -1.84330        9.08640
C         -6.83490       -1.48940        9.54530
C         -6.97320       -0.59400       10.58960
C         -5.86340       -0.02740       11.20130
C         -6.00160        0.90170       12.36530
C         -4.60190       -0.34860       10.70330
C         -4.44950       -1.23880        9.66240
C         -6.39100       -2.75560        7.01190
C         -6.73470       -1.55030        6.41180
C         -7.66990       -1.53150        5.39460
C         -8.27820       -2.70190        4.95920
C         -9.27770       -2.68860        3.84470
C         -7.93390       -3.89950        5.57840
C         -7.00170       -3.93420        6.59480
C         -3.90450       -4.15340        6.76260
S         -4.32760       -3.86060        5.10840
C         -2.95080       -4.80580        4.57350
C         -2.16040       -5.25340        5.62190
N         -0.92570       -5.86610        5.49830
C         -0.58850       -6.87600        6.41560
C         -1.53980       -7.81660        6.79660
C         -1.21470       -8.80290        7.70680
C          0.05930       -8.88230        8.25320
C          0.40900       -9.94160        9.25260
C          1.00370       -7.93770        7.86550
C          0.68970       -6.94220        6.96340
C         -0.02150       -5.45610        4.51140
C          0.87630       -6.36200        3.95130
C          1.68760       -5.98150        2.90090
C          1.64140       -4.69370        2.38180
C          2.45620       -4.31800        1.18190
C          0.80450       -3.77300        2.99950
C         -0.00670       -4.13910        4.05510
C         -2.74230       -4.90650        6.86490
S         -2.24580       -5.11090        8.50220
C         -2.66620       -4.94550        3.17700
C         -2.27170       -6.07560        2.49220
C         -2.34720       -7.45100        3.00170
C         -1.22580       -8.26120        2.82400
C         -1.18940       -9.55360        3.30430
C         -2.30080      -10.07390        3.94360
C         -3.44210       -9.30450        4.05460
C         -3.49490       -7.99230        3.59500
C         -4.81510       -7.27020        3.67290
C         -5.37020       -7.17850        5.09450
C         -1.77890       -5.73630        1.21080
S         -1.01670       -6.66570       -0.05710
C         -0.78180       -5.20780       -0.96400
C         -0.13440       -4.76540       -2.13250
C          0.72940       -5.41380       -3.04480
C          1.46800       -4.62550       -3.99730
N          2.30590       -5.35730       -4.71410
S          2.17360       -6.90140       -4.24550
N          1.04710       -6.69740       -3.10160
C          1.20700       -3.24030       -4.09210
C          1.71830       -2.21520       -4.91040
S          2.97430       -1.97190       -6.07880
C          2.55250       -0.27600       -6.14390
C          3.12690        0.82000       -6.80850
C          4.27250        0.68600       -7.72860
C          5.58230        0.90280       -7.29490
C          5.88590        1.26520       -5.86890
C          6.17950        0.00950       -5.04600
C          6.61790        0.74770       -8.20680
C          6.36980        0.38220       -9.51710
C          5.06960        0.16650       -9.93940
C          4.02570        0.31770       -9.04560
C          2.46530        1.99600       -6.50140
S          1.12470        1.74560       -5.39280
C          1.46880        0.05570       -5.32570
C          0.99470       -1.05380       -4.61860
N          0.05760       -1.31400       -3.64990
C          0.21240       -2.63740       -3.27950
C         -0.33990       -3.36160       -2.19870
N         -1.04800       -2.95310       -1.08010
C         -1.30040       -4.07400       -0.33370
C         -1.85970       -4.37680        0.91330
S         -2.56610       -3.48210        2.20640
C         -1.07150       -1.64810       -0.44930
C          0.32940       -1.06800       -0.28420
C         -1.16460       -0.54450       -3.55860
C         -1.83580       -0.39060       -4.92260
C          2.77600        3.32300       -6.90960
C          3.87500        3.75980       -7.59620
C          3.92600        5.16050       -7.75390
C          4.95050        5.90520       -8.37460
C          6.04640        5.23680       -9.04520
C          5.99400        4.14210       -9.86320
C          7.25780        3.74400      -10.33950
C          8.27900        4.51740       -9.87950
C          9.73320        4.41850      -10.18610
C         10.18310        5.55640      -11.10470
S          7.68870        5.78130       -8.85270
C          4.84910        7.28610       -8.27790
C          3.74400        7.94260       -7.66720
C          2.66520        7.19040       -7.13220
C          1.48630        7.84720       -6.62160
C          0.87700        8.97850       -7.10030
C         -0.27260        9.33980       -6.37700
C         -0.55370        8.49640       -5.34430
C         -1.65310        8.59060       -4.34410
C         -1.13160        9.09070       -2.99490
S          0.60850        7.21630       -5.25330
C          2.82000        5.81110       -7.14990
S          1.72160        4.64790       -6.45570
C          3.90750        9.33520       -7.63340
C          5.06580        9.77940       -8.23470
S          6.01590        8.43080       -8.86180
C          5.63110       11.06000       -8.37240
C          5.13740       12.30850       -8.08570
C          3.75710       12.68030       -7.71500
O          2.79910       11.96160       -7.52330
C          3.74380       14.16050       -7.66230
C          5.02330       14.65780       -7.96450
C          5.24600       16.02570       -7.98650
C          4.18850       16.87640       -7.70080
C          2.93000       16.38090       -7.39700
Br         1.53180       17.59240       -7.00930
C          2.68320       15.00420       -7.37430
Cl         1.13000       14.39090       -7.00080
C          5.91720       13.52630       -8.20540
C          7.26420       13.63640       -8.44020
C          8.17820       12.57320       -8.60530
N          9.00520       11.78660       -8.73550
C          7.95540       14.86370       -8.52690
N          8.58210       15.82170       -8.61450
H         -2.91780       -4.27240       11.03650
H         -6.67420       -2.33320       14.74590
H         -9.13000       -2.39310       14.75470
H         -7.70730       -1.92990        9.08680
H         -7.96330       -0.34540       10.94300
H         -5.53670        0.46980       13.25170
H         -5.50150        1.84700       12.16040
H         -7.04750        1.09830       12.58540
H         -3.72560        0.10270       11.14550
H         -3.46150       -1.47120        9.29420
H         -6.26610       -0.63490        6.74280
H         -7.92800       -0.59050        4.93100
H         -9.59900       -1.67500        3.61950
H        -10.15000       -3.28540        4.10400
H         -8.83700       -3.11740        2.94450
H         -8.41440       -4.81490        5.26440
H         -6.75820       -4.85660        7.09840
H         -2.52870       -7.78050        6.36480
H         -1.96420       -9.52750        7.99010
H          1.42080      -10.30740        9.09060
H         -0.28310      -10.77780        9.19200
H          0.35970       -9.53200       10.26200
H          1.99870       -7.97820        8.28450
H          1.42970       -6.20840        6.68000
H          0.91770       -7.37090        4.33210
H          2.35690       -6.70740        2.46190
H          2.77100       -3.27730        1.23190
H          3.33900       -4.94720        1.10020
H          1.86590       -4.45280        0.27310
H          0.78220       -2.74970        2.65170
H         -0.63800       -3.40030        4.52690
H         -0.36970       -7.85730        2.30810
H         -0.30190      -10.15370        3.17200
H         -2.28840      -11.08280        4.32810
H         -4.32640       -9.73680        4.49950
H         -4.73010       -6.26930        3.25130
H         -5.53340       -7.82170        3.05750
H         -6.27360       -6.57380        5.10040
H         -5.61530       -8.16280        5.48500
H         -4.64790       -6.72060        5.76560
H          6.75590        1.92500       -5.84050
H          5.04190        1.79850       -5.42760
H          7.03060       -0.52480       -5.46180
H          6.40500        0.27630       -4.01620
H          5.32260       -0.65960       -5.05230
H          7.63350        0.92120       -7.88080
H          7.19160        0.26260      -10.20730
H          4.86720       -0.11880      -10.96080
H          3.00660        0.15420       -9.36500
H         -1.52240       -1.79370        0.53530
H         -1.70820       -0.94990       -0.99600
H          0.27410       -0.13710        0.27360
H          0.78960       -0.86900       -1.24800
H          0.95940       -1.76670        0.26070
H         -1.84920       -1.08130       -2.90510
H         -0.94340        0.44260       -3.13880
H         -1.22780        0.20550       -5.59620
H         -2.00190       -1.36770       -5.37160
H         -2.79530        0.10420       -4.79890
H          4.65070        3.10520       -7.94100
H          5.07580        3.66060      -10.14920
H          7.40100        2.90870      -11.00130
H         10.30870        4.46130       -9.25800
H          9.92680        3.45690      -10.66610
H         11.24460        5.46860      -11.32160
H          9.63200        5.52620      -12.04200
H         10.00290        6.51750      -10.62870
H          1.21670        9.51440       -7.96740
H         -0.87440       10.19810       -6.61720
H         -2.41330        9.27780       -4.72130
H         -2.11290        7.60870       -4.20890
H         -0.38380        8.40500       -2.60320
H         -0.67630       10.07200       -3.10650
H         -1.94670        9.16430       -2.27950
H          3.21960       10.00230       -7.15110
H          6.63360       11.03300       -8.78270
H          6.21070       16.44250       -8.22080
H          4.34190       17.94440       -7.71280
