
  xtb     02072212133D
 energy: -383.694023958129 gnorm: 0.000694325459 xtb: 6.4.1 (unknown)
222246  0     0  0            999 V2000
   -2.4066    7.3411   -1.1333 C   0  0  0  0  0  0  0  0  0  0  0  0
   -1.1505    7.6948   -1.5603 C   0  0  0  0  0  0  0  0  0  0  0  0
   -0.9596    8.9865   -2.2531 C   0  0  0  0  0  0  0  0  0  0  0  0
   -1.7532    9.8979   -2.3248 O   0  0  0  0  0  0  0  0  0  0  0  0
    0.3892    8.8977   -2.8672 C   0  0  0  0  0  0  0  0  0  0  0  0
    0.9998    7.6951   -2.4652 C   0  0  0  0  0  0  0  0  0  0  0  0
    2.2408    7.3400   -2.9595 C   0  0  0  0  0  0  0  0  0  0  0  0
    2.8738    8.2006   -3.8450 C   0  0  0  0  0  0  0  0  0  0  0  0
    2.2849    9.3980   -4.2175 C   0  0  0  0  0  0  0  0  0  0  0  0
    3.2044   10.5403   -5.4093 Br  0  0  0  0  0  0  0  0  0  0  0  0
    1.0236    9.7696   -3.7354 C   0  0  0  0  0  0  0  0  0  0  0  0
    0.2901   11.2427   -4.2088 Cl  0  0  0  0  0  0  0  0  0  0  0  0
    0.1114    7.0131   -1.5237 C   0  0  0  0  0  0  0  0  0  0  0  0
    0.5326    6.1000   -0.5835 C   0  0  0  0  0  0  0  0  0  0  0  0
   -0.2611    5.6846    0.5020 C   0  0  0  0  0  0  0  0  0  0  0  0
   -0.8521    5.3812    1.4398 N   0  0  0  0  0  0  0  0  0  0  0  0
    1.8499    5.6195   -0.5076 C   0  0  0  0  0  0  0  0  0  0  0  0
    2.9214    5.2184   -0.3892 N   0  0  0  0  0  0  0  0  0  0  0  0
   -2.9234    6.0663   -0.8949 C   0  0  0  0  0  0  0  0  0  0  0  0
   -4.1825    5.7795   -0.3280 C   0  0  0  0  0  0  0  0  0  0  0  0
   -4.9569    6.6886    0.3226 N   0  0  0  0  0  0  0  0  0  0  0  0
   -4.4063    7.8024    0.9986 C   0  0  0  0  0  0  0  0  0  0  0  0
   -5.0450    9.0349    0.9182 C   0  0  0  0  0  0  0  0  0  0  0  0
   -4.5228   10.1262    1.5843 C   0  0  0  0  0  0  0  0  0  0  0  0
   -3.3619   10.0157    2.3405 C   0  0  0  0  0  0  0  0  0  0  0  0
   -2.7823   11.2132    3.0263 C   0  0  0  0  0  0  0  0  0  0  0  0
   -2.7447    8.7727    2.4270 C   0  0  0  0  0  0  0  0  0  0  0  0
   -3.2587    7.6707    1.7736 C   0  0  0  0  0  0  0  0  0  0  0  0
   -6.3449    6.4792    0.4470 C   0  0  0  0  0  0  0  0  0  0  0  0
   -7.1094    6.1629   -0.6708 C   0  0  0  0  0  0  0  0  0  0  0  0
   -8.4763    6.0088   -0.5473 C   0  0  0  0  0  0  0  0  0  0  0  0
   -9.1073    6.1501    0.6819 C   0  0  0  0  0  0  0  0  0  0  0  0
  -10.5854    5.9526    0.8134 C   0  0  0  0  0  0  0  0  0  0  0  0
   -8.3316    6.4651    1.7928 C   0  0  0  0  0  0  0  0  0  0  0  0
   -6.9670    6.6358    1.6821 C   0  0  0  0  0  0  0  0  0  0  0  0
   -4.4802    4.4027   -0.4390 C   0  0  0  0  0  0  0  0  0  0  0  0
   -5.8177    3.4148    0.0365 S   0  0  0  0  0  0  0  0  0  0  0  0
   -4.9636    1.9683   -0.4717 C   0  0  0  0  0  0  0  0  0  0  0  0
   -3.7092    2.2488   -0.9974 C   0  0  0  0  0  0  0  0  0  0  0  0
   -2.8086    1.3081   -1.4472 N   0  0  0  0  0  0  0  0  0  0  0  0
   -3.2178    0.0758   -1.9964 C   0  0  0  0  0  0  0  0  0  0  0  0
   -2.6003   -1.1008   -1.5762 C   0  0  0  0  0  0  0  0  0  0  0  0
   -2.9676   -2.3135   -2.1212 C   0  0  0  0  0  0  0  0  0  0  0  0
   -3.9390   -2.3875   -3.1149 C   0  0  0  0  0  0  0  0  0  0  0  0
   -4.3198   -3.7108   -3.7033 C   0  0  0  0  0  0  0  0  0  0  0  0
   -4.5363   -1.2074   -3.5381 C   0  0  0  0  0  0  0  0  0  0  0  0
   -4.1950    0.0114   -2.9814 C   0  0  0  0  0  0  0  0  0  0  0  0
   -1.4227    1.5462   -1.3699 C   0  0  0  0  0  0  0  0  0  0  0  0
   -0.6054    1.1569   -2.4277 C   0  0  0  0  0  0  0  0  0  0  0  0
    0.7608    1.3355   -2.3531 C   0  0  0  0  0  0  0  0  0  0  0  0
    1.3509    1.9082   -1.2327 C   0  0  0  0  0  0  0  0  0  0  0  0
    2.8378    2.0612   -1.1427 C   0  0  0  0  0  0  0  0  0  0  0  0
    0.5256    2.3101   -0.1884 C   0  0  0  0  0  0  0  0  0  0  0  0
   -0.8436    2.1300   -0.2463 C   0  0  0  0  0  0  0  0  0  0  0  0
   -3.4628    3.6440   -0.9998 C   0  0  0  0  0  0  0  0  0  0  0  0
   -2.1194    4.6096   -1.4900 S   0  0  0  0  0  0  0  0  0  0  0  0
   -5.3865    0.6232   -0.1458 C   0  0  0  0  0  0  0  0  0  0  0  0
   -6.2486   -0.2698   -0.7481 C   0  0  0  0  0  0  0  0  0  0  0  0
   -7.2428    0.0759   -1.7634 C   0  0  0  0  0  0  0  0  0  0  0  0
   -7.6104   -0.8446   -2.7441 C   0  0  0  0  0  0  0  0  0  0  0  0
   -8.5414   -0.5068   -3.7066 C   0  0  0  0  0  0  0  0  0  0  0  0
   -9.1174    0.7506   -3.7138 C   0  0  0  0  0  0  0  0  0  0  0  0
   -8.7796    1.6770   -2.7361 C   0  0  0  0  0  0  0  0  0  0  0  0
   -9.3547    3.0631   -2.7676 C   0  0  0  0  0  0  0  0  0  0  0  0
   -8.4703    3.9643   -3.6321 C   0  0  0  0  0  0  0  0  0  0  0  0
   -7.8548    1.3268   -1.7652 C   0  0  0  0  0  0  0  0  0  0  0  0
   -5.9871   -1.5939   -0.3020 C   0  0  0  0  0  0  0  0  0  0  0  0
   -6.4982   -3.1739   -0.8609 S   0  0  0  0  0  0  0  0  0  0  0  0
   -5.2850   -3.9181    0.1278 C   0  0  0  0  0  0  0  0  0  0  0  0
   -4.5914   -5.1401    0.2347 C   0  0  0  0  0  0  0  0  0  0  0  0
   -4.5584   -6.2883   -0.5921 C   0  0  0  0  0  0  0  0  0  0  0  0
   -3.4083   -7.1608   -0.5431 C   0  0  0  0  0  0  0  0  0  0  0  0
   -3.4492   -8.0953   -1.4778 N   0  0  0  0  0  0  0  0  0  0  0  0
   -4.8092   -7.9140   -2.3378 S   0  0  0  0  0  0  0  0  0  0  0  0
   -5.3979   -6.6204   -1.5588 N   0  0  0  0  0  0  0  0  0  0  0  0
   -2.4170   -6.9482    0.4434 C   0  0  0  0  0  0  0  0  0  0  0  0
   -1.1519   -7.5152    0.7120 C   0  0  0  0  0  0  0  0  0  0  0  0
    0.0498   -8.4918   -0.0764 S   0  0  0  0  0  0  0  0  0  0  0  0
    1.2392   -7.9738    1.1043 C   0  0  0  0  0  0  0  0  0  0  0  0
    2.6515   -8.0178    1.1525 C   0  0  0  0  0  0  0  0  0  0  0  0
    3.5282   -8.6706    0.1821 C   0  0  0  0  0  0  0  0  0  0  0  0
    3.2269   -8.6481   -1.1773 C   0  0  0  0  0  0  0  0  0  0  0  0
    4.0913   -9.2307   -2.0846 C   0  0  0  0  0  0  0  0  0  0  0  0
    5.2502   -9.8482   -1.6503 C   0  0  0  0  0  0  0  0  0  0  0  0
    5.5644   -9.8870   -0.2967 C   0  0  0  0  0  0  0  0  0  0  0  0
    6.7933  -10.6026    0.1866 C   0  0  0  0  0  0  0  0  0  0  0  0
    6.4640  -12.0593    0.5179 C   0  0  0  0  0  0  0  0  0  0  0  0
    4.6980   -9.2956    0.6081 C   0  0  0  0  0  0  0  0  0  0  0  0
    3.1334   -7.2793    2.2202 C   0  0  0  0  0  0  0  0  0  0  0  0
    1.8533   -6.6112    3.2263 S   0  0  0  0  0  0  0  0  0  0  0  0
    0.6733   -7.1982    2.1168 C   0  0  0  0  0  0  0  0  0  0  0  0
   -0.6715   -6.9078    1.8753 C   0  0  0  0  0  0  0  0  0  0  0  0
   -1.5673   -5.9766    2.3328 N   0  0  0  0  0  0  0  0  0  0  0  0
   -2.6045   -5.9385    1.4219 C   0  0  0  0  0  0  0  0  0  0  0  0
   -3.5726   -4.9333    1.2001 C   0  0  0  0  0  0  0  0  0  0  0  0
   -3.6100   -3.6226    1.6262 N   0  0  0  0  0  0  0  0  0  0  0  0
   -4.6200   -3.0023    0.9451 C   0  0  0  0  0  0  0  0  0  0  0  0
   -4.9971   -1.6812    0.6709 C   0  0  0  0  0  0  0  0  0  0  0  0
   -4.3574   -0.1341    1.0674 S   0  0  0  0  0  0  0  0  0  0  0  0
   -2.5997   -2.8467    2.3075 C   0  0  0  0  0  0  0  0  0  0  0  0
   -3.1003   -2.3058    3.6447 C   0  0  0  0  0  0  0  0  0  0  0  0
   -1.6232   -5.5985    3.7278 C   0  0  0  0  0  0  0  0  0  0  0  0
   -1.7273   -6.8297    4.6263 C   0  0  0  0  0  0  0  0  0  0  0  0
    4.4007   -6.6282    2.3440 C   0  0  0  0  0  0  0  0  0  0  0  0
    5.1384   -6.1354    1.3081 C   0  0  0  0  0  0  0  0  0  0  0  0
    6.0158   -5.0871    1.6734 C   0  0  0  0  0  0  0  0  0  0  0  0
    6.6483   -4.2288    0.7563 C   0  0  0  0  0  0  0  0  0  0  0  0
    6.7397   -4.6183   -0.6554 C   0  0  0  0  0  0  0  0  0  0  0  0
    6.4055   -3.7250   -1.6958 C   0  0  0  0  0  0  0  0  0  0  0  0
    6.4704   -4.1218   -3.0001 C   0  0  0  0  0  0  0  0  0  0  0  0
    6.8746   -5.4282   -3.3474 C   0  0  0  0  0  0  0  0  0  0  0  0
    6.9415   -5.8706   -4.6841 C   0  0  0  0  0  0  0  0  0  0  0  0
    7.3384   -7.1452   -4.9781 C   0  0  0  0  0  0  0  0  0  0  0  0
    7.6908   -8.0342   -3.9500 C   0  0  0  0  0  0  0  0  0  0  0  0
    7.6377   -7.6356   -2.6445 C   0  0  0  0  0  0  0  0  0  0  0  0
    7.2254   -6.3291   -2.3084 C   0  0  0  0  0  0  0  0  0  0  0  0
    7.1474   -5.8948   -0.9736 C   0  0  0  0  0  0  0  0  0  0  0  0
    7.0923   -3.0187    1.2704 C   0  0  0  0  0  0  0  0  0  0  0  0
    7.0988   -2.7577    2.6651 C   0  0  0  0  0  0  0  0  0  0  0  0
    6.6037   -3.7016    3.6075 C   0  0  0  0  0  0  0  0  0  0  0  0
    6.7711   -3.3345    4.8927 O   0  0  0  0  0  0  0  0  0  0  0  0
    6.1561   -4.0260    5.9635 C   0  0  0  0  0  0  0  0  0  0  0  0
    4.7236   -3.5591    6.1960 C   0  0  0  0  0  0  0  0  0  0  0  0
    5.9872   -4.8191    3.0722 C   0  0  0  0  0  0  0  0  0  0  0  0
    4.9177   -5.9646    3.8775 S   0  0  0  0  0  0  0  0  0  0  0  0
    7.5049   -1.4506    2.9563 C   0  0  0  0  0  0  0  0  0  0  0  0
    7.7146   -0.6677    1.8332 C   0  0  0  0  0  0  0  0  0  0  0  0
    7.5533   -1.6094    0.3615 S   0  0  0  0  0  0  0  0  0  0  0  0
    7.8699    0.7285    1.9291 C   0  0  0  0  0  0  0  0  0  0  0  0
    7.6760    1.6992    0.9828 C   0  0  0  0  0  0  0  0  0  0  0  0
    7.2993    1.4746   -0.4227 C   0  0  0  0  0  0  0  0  0  0  0  0
    7.3966    0.4501   -1.0652 O   0  0  0  0  0  0  0  0  0  0  0  0
    6.7835    2.7741   -0.9053 C   0  0  0  0  0  0  0  0  0  0  0  0
    6.9562    3.7483    0.0953 C   0  0  0  0  0  0  0  0  0  0  0  0
    6.5007    5.0407   -0.1085 C   0  0  0  0  0  0  0  0  0  0  0  0
    5.8815    5.3445   -1.3118 C   0  0  0  0  0  0  0  0  0  0  0  0
    5.7276    4.3840   -2.2984 C   0  0  0  0  0  0  0  0  0  0  0  0
    4.8874    4.8543   -3.9213 Br  0  0  0  0  0  0  0  0  0  0  0  0
    6.1811    3.0747   -2.1150 C   0  0  0  0  0  0  0  0  0  0  0  0
    5.9921    1.8847   -3.3331 Cl  0  0  0  0  0  0  0  0  0  0  0  0
    7.6045    3.1229    1.2466 C   0  0  0  0  0  0  0  0  0  0  0  0
    8.0819    3.7881    2.3455 C   0  0  0  0  0  0  0  0  0  0  0  0
    8.0063    5.1862    2.5166 C   0  0  0  0  0  0  0  0  0  0  0  0
    7.9799    6.3167    2.7145 N   0  0  0  0  0  0  0  0  0  0  0  0
    8.7505    3.1840    3.4311 C   0  0  0  0  0  0  0  0  0  0  0  0
    9.3087    2.7684    4.3447 N   0  0  0  0  0  0  0  0  0  0  0  0
   -3.1154    8.1620   -1.0931 H   0  0  0  0  0  0  0  0  0  0  0  0
    2.7066    6.4064   -2.6950 H   0  0  0  0  0  0  0  0  0  0  0  0
    3.8342    7.9322   -4.2573 H   0  0  0  0  0  0  0  0  0  0  0  0
   -5.9432    9.1336    0.3263 H   0  0  0  0  0  0  0  0  0  0  0  0
   -5.0210   11.0814    1.5082 H   0  0  0  0  0  0  0  0  0  0  0  0
   -2.1803   11.7863    2.3204 H   0  0  0  0  0  0  0  0  0  0  0  0
   -2.1425   10.9169    3.8537 H   0  0  0  0  0  0  0  0  0  0  0  0
   -3.5687   11.8651    3.4003 H   0  0  0  0  0  0  0  0  0  0  0  0
   -1.8507    8.6591    3.0222 H   0  0  0  0  0  0  0  0  0  0  0  0
   -2.7666    6.7135    1.8580 H   0  0  0  0  0  0  0  0  0  0  0  0
   -6.6315    6.0631   -1.6345 H   0  0  0  0  0  0  0  0  0  0  0  0
   -9.0652    5.7910   -1.4246 H   0  0  0  0  0  0  0  0  0  0  0  0
  -11.0053    6.6417    1.5425 H   0  0  0  0  0  0  0  0  0  0  0  0
  -10.7950    4.9377    1.1533 H   0  0  0  0  0  0  0  0  0  0  0  0
  -11.0848    6.0991   -0.1412 H   0  0  0  0  0  0  0  0  0  0  0  0
   -8.8045    6.5805    2.7569 H   0  0  0  0  0  0  0  0  0  0  0  0
   -6.3730    6.8880    2.5478 H   0  0  0  0  0  0  0  0  0  0  0  0
   -1.8290   -1.0500   -0.8207 H   0  0  0  0  0  0  0  0  0  0  0  0
   -2.4927   -3.2208   -1.7742 H   0  0  0  0  0  0  0  0  0  0  0  0
   -4.9669   -3.5802   -4.5666 H   0  0  0  0  0  0  0  0  0  0  0  0
   -3.4319   -4.2619   -4.0091 H   0  0  0  0  0  0  0  0  0  0  0  0
   -4.8488   -4.3178   -2.9682 H   0  0  0  0  0  0  0  0  0  0  0  0
   -5.2786   -1.2343   -4.3220 H   0  0  0  0  0  0  0  0  0  0  0  0
   -4.6790    0.9175   -3.3159 H   0  0  0  0  0  0  0  0  0  0  0  0
   -1.0498    0.7092   -3.3045 H   0  0  0  0  0  0  0  0  0  0  0  0
    1.3799    1.0258   -3.1826 H   0  0  0  0  0  0  0  0  0  0  0  0
    3.2966    1.9121   -2.1165 H   0  0  0  0  0  0  0  0  0  0  0  0
    3.2516    1.3247   -0.4529 H   0  0  0  0  0  0  0  0  0  0  0  0
    3.1022    3.0502   -0.7716 H   0  0  0  0  0  0  0  0  0  0  0  0
    0.9614    2.7616    0.6913 H   0  0  0  0  0  0  0  0  0  0  0  0
   -1.4627    2.4312    0.5866 H   0  0  0  0  0  0  0  0  0  0  0  0
   -7.1598   -1.8224   -2.7654 H   0  0  0  0  0  0  0  0  0  0  0  0
   -8.8164   -1.2308   -4.4595 H   0  0  0  0  0  0  0  0  0  0  0  0
   -9.8393    1.0125   -4.4739 H   0  0  0  0  0  0  0  0  0  0  0  0
  -10.3638    3.0397   -3.1836 H   0  0  0  0  0  0  0  0  0  0  0  0
   -9.4055    3.4641   -1.7536 H   0  0  0  0  0  0  0  0  0  0  0  0
   -8.8877    4.9662   -3.7049 H   0  0  0  0  0  0  0  0  0  0  0  0
   -7.4724    4.0306   -3.2039 H   0  0  0  0  0  0  0  0  0  0  0  0
   -8.3844    3.5557   -4.6367 H   0  0  0  0  0  0  0  0  0  0  0  0
   -7.6262    2.0342   -0.9834 H   0  0  0  0  0  0  0  0  0  0  0  0
    2.3307   -8.1559   -1.5220 H   0  0  0  0  0  0  0  0  0  0  0  0
    3.8607   -9.1998   -3.1390 H   0  0  0  0  0  0  0  0  0  0  0  0
    5.9173  -10.3037   -2.3671 H   0  0  0  0  0  0  0  0  0  0  0  0
    7.1833  -10.1093    1.0797 H   0  0  0  0  0  0  0  0  0  0  0  0
    7.5659  -10.5776   -0.5846 H   0  0  0  0  0  0  0  0  0  0  0  0
    7.3518  -12.5808    0.8678 H   0  0  0  0  0  0  0  0  0  0  0  0
    6.0850  -12.5702   -0.3643 H   0  0  0  0  0  0  0  0  0  0  0  0
    5.7032  -12.1082    1.2936 H   0  0  0  0  0  0  0  0  0  0  0  0
    4.9273   -9.3236    1.6642 H   0  0  0  0  0  0  0  0  0  0  0  0
   -2.3440   -1.9972    1.6635 H   0  0  0  0  0  0  0  0  0  0  0  0
   -1.7040   -3.4536    2.4298 H   0  0  0  0  0  0  0  0  0  0  0  0
   -2.3043   -1.7557    4.1380 H   0  0  0  0  0  0  0  0  0  0  0  0
   -3.4319   -3.1063    4.3020 H   0  0  0  0  0  0  0  0  0  0  0  0
   -3.9362   -1.6304    3.4830 H   0  0  0  0  0  0  0  0  0  0  0  0
   -2.5026   -4.9753    3.8788 H   0  0  0  0  0  0  0  0  0  0  0  0
   -0.7207   -5.0332    3.9862 H   0  0  0  0  0  0  0  0  0  0  0  0
   -0.8414   -7.4519    4.5321 H   0  0  0  0  0  0  0  0  0  0  0  0
   -2.5999   -7.4210    4.3570 H   0  0  0  0  0  0  0  0  0  0  0  0
   -1.8214   -6.5180    5.6629 H   0  0  0  0  0  0  0  0  0  0  0  0
    4.9506   -6.4078    0.2856 H   0  0  0  0  0  0  0  0  0  0  0  0
    6.0753   -2.7276   -1.4509 H   0  0  0  0  0  0  0  0  0  0  0  0
    6.2048   -3.4340   -3.7899 H   0  0  0  0  0  0  0  0  0  0  0  0
    6.6737   -5.1819   -5.4728 H   0  0  0  0  0  0  0  0  0  0  0  0
    7.3876   -7.4779   -6.0047 H   0  0  0  0  0  0  0  0  0  0  0  0
    8.0084   -9.0353   -4.2039 H   0  0  0  0  0  0  0  0  0  0  0  0
    7.9099   -8.3106   -1.8460 H   0  0  0  0  0  0  0  0  0  0  0  0
    7.4283   -6.5843   -0.1894 H   0  0  0  0  0  0  0  0  0  0  0  0
    6.7735   -3.7775    6.8316 H   0  0  0  0  0  0  0  0  0  0  0  0
    6.1956   -5.1087    5.8079 H   0  0  0  0  0  0  0  0  0  0  0  0
    4.7087   -2.4867    6.3742 H   0  0  0  0  0  0  0  0  0  0  0  0
    4.1004   -3.7784    5.3327 H   0  0  0  0  0  0  0  0  0  0  0  0
    4.3121   -4.0694    7.0616 H   0  0  0  0  0  0  0  0  0  0  0  0
    7.5656   -1.0659    3.9585 H   0  0  0  0  0  0  0  0  0  0  0  0
    8.0424    1.0664    2.9447 H   0  0  0  0  0  0  0  0  0  0  0  0
    6.6011    5.8047    0.6437 H   0  0  0  0  0  0  0  0  0  0  0  0
    5.5064    6.3413   -1.4830 H   0  0  0  0  0  0  0  0  0  0  0  0
  1  2  2  0  0  0  0
  2  3  1  0  0  0  0
  3  4  2  0  0  0  0
  3  5  1  0  0  0  0
  5  6  2  0  0  0  0
  6  7  1  0  0  0  0
  7  8  2  0  0  0  0
  8  9  1  0  0  0  0
  9 10  1  0  0  0  0
  9 11  2  0  0  0  0
 11 12  1  0  0  0  0
  6 13  1  0  0  0  0
 13 14  2  0  0  0  0
 14 15  1  0  0  0  0
 15 16  3  0  0  0  0
 14 17  1  0  0  0  0
 17 18  3  0  0  0  0
  1 19  1  0  0  0  0
 19 20  2  0  0  0  0
 20 21  1  0  0  0  0
 21 22  1  0  0  0  0
 22 23  2  0  0  0  0
 23 24  1  0  0  0  0
 24 25  2  0  0  0  0
 25 26  1  0  0  0  0
 25 27  1  0  0  0  0
 27 28  2  0  0  0  0
 21 29  1  0  0  0  0
 29 30  2  0  0  0  0
 30 31  1  0  0  0  0
 31 32  2  0  0  0  0
 32 33  1  0  0  0  0
 32 34  1  0  0  0  0
 34 35  2  0  0  0  0
 20 36  1  0  0  0  0
 36 37  1  0  0  0  0
 37 38  1  0  0  0  0
 38 39  2  0  0  0  0
 39 40  1  0  0  0  0
 40 41  1  0  0  0  0
 41 42  2  0  0  0  0
 42 43  1  0  0  0  0
 43 44  2  0  0  0  0
 44 45  1  0  0  0  0
 44 46  1  0  0  0  0
 46 47  2  0  0  0  0
 40 48  1  0  0  0  0
 48 49  2  0  0  0  0
 49 50  1  0  0  0  0
 50 51  2  0  0  0  0
 51 52  1  0  0  0  0
 51 53  1  0  0  0  0
 53 54  2  0  0  0  0
 39 55  1  0  0  0  0
 55 56  1  0  0  0  0
 38 57  1  0  0  0  0
 57 58  2  0  0  0  0
 58 59  1  0  0  0  0
 59 60  2  0  0  0  0
 60 61  1  0  0  0  0
 61 62  2  0  0  0  0
 62 63  1  0  0  0  0
 63 64  1  0  0  0  0
 64 65  1  0  0  0  0
 63 66  2  0  0  0  0
 58 67  1  0  0  0  0
 67 68  1  0  0  0  0
 68 69  1  0  0  0  0
 69 70  1  0  0  0  0
 70 71  1  0  0  0  0
 71 72  1  0  0  0  0
 72 73  2  0  0  0  0
 73 74  1  0  0  0  0
 74 75  1  0  0  0  0
 72 76  1  0  0  0  0
 76 77  1  0  0  0  0
 77 78  1  0  0  0  0
 78 79  1  0  0  0  0
 79 80  1  0  0  0  0
 80 81  1  0  0  0  0
 81 82  2  0  0  0  0
 82 83  1  0  0  0  0
 83 84  2  0  0  0  0
 84 85  1  0  0  0  0
 85 86  1  0  0  0  0
 86 87  1  0  0  0  0
 85 88  2  0  0  0  0
 80 89  2  0  0  0  0
 89 90  1  0  0  0  0
 90 91  1  0  0  0  0
 91 92  1  0  0  0  0
 92 93  1  0  0  0  0
 93 94  1  0  0  0  0
 94 95  1  0  0  0  0
 95 96  1  0  0  0  0
 96 97  1  0  0  0  0
 97 98  1  0  0  0  0
 98 99  1  0  0  0  0
 96100  1  0  0  0  0
100101  1  0  0  0  0
 93102  1  0  0  0  0
102103  1  0  0  0  0
 89104  1  0  0  0  0
104105  2  0  0  0  0
105106  1  0  0  0  0
106107  2  0  0  0  0
107108  1  0  0  0  0
108109  2  0  0  0  0
109110  1  0  0  0  0
110111  2  0  0  0  0
111112  1  0  0  0  0
112113  2  0  0  0  0
113114  1  0  0  0  0
114115  2  0  0  0  0
115116  1  0  0  0  0
116117  2  0  0  0  0
107118  1  0  0  0  0
118119  2  0  0  0  0
119120  1  0  0  0  0
120121  1  0  0  0  0
121122  1  0  0  0  0
122123  1  0  0  0  0
120124  2  0  0  0  0
124125  1  0  0  0  0
119126  1  0  0  0  0
126127  2  0  0  0  0
127128  1  0  0  0  0
127129  1  0  0  0  0
129130  2  0  0  0  0
130131  1  0  0  0  0
131132  2  0  0  0  0
131133  1  0  0  0  0
133134  2  0  0  0  0
134135  1  0  0  0  0
135136  2  0  0  0  0
136137  1  0  0  0  0
137138  1  0  0  0  0
137139  2  0  0  0  0
139140  1  0  0  0  0
134141  1  0  0  0  0
141142  2  0  0  0  0
142143  1  0  0  0  0
143144  3  0  0  0  0
142145  1  0  0  0  0
145146  3  0  0  0  0
 13  2  1  0  0  0  0
 56 19  1  0  0  0  0
 99 57  1  0  0  0  0
125104  1  0  0  0  0
141130  1  0  0  0  0
 11  5  1  0  0  0  0
 28 22  1  0  0  0  0
 35 29  1  0  0  0  0
 55 36  2  0  0  0  0
 66 59  1  0  0  0  0
 98 67  2  0  0  0  0
124106  1  0  0  0  0
139133  1  0  0  0  0
 47 41  1  0  0  0  0
 54 48  1  0  0  0  0
 97 69  2  0  0  0  0
117108  1  0  0  0  0
128118  1  0  0  0  0
 95 70  2  0  0  0  0
116111  1  0  0  0  0
 75 71  2  0  0  0  0
 94 76  2  0  0  0  0
 92 77  2  0  0  0  0
 91 79  2  0  0  0  0
 88 81  1  0  0  0  0
  1147  1  0  0  0  0
  7148  1  0  0  0  0
  8149  1  0  0  0  0
 23150  1  0  0  0  0
 24151  1  0  0  0  0
 26152  1  0  0  0  0
 26153  1  0  0  0  0
 26154  1  0  0  0  0
 27155  1  0  0  0  0
 28156  1  0  0  0  0
 30157  1  0  0  0  0
 31158  1  0  0  0  0
 33159  1  0  0  0  0
 33160  1  0  0  0  0
 33161  1  0  0  0  0
 34162  1  0  0  0  0
 35163  1  0  0  0  0
 42164  1  0  0  0  0
 43165  1  0  0  0  0
 45166  1  0  0  0  0
 45167  1  0  0  0  0
 45168  1  0  0  0  0
 46169  1  0  0  0  0
 47170  1  0  0  0  0
 49171  1  0  0  0  0
 50172  1  0  0  0  0
 52173  1  0  0  0  0
 52174  1  0  0  0  0
 52175  1  0  0  0  0
 53176  1  0  0  0  0
 54177  1  0  0  0  0
 60178  1  0  0  0  0
 61179  1  0  0  0  0
 62180  1  0  0  0  0
 64181  1  0  0  0  0
 64182  1  0  0  0  0
 65183  1  0  0  0  0
 65184  1  0  0  0  0
 65185  1  0  0  0  0
 66186  1  0  0  0  0
 82187  1  0  0  0  0
 83188  1  0  0  0  0
 84189  1  0  0  0  0
 86190  1  0  0  0  0
 86191  1  0  0  0  0
 87192  1  0  0  0  0
 87193  1  0  0  0  0
 87194  1  0  0  0  0
 88195  1  0  0  0  0
100196  1  0  0  0  0
100197  1  0  0  0  0
101198  1  0  0  0  0
101199  1  0  0  0  0
101200  1  0  0  0  0
102201  1  0  0  0  0
102202  1  0  0  0  0
103203  1  0  0  0  0
103204  1  0  0  0  0
103205  1  0  0  0  0
105206  1  0  0  0  0
109207  1  0  0  0  0
110208  1  0  0  0  0
112209  1  0  0  0  0
113210  1  0  0  0  0
114211  1  0  0  0  0
115212  1  0  0  0  0
117213  1  0  0  0  0
122214  1  0  0  0  0
122215  1  0  0  0  0
123216  1  0  0  0  0
123217  1  0  0  0  0
123218  1  0  0  0  0
126219  1  0  0  0  0
129220  1  0  0  0  0
135221  1  0  0  0  0
136222  1  0  0  0  0
M  END
