
  xtb     02072223433D
 energy: -345.574664677782 gnorm: 0.000914362465 xtb: 6.4.1 (unknown)
199220  0     0  0            999 V2000
   -3.2690   -4.8057   -8.0634 C   0  0  0  0  0  0  0  0  0  0  0  0
   -3.2911   -6.1832   -7.9178 C   0  0  0  0  0  0  0  0  0  0  0  0
   -3.5818   -6.9144   -6.6901 C   0  0  0  0  0  0  0  0  0  0  0  0
   -3.7829   -6.4679   -5.5743 O   0  0  0  0  0  0  0  0  0  0  0  0
   -3.6132   -8.3461   -7.0688 C   0  0  0  0  0  0  0  0  0  0  0  0
   -3.3608   -8.4651   -8.4472 C   0  0  0  0  0  0  0  0  0  0  0  0
   -3.3480   -9.7161   -9.0406 C   0  0  0  0  0  0  0  0  0  0  0  0
   -3.5880  -10.8307   -8.2485 C   0  0  0  0  0  0  0  0  0  0  0  0
   -3.8310  -10.7073   -6.8903 C   0  0  0  0  0  0  0  0  0  0  0  0
   -4.1441  -12.2643   -5.8636 Br  0  0  0  0  0  0  0  0  0  0  0  0
   -3.8475   -9.4524   -6.2718 C   0  0  0  0  0  0  0  0  0  0  0  0
   -4.1434   -9.2917   -4.5921 Cl  0  0  0  0  0  0  0  0  0  0  0  0
   -3.1253   -7.1256   -8.9911 C   0  0  0  0  0  0  0  0  0  0  0  0
   -2.7717   -6.8610  -10.2952 C   0  0  0  0  0  0  0  0  0  0  0  0
   -2.3865   -5.6053  -10.7992 C   0  0  0  0  0  0  0  0  0  0  0  0
   -2.0202   -4.6291  -11.2848 N   0  0  0  0  0  0  0  0  0  0  0  0
   -2.7100   -7.8344  -11.3106 C   0  0  0  0  0  0  0  0  0  0  0  0
   -2.6543   -8.5717  -12.1900 N   0  0  0  0  0  0  0  0  0  0  0  0
   -3.3763   -3.7979   -7.1181 C   0  0  0  0  0  0  0  0  0  0  0  0
   -3.3067   -2.4090   -7.4391 C   0  0  0  0  0  0  0  0  0  0  0  0
   -3.3987   -1.8786   -8.6918 N   0  0  0  0  0  0  0  0  0  0  0  0
   -4.1842   -2.4528   -9.7123 C   0  0  0  0  0  0  0  0  0  0  0  0
   -5.4069   -3.0536   -9.4247 C   0  0  0  0  0  0  0  0  0  0  0  0
   -6.1544   -3.6147  -10.4408 C   0  0  0  0  0  0  0  0  0  0  0  0
   -5.7178   -3.5755  -11.7602 C   0  0  0  0  0  0  0  0  0  0  0  0
   -6.5116   -4.2072  -12.8612 C   0  0  0  0  0  0  0  0  0  0  0  0
   -4.5136   -2.9399  -12.0396 C   0  0  0  0  0  0  0  0  0  0  0  0
   -3.7485   -2.3861  -11.0329 C   0  0  0  0  0  0  0  0  0  0  0  0
   -2.8370   -0.6074   -8.9394 C   0  0  0  0  0  0  0  0  0  0  0  0
   -1.5309   -0.3279   -8.5477 C   0  0  0  0  0  0  0  0  0  0  0  0
   -1.0016    0.9288   -8.7611 C   0  0  0  0  0  0  0  0  0  0  0  0
   -1.7510    1.9297   -9.3688 C   0  0  0  0  0  0  0  0  0  0  0  0
   -1.1618    3.2869   -9.5931 C   0  0  0  0  0  0  0  0  0  0  0  0
   -3.0429    1.6298   -9.7822 C   0  0  0  0  0  0  0  0  0  0  0  0
   -3.5846    0.3767   -9.5763 C   0  0  0  0  0  0  0  0  0  0  0  0
   -3.1315   -1.6423   -6.2765 C   0  0  0  0  0  0  0  0  0  0  0  0
   -2.9329    0.0551   -5.9640 S   0  0  0  0  0  0  0  0  0  0  0  0
   -2.8626   -0.2540   -4.2318 C   0  0  0  0  0  0  0  0  0  0  0  0
   -3.0707   -1.5980   -3.9258 C   0  0  0  0  0  0  0  0  0  0  0  0
   -3.1716   -2.1387   -2.6565 N   0  0  0  0  0  0  0  0  0  0  0  0
   -2.7261   -3.4671   -2.4906 C   0  0  0  0  0  0  0  0  0  0  0  0
   -1.4744   -3.8362   -2.9738 C   0  0  0  0  0  0  0  0  0  0  0  0
   -1.0602   -5.1499   -2.8895 C   0  0  0  0  0  0  0  0  0  0  0  0
   -1.8737   -6.1212   -2.3186 C   0  0  0  0  0  0  0  0  0  0  0  0
   -1.4407   -7.5536   -2.2889 C   0  0  0  0  0  0  0  0  0  0  0  0
   -3.1079   -5.7355   -1.8105 C   0  0  0  0  0  0  0  0  0  0  0  0
   -3.5365   -4.4256   -1.8930 C   0  0  0  0  0  0  0  0  0  0  0  0
   -3.8675   -1.4974   -1.6294 C   0  0  0  0  0  0  0  0  0  0  0  0
   -3.5114   -1.7297   -0.3016 C   0  0  0  0  0  0  0  0  0  0  0  0
   -4.1479   -1.0528    0.7197 C   0  0  0  0  0  0  0  0  0  0  0  0
   -5.1479   -0.1266    0.4549 C   0  0  0  0  0  0  0  0  0  0  0  0
   -5.8247    0.6309    1.5564 C   0  0  0  0  0  0  0  0  0  0  0  0
   -5.5159    0.0818   -0.8704 C   0  0  0  0  0  0  0  0  0  0  0  0
   -4.8951   -0.5945   -1.8994 C   0  0  0  0  0  0  0  0  0  0  0  0
   -3.1834   -2.3789   -5.0990 C   0  0  0  0  0  0  0  0  0  0  0  0
   -3.4140   -4.0672   -5.3700 S   0  0  0  0  0  0  0  0  0  0  0  0
   -2.4907    0.7971   -3.3512 C   0  0  0  0  0  0  0  0  0  0  0  0
   -2.5232    2.1641   -3.5808 C   0  0  0  0  0  0  0  0  0  0  0  0
   -3.1606    2.7975   -4.7369 C   0  0  0  0  0  0  0  0  0  0  0  0
   -2.4693    3.7402   -5.4900 C   0  0  0  0  0  0  0  0  0  0  0  0
   -3.0770    4.3228   -6.5861 C   0  0  0  0  0  0  0  0  0  0  0  0
   -4.3695    3.9756   -6.9356 C   0  0  0  0  0  0  0  0  0  0  0  0
   -5.0833    3.0542   -6.1794 C   0  0  0  0  0  0  0  0  0  0  0  0
   -6.4731    2.6442   -6.5726 C   0  0  0  0  0  0  0  0  0  0  0  0
   -6.4139    1.4751   -7.5572 C   0  0  0  0  0  0  0  0  0  0  0  0
   -4.4698    2.4753   -5.0808 C   0  0  0  0  0  0  0  0  0  0  0  0
   -1.9028    2.8776   -2.5396 C   0  0  0  0  0  0  0  0  0  0  0  0
   -1.6618    4.5850   -2.2466 S   0  0  0  0  0  0  0  0  0  0  0  0
   -0.9081    4.1955   -0.7346 C   0  0  0  0  0  0  0  0  0  0  0  0
   -0.3350    4.8401    0.3733 C   0  0  0  0  0  0  0  0  0  0  0  0
   -0.2027    6.2121    0.6777 C   0  0  0  0  0  0  0  0  0  0  0  0
    0.3576    6.5912    1.9419 C   0  0  0  0  0  0  0  0  0  0  0  0
    0.3856    7.9040    2.1113 N   0  0  0  0  0  0  0  0  0  0  0  0
   -0.2371    8.6032    0.7895 S   0  0  0  0  0  0  0  0  0  0  0  0
   -0.5663    7.2580   -0.0483 N   0  0  0  0  0  0  0  0  0  0  0  0
    0.8438    5.5829    2.8015 C   0  0  0  0  0  0  0  0  0  0  0  0
    1.5351    5.6714    4.0195 C   0  0  0  0  0  0  0  0  0  0  0  0
    2.0881    6.8776    5.1316 S   0  0  0  0  0  0  0  0  0  0  0  0
    2.8315    5.6180    6.0891 C   0  0  0  0  0  0  0  0  0  0  0  0
    3.5573    5.6423    7.2949 C   0  0  0  0  0  0  0  0  0  0  0  0
    3.7750    6.8690    8.0627 C   0  0  0  0  0  0  0  0  0  0  0  0
    3.4978    6.9124    9.4273 C   0  0  0  0  0  0  0  0  0  0  0  0
    3.6628    8.0930   10.1240 C   0  0  0  0  0  0  0  0  0  0  0  0
    4.0956    9.2349    9.4715 C   0  0  0  0  0  0  0  0  0  0  0  0
    4.3686    9.2109    8.1101 C   0  0  0  0  0  0  0  0  0  0  0  0
    4.7783   10.4566    7.3797 C   0  0  0  0  0  0  0  0  0  0  0  0
    3.5553   11.1223    6.7452 C   0  0  0  0  0  0  0  0  0  0  0  0
    4.2016    8.0224    7.4154 C   0  0  0  0  0  0  0  0  0  0  0  0
    3.9440    4.3698    7.6828 C   0  0  0  0  0  0  0  0  0  0  0  0
    3.3832    3.1385    6.5540 S   0  0  0  0  0  0  0  0  0  0  0  0
    2.6433    4.3395    5.5597 C   0  0  0  0  0  0  0  0  0  0  0  0
    1.8947    4.3703    4.3770 C   0  0  0  0  0  0  0  0  0  0  0  0
    1.4253    3.4802    3.4491 N   0  0  0  0  0  0  0  0  0  0  0  0
    0.7687    4.2009    2.4636 C   0  0  0  0  0  0  0  0  0  0  0  0
    0.0846    3.8221    1.2779 C   0  0  0  0  0  0  0  0  0  0  0  0
   -0.2579    2.5919    0.7340 N   0  0  0  0  0  0  0  0  0  0  0  0
   -0.8532    2.8251   -0.4759 C   0  0  0  0  0  0  0  0  0  0  0  0
   -1.4166    2.0699   -1.5103 C   0  0  0  0  0  0  0  0  0  0  0  0
   -1.6771    0.3982   -1.8412 S   0  0  0  0  0  0  0  0  0  0  0  0
   -0.4543    1.3076    1.3702 C   0  0  0  0  0  0  0  0  0  0  0  0
   -1.4493    1.3996    2.5242 C   0  0  0  0  0  0  0  0  0  0  0  0
    1.9431    2.1313    3.4349 C   0  0  0  0  0  0  0  0  0  0  0  0
    2.9106    1.9144    2.2739 C   0  0  0  0  0  0  0  0  0  0  0  0
    4.8056    4.0009    8.7566 C   0  0  0  0  0  0  0  0  0  0  0  0
    4.8552    2.8102    9.4601 C   0  0  0  0  0  0  0  0  0  0  0  0
    3.9483    1.6305    9.3109 C   0  0  0  0  0  0  0  0  0  0  0  0
    4.6219    0.5225    8.4997 C   0  0  0  0  0  0  0  0  0  0  0  0
    5.8974    2.8212   10.3983 C   0  0  0  0  0  0  0  0  0  0  0  0
    6.6509    4.0062   10.4196 C   0  0  0  0  0  0  0  0  0  0  0  0
    6.0591    5.1424    9.2540 S   0  0  0  0  0  0  0  0  0  0  0  0
    7.6641    3.9969   11.3556 C   0  0  0  0  0  0  0  0  0  0  0  0
    7.7130    2.7959   12.0743 C   0  0  0  0  0  0  0  0  0  0  0  0
    6.4573    1.6755   11.5543 S   0  0  0  0  0  0  0  0  0  0  0  0
    8.6683    2.5774   13.0727 C   0  0  0  0  0  0  0  0  0  0  0  0
    8.8838    1.4912   13.8891 C   0  0  0  0  0  0  0  0  0  0  0  0
    8.1089    0.2485   13.8775 C   0  0  0  0  0  0  0  0  0  0  0  0
    7.1674   -0.0352   13.1613 O   0  0  0  0  0  0  0  0  0  0  0  0
    8.7051   -0.6117   14.9223 C   0  0  0  0  0  0  0  0  0  0  0  0
    9.7777    0.0684   15.5277 C   0  0  0  0  0  0  0  0  0  0  0  0
   10.4969   -0.5420   16.5425 C   0  0  0  0  0  0  0  0  0  0  0  0
   10.1343   -1.8216   16.9380 C   0  0  0  0  0  0  0  0  0  0  0  0
    9.0764   -2.4865   16.3384 C   0  0  0  0  0  0  0  0  0  0  0  0
    8.6321   -4.2276   16.9231 Br  0  0  0  0  0  0  0  0  0  0  0  0
    8.3370   -1.8889   15.3115 C   0  0  0  0  0  0  0  0  0  0  0  0
    7.0294   -2.7054   14.5676 Cl  0  0  0  0  0  0  0  0  0  0  0  0
    9.9116    1.3846   14.9012 C   0  0  0  0  0  0  0  0  0  0  0  0
   10.8549    2.3214   15.2423 C   0  0  0  0  0  0  0  0  0  0  0  0
   11.0060    3.5950   14.6553 C   0  0  0  0  0  0  0  0  0  0  0  0
   11.1998    4.6487   14.2402 N   0  0  0  0  0  0  0  0  0  0  0  0
   11.8275    2.1388   16.2475 C   0  0  0  0  0  0  0  0  0  0  0  0
   12.6435    2.0593   17.0514 N   0  0  0  0  0  0  0  0  0  0  0  0
   -3.1327   -4.4514   -9.0768 H   0  0  0  0  0  0  0  0  0  0  0  0
   -3.1593   -9.8452  -10.0931 H   0  0  0  0  0  0  0  0  0  0  0  0
   -3.5841  -11.8142   -8.6927 H   0  0  0  0  0  0  0  0  0  0  0  0
   -5.7630   -3.0853   -8.4055 H   0  0  0  0  0  0  0  0  0  0  0  0
   -7.0979   -4.0848  -10.2035 H   0  0  0  0  0  0  0  0  0  0  0  0
   -7.4784   -4.5493  -12.5012 H   0  0  0  0  0  0  0  0  0  0  0  0
   -6.6687   -3.5004  -13.6741 H   0  0  0  0  0  0  0  0  0  0  0  0
   -5.9710   -5.0624  -13.2667 H   0  0  0  0  0  0  0  0  0  0  0  0
   -4.1587   -2.8955  -13.0578 H   0  0  0  0  0  0  0  0  0  0  0  0
   -2.8062   -1.9135  -11.2608 H   0  0  0  0  0  0  0  0  0  0  0  0
   -0.9382   -1.1003   -8.0801 H   0  0  0  0  0  0  0  0  0  0  0  0
    0.0114    1.1376   -8.4505 H   0  0  0  0  0  0  0  0  0  0  0  0
   -0.6205    3.6181   -8.7096 H   0  0  0  0  0  0  0  0  0  0  0  0
   -0.4581    3.2571  -10.4253 H   0  0  0  0  0  0  0  0  0  0  0  0
   -1.9363    4.0125   -9.8268 H   0  0  0  0  0  0  0  0  0  0  0  0
   -3.6371    2.3905  -10.2672 H   0  0  0  0  0  0  0  0  0  0  0  0
   -4.5911    0.1531   -9.8975 H   0  0  0  0  0  0  0  0  0  0  0  0
   -0.8388   -3.0879   -3.4257 H   0  0  0  0  0  0  0  0  0  0  0  0
   -0.0916   -5.4281   -3.2798 H   0  0  0  0  0  0  0  0  0  0  0  0
   -1.6648   -8.0194   -3.2490 H   0  0  0  0  0  0  0  0  0  0  0  0
   -0.3688   -7.6353   -2.1200 H   0  0  0  0  0  0  0  0  0  0  0  0
   -1.9659   -8.1069   -1.5142 H   0  0  0  0  0  0  0  0  0  0  0  0
   -3.7539   -6.4757   -1.3617 H   0  0  0  0  0  0  0  0  0  0  0  0
   -4.5073   -4.1419   -1.5139 H   0  0  0  0  0  0  0  0  0  0  0  0
   -2.7207   -2.4312   -0.0816 H   0  0  0  0  0  0  0  0  0  0  0  0
   -3.8512   -1.2405    1.7418 H   0  0  0  0  0  0  0  0  0  0  0  0
   -6.8877    0.3933    1.5827 H   0  0  0  0  0  0  0  0  0  0  0  0
   -5.7308    1.7044    1.3952 H   0  0  0  0  0  0  0  0  0  0  0  0
   -5.3923    0.3836    2.5228 H   0  0  0  0  0  0  0  0  0  0  0  0
   -6.3046    0.7849   -1.0973 H   0  0  0  0  0  0  0  0  0  0  0  0
   -5.2039   -0.4265   -2.9207 H   0  0  0  0  0  0  0  0  0  0  0  0
   -1.4575    4.0027   -5.2200 H   0  0  0  0  0  0  0  0  0  0  0  0
   -2.5390    5.0544   -7.1703 H   0  0  0  0  0  0  0  0  0  0  0  0
   -4.8364    4.4325   -7.7963 H   0  0  0  0  0  0  0  0  0  0  0  0
   -6.9932    3.4831   -7.0391 H   0  0  0  0  0  0  0  0  0  0  0  0
   -7.0356    2.3434   -5.6865 H   0  0  0  0  0  0  0  0  0  0  0  0
   -5.8892    1.7745   -8.4608 H   0  0  0  0  0  0  0  0  0  0  0  0
   -5.8767    0.6374   -7.1171 H   0  0  0  0  0  0  0  0  0  0  0  0
   -7.4160    1.1476   -7.8247 H   0  0  0  0  0  0  0  0  0  0  0  0
   -5.0159    1.7677   -4.4726 H   0  0  0  0  0  0  0  0  0  0  0  0
    3.1422    6.0249    9.9307 H   0  0  0  0  0  0  0  0  0  0  0  0
    3.4470    8.1255   11.1818 H   0  0  0  0  0  0  0  0  0  0  0  0
    4.2199   10.1548   10.0244 H   0  0  0  0  0  0  0  0  0  0  0  0
    5.4974   10.2068    6.5972 H   0  0  0  0  0  0  0  0  0  0  0  0
    5.2532   11.1545    8.0717 H   0  0  0  0  0  0  0  0  0  0  0  0
    2.8308   11.3893    7.5114 H   0  0  0  0  0  0  0  0  0  0  0  0
    3.8471   12.0248    6.2135 H   0  0  0  0  0  0  0  0  0  0  0  0
    3.0758   10.4436    6.0435 H   0  0  0  0  0  0  0  0  0  0  0  0
    4.4199    7.9880    6.3579 H   0  0  0  0  0  0  0  0  0  0  0  0
   -0.8594    0.6413    0.6045 H   0  0  0  0  0  0  0  0  0  0  0  0
    0.4972    0.8839    1.6908 H   0  0  0  0  0  0  0  0  0  0  0  0
   -1.5634    0.4253    2.9917 H   0  0  0  0  0  0  0  0  0  0  0  0
   -2.4192    1.7195    2.1504 H   0  0  0  0  0  0  0  0  0  0  0  0
   -1.1188    2.1150    3.2740 H   0  0  0  0  0  0  0  0  0  0  0  0
    2.4778    1.9945    4.3783 H   0  0  0  0  0  0  0  0  0  0  0  0
    1.1278    1.4076    3.4228 H   0  0  0  0  0  0  0  0  0  0  0  0
    3.7637    2.5814    2.3740 H   0  0  0  0  0  0  0  0  0  0  0  0
    2.4317    2.1182    1.3192 H   0  0  0  0  0  0  0  0  0  0  0  0
    3.2707    0.8891    2.2767 H   0  0  0  0  0  0  0  0  0  0  0  0
    3.7233    1.2483   10.3095 H   0  0  0  0  0  0  0  0  0  0  0  0
    3.0122    1.9240    8.8346 H   0  0  0  0  0  0  0  0  0  0  0  0
    5.5343    0.1988    8.9944 H   0  0  0  0  0  0  0  0  0  0  0  0
    4.8717    0.8763    7.5020 H   0  0  0  0  0  0  0  0  0  0  0  0
    3.9552   -0.3308    8.4087 H   0  0  0  0  0  0  0  0  0  0  0  0
    8.3505    4.8053   11.5313 H   0  0  0  0  0  0  0  0  0  0  0  0
    9.3359    3.4200   13.2058 H   0  0  0  0  0  0  0  0  0  0  0  0
   11.3238   -0.0530   17.0289 H   0  0  0  0  0  0  0  0  0  0  0  0
   10.6823   -2.3136   17.7268 H   0  0  0  0  0  0  0  0  0  0  0  0
  1  2  2  0  0  0  0
  2  3  1  0  0  0  0
  3  4  2  0  0  0  0
  3  5  1  0  0  0  0
  5  6  2  0  0  0  0
  6  7  1  0  0  0  0
  7  8  2  0  0  0  0
  8  9  1  0  0  0  0
  9 10  1  0  0  0  0
  9 11  2  0  0  0  0
 11 12  1  0  0  0  0
  6 13  1  0  0  0  0
 13 14  2  0  0  0  0
 14 15  1  0  0  0  0
 15 16  3  0  0  0  0
 14 17  1  0  0  0  0
 17 18  3  0  0  0  0
  1 19  1  0  0  0  0
 19 20  2  0  0  0  0
 20 21  1  0  0  0  0
 21 22  1  0  0  0  0
 22 23  2  0  0  0  0
 23 24  1  0  0  0  0
 24 25  2  0  0  0  0
 25 26  1  0  0  0  0
 25 27  1  0  0  0  0
 27 28  2  0  0  0  0
 21 29  1  0  0  0  0
 29 30  2  0  0  0  0
 30 31  1  0  0  0  0
 31 32  2  0  0  0  0
 32 33  1  0  0  0  0
 32 34  1  0  0  0  0
 34 35  2  0  0  0  0
 20 36  1  0  0  0  0
 36 37  1  0  0  0  0
 37 38  1  0  0  0  0
 38 39  2  0  0  0  0
 39 40  1  0  0  0  0
 40 41  1  0  0  0  0
 41 42  2  0  0  0  0
 42 43  1  0  0  0  0
 43 44  2  0  0  0  0
 44 45  1  0  0  0  0
 44 46  1  0  0  0  0
 46 47  2  0  0  0  0
 40 48  1  0  0  0  0
 48 49  2  0  0  0  0
 49 50  1  0  0  0  0
 50 51  2  0  0  0  0
 51 52  1  0  0  0  0
 51 53  1  0  0  0  0
 53 54  2  0  0  0  0
 39 55  1  0  0  0  0
 55 56  1  0  0  0  0
 38 57  1  0  0  0  0
 57 58  2  0  0  0  0
 58 59  1  0  0  0  0
 59 60  2  0  0  0  0
 60 61  1  0  0  0  0
 61 62  2  0  0  0  0
 62 63  1  0  0  0  0
 63 64  1  0  0  0  0
 64 65  1  0  0  0  0
 63 66  2  0  0  0  0
 58 67  1  0  0  0  0
 67 68  1  0  0  0  0
 68 69  1  0  0  0  0
 69 70  1  0  0  0  0
 70 71  1  0  0  0  0
 71 72  1  0  0  0  0
 72 73  2  0  0  0  0
 73 74  1  0  0  0  0
 74 75  1  0  0  0  0
 72 76  1  0  0  0  0
 76 77  1  0  0  0  0
 77 78  1  0  0  0  0
 78 79  1  0  0  0  0
 79 80  1  0  0  0  0
 80 81  1  0  0  0  0
 81 82  2  0  0  0  0
 82 83  1  0  0  0  0
 83 84  2  0  0  0  0
 84 85  1  0  0  0  0
 85 86  1  0  0  0  0
 86 87  1  0  0  0  0
 85 88  2  0  0  0  0
 80 89  2  0  0  0  0
 89 90  1  0  0  0  0
 90 91  1  0  0  0  0
 91 92  1  0  0  0  0
 92 93  1  0  0  0  0
 93 94  1  0  0  0  0
 94 95  1  0  0  0  0
 95 96  1  0  0  0  0
 96 97  1  0  0  0  0
 97 98  1  0  0  0  0
 98 99  1  0  0  0  0
 96100  1  0  0  0  0
100101  1  0  0  0  0
 93102  1  0  0  0  0
102103  1  0  0  0  0
 89104  1  0  0  0  0
104105  2  0  0  0  0
105106  1  0  0  0  0
106107  1  0  0  0  0
105108  1  0  0  0  0
108109  2  0  0  0  0
109110  1  0  0  0  0
109111  1  0  0  0  0
111112  2  0  0  0  0
112113  1  0  0  0  0
112114  1  0  0  0  0
114115  2  0  0  0  0
115116  1  0  0  0  0
116117  2  0  0  0  0
116118  1  0  0  0  0
118119  2  0  0  0  0
119120  1  0  0  0  0
120121  2  0  0  0  0
121122  1  0  0  0  0
122123  1  0  0  0  0
122124  2  0  0  0  0
124125  1  0  0  0  0
119126  1  0  0  0  0
126127  2  0  0  0  0
127128  1  0  0  0  0
128129  3  0  0  0  0
127130  1  0  0  0  0
130131  3  0  0  0  0
 13  2  1  0  0  0  0
 56 19  1  0  0  0  0
 99 57  1  0  0  0  0
110104  1  0  0  0  0
126115  1  0  0  0  0
 11  5  1  0  0  0  0
 28 22  1  0  0  0  0
 35 29  1  0  0  0  0
 55 36  2  0  0  0  0
 66 59  1  0  0  0  0
 98 67  2  0  0  0  0
113108  1  0  0  0  0
124118  1  0  0  0  0
 47 41  1  0  0  0  0
 54 48  1  0  0  0  0
 97 69  2  0  0  0  0
 95 70  2  0  0  0  0
 75 71  2  0  0  0  0
 94 76  2  0  0  0  0
 92 77  2  0  0  0  0
 91 79  2  0  0  0  0
 88 81  1  0  0  0  0
  1132  1  0  0  0  0
  7133  1  0  0  0  0
  8134  1  0  0  0  0
 23135  1  0  0  0  0
 24136  1  0  0  0  0
 26137  1  0  0  0  0
 26138  1  0  0  0  0
 26139  1  0  0  0  0
 27140  1  0  0  0  0
 28141  1  0  0  0  0
 30142  1  0  0  0  0
 31143  1  0  0  0  0
 33144  1  0  0  0  0
 33145  1  0  0  0  0
 33146  1  0  0  0  0
 34147  1  0  0  0  0
 35148  1  0  0  0  0
 42149  1  0  0  0  0
 43150  1  0  0  0  0
 45151  1  0  0  0  0
 45152  1  0  0  0  0
 45153  1  0  0  0  0
 46154  1  0  0  0  0
 47155  1  0  0  0  0
 49156  1  0  0  0  0
 50157  1  0  0  0  0
 52158  1  0  0  0  0
 52159  1  0  0  0  0
 52160  1  0  0  0  0
 53161  1  0  0  0  0
 54162  1  0  0  0  0
 60163  1  0  0  0  0
 61164  1  0  0  0  0
 62165  1  0  0  0  0
 64166  1  0  0  0  0
 64167  1  0  0  0  0
 65168  1  0  0  0  0
 65169  1  0  0  0  0
 65170  1  0  0  0  0
 66171  1  0  0  0  0
 82172  1  0  0  0  0
 83173  1  0  0  0  0
 84174  1  0  0  0  0
 86175  1  0  0  0  0
 86176  1  0  0  0  0
 87177  1  0  0  0  0
 87178  1  0  0  0  0
 87179  1  0  0  0  0
 88180  1  0  0  0  0
100181  1  0  0  0  0
100182  1  0  0  0  0
101183  1  0  0  0  0
101184  1  0  0  0  0
101185  1  0  0  0  0
102186  1  0  0  0  0
102187  1  0  0  0  0
103188  1  0  0  0  0
103189  1  0  0  0  0
103190  1  0  0  0  0
106191  1  0  0  0  0
106192  1  0  0  0  0
107193  1  0  0  0  0
107194  1  0  0  0  0
107195  1  0  0  0  0
111196  1  0  0  0  0
114197  1  0  0  0  0
120198  1  0  0  0  0
121199  1  0  0  0  0
M  END
