
  xtb     02082201273D
 energy: -400.784647350764 gnorm: 0.000356216648 xtb: 6.4.1 (unknown)
244268  0     0  0            999 V2000
    8.4123   -2.8237    5.2550 C   0  0  0  0  0  0  0  0  0  0  0  0
    8.0762   -1.9417    6.2584 C   0  0  0  0  0  0  0  0  0  0  0  0
    8.6197   -2.1907    7.6059 C   0  0  0  0  0  0  0  0  0  0  0  0
    9.5403   -2.9202    7.9065 O   0  0  0  0  0  0  0  0  0  0  0  0
    7.7400   -1.4153    8.5194 C   0  0  0  0  0  0  0  0  0  0  0  0
    6.8176   -0.6721    7.7585 C   0  0  0  0  0  0  0  0  0  0  0  0
    5.8539    0.0982    8.3841 C   0  0  0  0  0  0  0  0  0  0  0  0
    5.8233    0.1230    9.7714 C   0  0  0  0  0  0  0  0  0  0  0  0
    6.7424   -0.5955   10.5189 C   0  0  0  0  0  0  0  0  0  0  0  0
    6.6572   -0.5108   12.4068 Br  0  0  0  0  0  0  0  0  0  0  0  0
    7.7221   -1.3822    9.9030 C   0  0  0  0  0  0  0  0  0  0  0  0
    8.8567   -2.2715   10.8281 Cl  0  0  0  0  0  0  0  0  0  0  0  0
    7.1232   -0.8722    6.3415 C   0  0  0  0  0  0  0  0  0  0  0  0
    6.7786   -0.0020    5.3327 C   0  0  0  0  0  0  0  0  0  0  0  0
    5.8396    1.0320    5.4748 C   0  0  0  0  0  0  0  0  0  0  0  0
    5.0525    1.8670    5.5405 N   0  0  0  0  0  0  0  0  0  0  0  0
    7.4229   -0.0128    4.0786 C   0  0  0  0  0  0  0  0  0  0  0  0
    7.9917    0.0528    3.0828 N   0  0  0  0  0  0  0  0  0  0  0  0
    7.6998   -3.1685    4.1083 C   0  0  0  0  0  0  0  0  0  0  0  0
    8.0693   -4.0918    3.1000 C   0  0  0  0  0  0  0  0  0  0  0  0
    9.2028   -4.8501    3.0886 N   0  0  0  0  0  0  0  0  0  0  0  0
    9.7758   -5.3237    4.2891 C   0  0  0  0  0  0  0  0  0  0  0  0
    8.9707   -5.9007    5.2680 C   0  0  0  0  0  0  0  0  0  0  0  0
    9.5262   -6.3083    6.4633 C   0  0  0  0  0  0  0  0  0  0  0  0
   10.8882   -6.1647    6.7064 C   0  0  0  0  0  0  0  0  0  0  0  0
   11.4671   -6.5359    8.0336 C   0  0  0  0  0  0  0  0  0  0  0  0
   11.6883   -5.6317    5.7026 C   0  0  0  0  0  0  0  0  0  0  0  0
   11.1453   -5.2143    4.5030 C   0  0  0  0  0  0  0  0  0  0  0  0
    9.8010   -5.2260    1.8730 C   0  0  0  0  0  0  0  0  0  0  0  0
   10.3463   -6.4996    1.7320 C   0  0  0  0  0  0  0  0  0  0  0  0
   10.9777   -6.8532    0.5577 C   0  0  0  0  0  0  0  0  0  0  0  0
   11.0782   -5.9580   -0.5027 C   0  0  0  0  0  0  0  0  0  0  0  0
   11.8092   -6.3479   -1.7496 C   0  0  0  0  0  0  0  0  0  0  0  0
   10.5173   -4.6956   -0.3578 C   0  0  0  0  0  0  0  0  0  0  0  0
    9.8901   -4.3248    0.8158 C   0  0  0  0  0  0  0  0  0  0  0  0
    7.0849   -4.1472    2.0889 C   0  0  0  0  0  0  0  0  0  0  0  0
    6.9152   -5.0382    0.6137 S   0  0  0  0  0  0  0  0  0  0  0  0
    5.3320   -4.3308    0.3433 C   0  0  0  0  0  0  0  0  0  0  0  0
    4.9864   -3.3931    1.3150 C   0  0  0  0  0  0  0  0  0  0  0  0
    3.8946   -2.5436    1.2994 N   0  0  0  0  0  0  0  0  0  0  0  0
    3.4521   -2.0077    2.5283 C   0  0  0  0  0  0  0  0  0  0  0  0
    3.1671   -2.8444    3.6022 C   0  0  0  0  0  0  0  0  0  0  0  0
    2.7789   -2.3042    4.8148 C   0  0  0  0  0  0  0  0  0  0  0  0
    2.6582   -0.9310    4.9811 C   0  0  0  0  0  0  0  0  0  0  0  0
    2.2477   -0.3394    6.2936 C   0  0  0  0  0  0  0  0  0  0  0  0
    2.9171   -0.1049    3.8919 C   0  0  0  0  0  0  0  0  0  0  0  0
    3.3127   -0.6306    2.6802 C   0  0  0  0  0  0  0  0  0  0  0  0
    3.3613   -2.0043    0.1207 C   0  0  0  0  0  0  0  0  0  0  0  0
    4.1405   -1.7838   -1.0135 C   0  0  0  0  0  0  0  0  0  0  0  0
    3.5538   -1.3325   -2.1790 C   0  0  0  0  0  0  0  0  0  0  0  0
    2.1929   -1.0557   -2.2465 C   0  0  0  0  0  0  0  0  0  0  0  0
    1.5750   -0.5864   -3.5277 C   0  0  0  0  0  0  0  0  0  0  0  0
    1.4369   -1.2097   -1.0917 C   0  0  0  0  0  0  0  0  0  0  0  0
    2.0045   -1.6863    0.0740 C   0  0  0  0  0  0  0  0  0  0  0  0
    5.9761   -3.3460    2.3221 C   0  0  0  0  0  0  0  0  0  0  0  0
    6.0897   -2.5048    3.8184 S   0  0  0  0  0  0  0  0  0  0  0  0
    4.5501   -4.6776   -0.7992 C   0  0  0  0  0  0  0  0  0  0  0  0
    4.9330   -4.7592   -2.1225 C   0  0  0  0  0  0  0  0  0  0  0  0
    6.3225   -4.6826   -2.6087 C   0  0  0  0  0  0  0  0  0  0  0  0
    6.7570   -3.4833   -3.1605 C   0  0  0  0  0  0  0  0  0  0  0  0
    8.0399   -3.3593   -3.6567 C   0  0  0  0  0  0  0  0  0  0  0  0
    8.8902   -4.4493   -3.6169 C   0  0  0  0  0  0  0  0  0  0  0  0
    8.4569   -5.6484   -3.0813 C   0  0  0  0  0  0  0  0  0  0  0  0
    7.1762   -5.7887   -2.5641 C   0  0  0  0  0  0  0  0  0  0  0  0
    6.6893   -7.1095   -2.0287 C   0  0  0  0  0  0  0  0  0  0  0  0
    7.7689   -7.9515   -1.3551 C   0  0  0  0  0  0  0  0  0  0  0  0
    3.8118   -4.7730   -2.9752 C   0  0  0  0  0  0  0  0  0  0  0  0
    3.6378   -4.5526   -4.7032 S   0  0  0  0  0  0  0  0  0  0  0  0
    1.9283   -4.3272   -4.4853 C   0  0  0  0  0  0  0  0  0  0  0  0
    0.8284   -3.7877   -5.1782 C   0  0  0  0  0  0  0  0  0  0  0  0
    0.7213   -3.1858   -6.4538 C   0  0  0  0  0  0  0  0  0  0  0  0
   -0.3926   -2.3126   -6.7273 C   0  0  0  0  0  0  0  0  0  0  0  0
   -0.2963   -1.7318   -7.9117 N   0  0  0  0  0  0  0  0  0  0  0  0
    1.0616   -2.2430   -8.6311 S   0  0  0  0  0  0  0  0  0  0  0  0
    1.5912   -3.2167   -7.4497 N   0  0  0  0  0  0  0  0  0  0  0  0
   -1.4056   -2.1599   -5.7539 C   0  0  0  0  0  0  0  0  0  0  0  0
   -2.4865   -1.2646   -5.6175 C   0  0  0  0  0  0  0  0  0  0  0  0
   -3.1366    0.1623   -6.3685 S   0  0  0  0  0  0  0  0  0  0  0  0
   -4.1613    0.4195   -4.9659 C   0  0  0  0  0  0  0  0  0  0  0  0
   -4.9507    1.4945   -4.5212 C   0  0  0  0  0  0  0  0  0  0  0  0
   -5.2853    2.6970   -5.3000 C   0  0  0  0  0  0  0  0  0  0  0  0
   -4.3325    3.6655   -5.6255 C   0  0  0  0  0  0  0  0  0  0  0  0
   -2.9078    3.5662   -5.1576 C   0  0  0  0  0  0  0  0  0  0  0  0
   -2.7859    3.8170   -3.6541 C   0  0  0  0  0  0  0  0  0  0  0  0
   -4.7415    4.7671   -6.3641 C   0  0  0  0  0  0  0  0  0  0  0  0
   -6.0535    4.9176   -6.7728 C   0  0  0  0  0  0  0  0  0  0  0  0
   -6.9921    3.9551   -6.4473 C   0  0  0  0  0  0  0  0  0  0  0  0
   -6.6058    2.8505   -5.7142 C   0  0  0  0  0  0  0  0  0  0  0  0
   -5.4019    1.2855   -3.2251 C   0  0  0  0  0  0  0  0  0  0  0  0
   -4.9254   -0.2796   -2.5845 S   0  0  0  0  0  0  0  0  0  0  0  0
   -4.0567   -0.6129   -4.0317 C   0  0  0  0  0  0  0  0  0  0  0  0
   -3.1110   -1.5682   -4.4067 C   0  0  0  0  0  0  0  0  0  0  0  0
   -2.4984   -2.6347   -3.8005 N   0  0  0  0  0  0  0  0  0  0  0  0
   -1.3989   -2.9584   -4.5783 C   0  0  0  0  0  0  0  0  0  0  0  0
   -0.2311   -3.6777   -4.2349 C   0  0  0  0  0  0  0  0  0  0  0  0
    0.2103   -4.1442   -3.0152 N   0  0  0  0  0  0  0  0  0  0  0  0
    1.5187   -4.5055   -3.1605 C   0  0  0  0  0  0  0  0  0  0  0  0
    2.5913   -4.7563   -2.3009 C   0  0  0  0  0  0  0  0  0  0  0  0
    2.8071   -4.8163   -0.5920 S   0  0  0  0  0  0  0  0  0  0  0  0
   -0.3570   -4.0376   -1.6921 C   0  0  0  0  0  0  0  0  0  0  0  0
   -0.7909   -5.3989   -1.1515 C   0  0  0  0  0  0  0  0  0  0  0  0
   -3.2633   -3.5121   -2.9371 C   0  0  0  0  0  0  0  0  0  0  0  0
   -4.5906   -3.9124   -3.5800 C   0  0  0  0  0  0  0  0  0  0  0  0
   -5.9439    2.2344   -2.3188 C   0  0  0  0  0  0  0  0  0  0  0  0
   -6.0158    2.0709   -0.9402 C   0  0  0  0  0  0  0  0  0  0  0  0
   -5.7461    0.8636   -0.2750 N   0  0  0  0  0  0  0  0  0  0  0  0
   -4.5860    0.8097    0.5136 C   0  0  0  0  0  0  0  0  0  0  0  0
   -3.4129    1.3957    0.0423 C   0  0  0  0  0  0  0  0  0  0  0  0
   -2.2420    1.3024    0.7679 C   0  0  0  0  0  0  0  0  0  0  0  0
   -2.2024    0.6309    1.9834 C   0  0  0  0  0  0  0  0  0  0  0  0
   -0.9264    0.5232    2.7630 C   0  0  0  0  0  0  0  0  0  0  0  0
   -3.3865    0.0865    2.4677 C   0  0  0  0  0  0  0  0  0  0  0  0
   -4.5650    0.1757    1.7530 C   0  0  0  0  0  0  0  0  0  0  0  0
   -6.7441   -0.1144   -0.2221 C   0  0  0  0  0  0  0  0  0  0  0  0
   -8.0774    0.2172   -0.4506 C   0  0  0  0  0  0  0  0  0  0  0  0
   -9.0517   -0.7615   -0.4462 C   0  0  0  0  0  0  0  0  0  0  0  0
   -8.7343   -2.0936   -0.2160 C   0  0  0  0  0  0  0  0  0  0  0  0
   -9.8017   -3.1446   -0.1788 C   0  0  0  0  0  0  0  0  0  0  0  0
   -7.4005   -2.4201   -0.0014 C   0  0  0  0  0  0  0  0  0  0  0  0
   -6.4163   -1.4538   -0.0106 C   0  0  0  0  0  0  0  0  0  0  0  0
   -6.3533    3.2727   -0.2927 C   0  0  0  0  0  0  0  0  0  0  0  0
   -6.6083    3.7054    1.3571 S   0  0  0  0  0  0  0  0  0  0  0  0
   -7.0119    5.3546    0.8760 C   0  0  0  0  0  0  0  0  0  0  0  0
   -6.9915    5.5201   -0.5204 C   0  0  0  0  0  0  0  0  0  0  0  0
   -7.3346    6.6681   -1.1930 N   0  0  0  0  0  0  0  0  0  0  0  0
   -6.6615    7.0143   -2.3764 C   0  0  0  0  0  0  0  0  0  0  0  0
   -5.2825    6.8563   -2.4789 C   0  0  0  0  0  0  0  0  0  0  0  0
   -4.6213    7.2657   -3.6210 C   0  0  0  0  0  0  0  0  0  0  0  0
   -5.3082    7.8358   -4.6838 C   0  0  0  0  0  0  0  0  0  0  0  0
   -4.5860    8.3471   -5.8921 C   0  0  0  0  0  0  0  0  0  0  0  0
   -6.6898    7.9613   -4.5841 C   0  0  0  0  0  0  0  0  0  0  0  0
   -7.3628    7.5582   -3.4500 C   0  0  0  0  0  0  0  0  0  0  0  0
   -8.3849    7.4891   -0.7398 C   0  0  0  0  0  0  0  0  0  0  0  0
   -8.2617    8.8747   -0.7882 C   0  0  0  0  0  0  0  0  0  0  0  0
   -9.2853    9.6756   -0.3235 C   0  0  0  0  0  0  0  0  0  0  0  0
  -10.4487    9.1235    0.1997 C   0  0  0  0  0  0  0  0  0  0  0  0
  -11.5295   10.0019    0.7479 C   0  0  0  0  0  0  0  0  0  0  0  0
  -10.5691    7.7392    0.2262 C   0  0  0  0  0  0  0  0  0  0  0  0
   -9.5568    6.9263   -0.2422 C   0  0  0  0  0  0  0  0  0  0  0  0
   -6.5826    4.3340   -1.1605 C   0  0  0  0  0  0  0  0  0  0  0  0
   -6.3591    3.8643   -2.8168 S   0  0  0  0  0  0  0  0  0  0  0  0
   -7.2625    6.3507    1.8303 C   0  0  0  0  0  0  0  0  0  0  0  0
   -7.2783    6.2416    3.1859 C   0  0  0  0  0  0  0  0  0  0  0  0
   -7.0006    4.8087    4.1536 S   0  0  0  0  0  0  0  0  0  0  0  0
   -7.2522    5.7258    5.6720 C   0  0  0  0  0  0  0  0  0  0  0  0
   -7.1893    5.2410    6.7658 O   0  0  0  0  0  0  0  0  0  0  0  0
   -7.5302    7.0248    5.3686 N   0  0  0  0  0  0  0  0  0  0  0  0
   -7.7471    7.9998    6.4235 C   0  0  0  0  0  0  0  0  0  0  0  0
   -6.4252    8.5050    6.9870 C   0  0  0  0  0  0  0  0  0  0  0  0
   -7.5614    7.3924    4.0303 C   0  0  0  0  0  0  0  0  0  0  0  0
   -7.8099    8.5184    3.6544 O   0  0  0  0  0  0  0  0  0  0  0  0
    9.3027   -3.4013    5.4716 H   0  0  0  0  0  0  0  0  0  0  0  0
    5.1296    0.6625    7.8205 H   0  0  0  0  0  0  0  0  0  0  0  0
    5.0766    0.7105   10.2830 H   0  0  0  0  0  0  0  0  0  0  0  0
    7.9098   -6.0038    5.0913 H   0  0  0  0  0  0  0  0  0  0  0  0
    8.8921   -6.7380    7.2245 H   0  0  0  0  0  0  0  0  0  0  0  0
   12.5209   -6.7888    7.9466 H   0  0  0  0  0  0  0  0  0  0  0  0
   10.9325   -7.3744    8.4739 H   0  0  0  0  0  0  0  0  0  0  0  0
   11.3757   -5.6852    8.7094 H   0  0  0  0  0  0  0  0  0  0  0  0
   12.7496   -5.5222    5.8693 H   0  0  0  0  0  0  0  0  0  0  0  0
   11.7703   -4.7808    3.7363 H   0  0  0  0  0  0  0  0  0  0  0  0
   10.2728   -7.2042    2.5471 H   0  0  0  0  0  0  0  0  0  0  0  0
   11.4001   -7.8427    0.4601 H   0  0  0  0  0  0  0  0  0  0  0  0
   12.8832   -6.3598   -1.5614 H   0  0  0  0  0  0  0  0  0  0  0  0
   11.6118   -5.6442   -2.5530 H   0  0  0  0  0  0  0  0  0  0  0  0
   11.5205   -7.3472   -2.0701 H   0  0  0  0  0  0  0  0  0  0  0  0
   10.5803   -3.9847   -1.1678 H   0  0  0  0  0  0  0  0  0  0  0  0
    9.4873   -3.3287    0.9252 H   0  0  0  0  0  0  0  0  0  0  0  0
    3.2600   -3.9144    3.4827 H   0  0  0  0  0  0  0  0  0  0  0  0
    2.5720   -2.9633    5.6457 H   0  0  0  0  0  0  0  0  0  0  0  0
    1.1675   -0.1927    6.3180 H   0  0  0  0  0  0  0  0  0  0  0  0
    2.7206    0.6301    6.4329 H   0  0  0  0  0  0  0  0  0  0  0  0
    2.5195   -0.9937    7.1190 H   0  0  0  0  0  0  0  0  0  0  0  0
    2.8332    0.9651    4.0061 H   0  0  0  0  0  0  0  0  0  0  0  0
    3.5336    0.0205    1.8472 H   0  0  0  0  0  0  0  0  0  0  0  0
    5.2038   -1.9674   -0.9753 H   0  0  0  0  0  0  0  0  0  0  0  0
    4.1624   -1.1835   -3.0595 H   0  0  0  0  0  0  0  0  0  0  0  0
    1.8864   -1.2193   -4.3573 H   0  0  0  0  0  0  0  0  0  0  0  0
    1.8923    0.4323   -3.7509 H   0  0  0  0  0  0  0  0  0  0  0  0
    0.4889   -0.6015   -3.4679 H   0  0  0  0  0  0  0  0  0  0  0  0
    0.3833   -0.9675   -1.1062 H   0  0  0  0  0  0  0  0  0  0  0  0
    1.3964   -1.8303    0.9552 H   0  0  0  0  0  0  0  0  0  0  0  0
    6.0769   -2.6460   -3.1994 H   0  0  0  0  0  0  0  0  0  0  0  0
    8.3688   -2.4213   -4.0784 H   0  0  0  0  0  0  0  0  0  0  0  0
    9.8902   -4.3685   -4.0182 H   0  0  0  0  0  0  0  0  0  0  0  0
    9.1268   -6.4923   -3.0735 H   0  0  0  0  0  0  0  0  0  0  0  0
    5.8866   -6.9272   -1.3115 H   0  0  0  0  0  0  0  0  0  0  0  0
    6.2541   -7.6768   -2.8586 H   0  0  0  0  0  0  0  0  0  0  0  0
    8.4791   -8.3417   -2.0792 H   0  0  0  0  0  0  0  0  0  0  0  0
    8.3091   -7.3591   -0.6197 H   0  0  0  0  0  0  0  0  0  0  0  0
    7.3108   -8.7981   -0.8489 H   0  0  0  0  0  0  0  0  0  0  0  0
   -2.3088    4.3068   -5.6911 H   0  0  0  0  0  0  0  0  0  0  0  0
   -2.5022    2.5806   -5.3909 H   0  0  0  0  0  0  0  0  0  0  0  0
   -1.7388    3.8433   -3.3603 H   0  0  0  0  0  0  0  0  0  0  0  0
   -3.2787    3.0282   -3.0921 H   0  0  0  0  0  0  0  0  0  0  0  0
   -3.2508    4.7636   -3.3902 H   0  0  0  0  0  0  0  0  0  0  0  0
   -4.0122    5.5192   -6.6254 H   0  0  0  0  0  0  0  0  0  0  0  0
   -6.3452    5.7837   -7.3477 H   0  0  0  0  0  0  0  0  0  0  0  0
   -8.0187    4.0621   -6.7633 H   0  0  0  0  0  0  0  0  0  0  0  0
   -7.3275    2.0884   -5.4561 H   0  0  0  0  0  0  0  0  0  0  0  0
   -1.1771   -3.3236   -1.7049 H   0  0  0  0  0  0  0  0  0  0  0  0
    0.4209   -3.6344   -1.0355 H   0  0  0  0  0  0  0  0  0  0  0  0
    0.0770   -6.0431   -1.0358 H   0  0  0  0  0  0  0  0  0  0  0  0
   -1.4920   -5.8931   -1.8207 H   0  0  0  0  0  0  0  0  0  0  0  0
   -1.2608   -5.2754   -0.1801 H   0  0  0  0  0  0  0  0  0  0  0  0
   -3.4629   -3.0011   -1.9883 H   0  0  0  0  0  0  0  0  0  0  0  0
   -2.6819   -4.4134   -2.7581 H   0  0  0  0  0  0  0  0  0  0  0  0
   -4.4182   -4.3678   -4.5529 H   0  0  0  0  0  0  0  0  0  0  0  0
   -5.2389   -3.0500   -3.7059 H   0  0  0  0  0  0  0  0  0  0  0  0
   -5.0978   -4.6306   -2.9415 H   0  0  0  0  0  0  0  0  0  0  0  0
   -3.4181    1.9145   -0.9052 H   0  0  0  0  0  0  0  0  0  0  0  0
   -1.3395    1.7502    0.3766 H   0  0  0  0  0  0  0  0  0  0  0  0
   -0.0609    0.5713    2.1056 H   0  0  0  0  0  0  0  0  0  0  0  0
   -0.8889   -0.4080    3.3244 H   0  0  0  0  0  0  0  0  0  0  0  0
   -0.8531    1.3457    3.4751 H   0  0  0  0  0  0  0  0  0  0  0  0
   -3.3882   -0.4140    3.4254 H   0  0  0  0  0  0  0  0  0  0  0  0
   -5.4751   -0.2435    2.1546 H   0  0  0  0  0  0  0  0  0  0  0  0
   -8.3521    1.2466   -0.6275 H   0  0  0  0  0  0  0  0  0  0  0  0
  -10.0808   -0.4818   -0.6205 H   0  0  0  0  0  0  0  0  0  0  0  0
   -9.3995   -4.1171   -0.4535 H   0  0  0  0  0  0  0  0  0  0  0  0
  -10.2139   -3.2226    0.8281 H   0  0  0  0  0  0  0  0  0  0  0  0
  -10.6161   -2.8950   -0.8552 H   0  0  0  0  0  0  0  0  0  0  0  0
   -7.1257   -3.4520    0.1664 H   0  0  0  0  0  0  0  0  0  0  0  0
   -5.3833   -1.7306    0.1364 H   0  0  0  0  0  0  0  0  0  0  0  0
   -4.7303    6.4378   -1.6496 H   0  0  0  0  0  0  0  0  0  0  0  0
   -3.5470    7.1631   -3.6762 H   0  0  0  0  0  0  0  0  0  0  0  0
   -3.5551    8.0030   -5.9064 H   0  0  0  0  0  0  0  0  0  0  0  0
   -4.5801    9.4376   -5.8871 H   0  0  0  0  0  0  0  0  0  0  0  0
   -5.0815    8.0240   -6.8053 H   0  0  0  0  0  0  0  0  0  0  0  0
   -7.2452    8.3891   -5.4061 H   0  0  0  0  0  0  0  0  0  0  0  0
   -8.4347    7.6700   -3.3816 H   0  0  0  0  0  0  0  0  0  0  0  0
   -7.3562    9.3149   -1.1793 H   0  0  0  0  0  0  0  0  0  0  0  0
   -9.1729   10.7493   -0.3540 H   0  0  0  0  0  0  0  0  0  0  0  0
  -11.6155   10.9195    0.1701 H   0  0  0  0  0  0  0  0  0  0  0  0
  -11.2913   10.2742    1.7765 H   0  0  0  0  0  0  0  0  0  0  0  0
  -12.4884    9.4894    0.7461 H   0  0  0  0  0  0  0  0  0  0  0  0
  -11.4705    7.2897    0.6168 H   0  0  0  0  0  0  0  0  0  0  0  0
   -9.6630    5.8517   -0.2162 H   0  0  0  0  0  0  0  0  0  0  0  0
   -7.4573    7.3506    1.4617 H   0  0  0  0  0  0  0  0  0  0  0  0
   -8.3372    7.5203    7.2081 H   0  0  0  0  0  0  0  0  0  0  0  0
   -8.3128    8.8188    5.9730 H   0  0  0  0  0  0  0  0  0  0  0  0
   -5.8615    7.6801    7.4163 H   0  0  0  0  0  0  0  0  0  0  0  0
   -6.6157    9.2404    7.7635 H   0  0  0  0  0  0  0  0  0  0  0  0
   -5.8342    8.9697    6.2010 H   0  0  0  0  0  0  0  0  0  0  0  0
  1  2  2  0  0  0  0
  2  3  1  0  0  0  0
  3  4  2  0  0  0  0
  3  5  1  0  0  0  0
  5  6  2  0  0  0  0
  6  7  1  0  0  0  0
  7  8  2  0  0  0  0
  8  9  1  0  0  0  0
  9 10  1  0  0  0  0
  9 11  2  0  0  0  0
 11 12  1  0  0  0  0
  6 13  1  0  0  0  0
 13 14  2  0  0  0  0
 14 15  1  0  0  0  0
 15 16  3  0  0  0  0
 14 17  1  0  0  0  0
 17 18  3  0  0  0  0
  1 19  1  0  0  0  0
 19 20  2  0  0  0  0
 20 21  1  0  0  0  0
 21 22  1  0  0  0  0
 22 23  2  0  0  0  0
 23 24  1  0  0  0  0
 24 25  2  0  0  0  0
 25 26  1  0  0  0  0
 25 27  1  0  0  0  0
 27 28  2  0  0  0  0
 21 29  1  0  0  0  0
 29 30  2  0  0  0  0
 30 31  1  0  0  0  0
 31 32  2  0  0  0  0
 32 33  1  0  0  0  0
 32 34  1  0  0  0  0
 34 35  2  0  0  0  0
 20 36  1  0  0  0  0
 36 37  1  0  0  0  0
 37 38  1  0  0  0  0
 38 39  2  0  0  0  0
 39 40  1  0  0  0  0
 40 41  1  0  0  0  0
 41 42  2  0  0  0  0
 42 43  1  0  0  0  0
 43 44  2  0  0  0  0
 44 45  1  0  0  0  0
 44 46  1  0  0  0  0
 46 47  2  0  0  0  0
 40 48  1  0  0  0  0
 48 49  2  0  0  0  0
 49 50  1  0  0  0  0
 50 51  2  0  0  0  0
 51 52  1  0  0  0  0
 51 53  1  0  0  0  0
 53 54  2  0  0  0  0
 39 55  1  0  0  0  0
 55 56  1  0  0  0  0
 38 57  1  0  0  0  0
 57 58  2  0  0  0  0
 58 59  1  0  0  0  0
 59 60  2  0  0  0  0
 60 61  1  0  0  0  0
 61 62  2  0  0  0  0
 62 63  1  0  0  0  0
 63 64  2  0  0  0  0
 64 65  1  0  0  0  0
 65 66  1  0  0  0  0
 58 67  1  0  0  0  0
 67 68  1  0  0  0  0
 68 69  1  0  0  0  0
 69 70  1  0  0  0  0
 70 71  1  0  0  0  0
 71 72  1  0  0  0  0
 72 73  2  0  0  0  0
 73 74  1  0  0  0  0
 74 75  1  0  0  0  0
 72 76  1  0  0  0  0
 76 77  1  0  0  0  0
 77 78  1  0  0  0  0
 78 79  1  0  0  0  0
 79 80  1  0  0  0  0
 80 81  1  0  0  0  0
 81 82  2  0  0  0  0
 82 83  1  0  0  0  0
 83 84  1  0  0  0  0
 82 85  1  0  0  0  0
 85 86  2  0  0  0  0
 86 87  1  0  0  0  0
 87 88  2  0  0  0  0
 80 89  2  0  0  0  0
 89 90  1  0  0  0  0
 90 91  1  0  0  0  0
 91 92  1  0  0  0  0
 92 93  1  0  0  0  0
 93 94  1  0  0  0  0
 94 95  1  0  0  0  0
 95 96  1  0  0  0  0
 96 97  1  0  0  0  0
 97 98  1  0  0  0  0
 98 99  1  0  0  0  0
 96100  1  0  0  0  0
100101  1  0  0  0  0
 93102  1  0  0  0  0
102103  1  0  0  0  0
 89104  1  0  0  0  0
104105  2  0  0  0  0
105106  1  0  0  0  0
106107  1  0  0  0  0
107108  2  0  0  0  0
108109  1  0  0  0  0
109110  2  0  0  0  0
110111  1  0  0  0  0
110112  1  0  0  0  0
112113  2  0  0  0  0
106114  1  0  0  0  0
114115  2  0  0  0  0
115116  1  0  0  0  0
116117  2  0  0  0  0
117118  1  0  0  0  0
117119  1  0  0  0  0
119120  2  0  0  0  0
105121  1  0  0  0  0
121122  1  0  0  0  0
122123  1  0  0  0  0
123124  2  0  0  0  0
124125  1  0  0  0  0
125126  1  0  0  0  0
126127  2  0  0  0  0
127128  1  0  0  0  0
128129  2  0  0  0  0
129130  1  0  0  0  0
129131  1  0  0  0  0
131132  2  0  0  0  0
125133  1  0  0  0  0
133134  2  0  0  0  0
134135  1  0  0  0  0
135136  2  0  0  0  0
136137  1  0  0  0  0
136138  1  0  0  0  0
138139  2  0  0  0  0
124140  1  0  0  0  0
140141  1  0  0  0  0
123142  1  0  0  0  0
142143  2  0  0  0  0
143144  1  0  0  0  0
144145  1  0  0  0  0
145146  2  0  0  0  0
145147  1  0  0  0  0
147148  1  0  0  0  0
148149  1  0  0  0  0
147150  1  0  0  0  0
150151  2  0  0  0  0
 13  2  1  0  0  0  0
 56 19  1  0  0  0  0
 99 57  1  0  0  0  0
141104  1  0  0  0  0
150143  1  0  0  0  0
 11  5  1  0  0  0  0
 28 22  1  0  0  0  0
 35 29  1  0  0  0  0
 55 36  2  0  0  0  0
 64 59  1  0  0  0  0
 98 67  2  0  0  0  0
113107  1  0  0  0  0
120114  1  0  0  0  0
140121  2  0  0  0  0
 47 41  1  0  0  0  0
 54 48  1  0  0  0  0
 97 69  2  0  0  0  0
132126  1  0  0  0  0
139133  1  0  0  0  0
 95 70  2  0  0  0  0
 75 71  2  0  0  0  0
 94 76  2  0  0  0  0
 92 77  2  0  0  0  0
 91 79  2  0  0  0  0
 88 81  1  0  0  0  0
  1152  1  0  0  0  0
  7153  1  0  0  0  0
  8154  1  0  0  0  0
 23155  1  0  0  0  0
 24156  1  0  0  0  0
 26157  1  0  0  0  0
 26158  1  0  0  0  0
 26159  1  0  0  0  0
 27160  1  0  0  0  0
 28161  1  0  0  0  0
 30162  1  0  0  0  0
 31163  1  0  0  0  0
 33164  1  0  0  0  0
 33165  1  0  0  0  0
 33166  1  0  0  0  0
 34167  1  0  0  0  0
 35168  1  0  0  0  0
 42169  1  0  0  0  0
 43170  1  0  0  0  0
 45171  1  0  0  0  0
 45172  1  0  0  0  0
 45173  1  0  0  0  0
 46174  1  0  0  0  0
 47175  1  0  0  0  0
 49176  1  0  0  0  0
 50177  1  0  0  0  0
 52178  1  0  0  0  0
 52179  1  0  0  0  0
 52180  1  0  0  0  0
 53181  1  0  0  0  0
 54182  1  0  0  0  0
 60183  1  0  0  0  0
 61184  1  0  0  0  0
 62185  1  0  0  0  0
 63186  1  0  0  0  0
 65187  1  0  0  0  0
 65188  1  0  0  0  0
 66189  1  0  0  0  0
 66190  1  0  0  0  0
 66191  1  0  0  0  0
 83192  1  0  0  0  0
 83193  1  0  0  0  0
 84194  1  0  0  0  0
 84195  1  0  0  0  0
 84196  1  0  0  0  0
 85197  1  0  0  0  0
 86198  1  0  0  0  0
 87199  1  0  0  0  0
 88200  1  0  0  0  0
100201  1  0  0  0  0
100202  1  0  0  0  0
101203  1  0  0  0  0
101204  1  0  0  0  0
101205  1  0  0  0  0
102206  1  0  0  0  0
102207  1  0  0  0  0
103208  1  0  0  0  0
103209  1  0  0  0  0
103210  1  0  0  0  0
108211  1  0  0  0  0
109212  1  0  0  0  0
111213  1  0  0  0  0
111214  1  0  0  0  0
111215  1  0  0  0  0
112216  1  0  0  0  0
113217  1  0  0  0  0
115218  1  0  0  0  0
116219  1  0  0  0  0
118220  1  0  0  0  0
118221  1  0  0  0  0
118222  1  0  0  0  0
119223  1  0  0  0  0
120224  1  0  0  0  0
127225  1  0  0  0  0
128226  1  0  0  0  0
130227  1  0  0  0  0
130228  1  0  0  0  0
130229  1  0  0  0  0
131230  1  0  0  0  0
132231  1  0  0  0  0
134232  1  0  0  0  0
135233  1  0  0  0  0
137234  1  0  0  0  0
137235  1  0  0  0  0
137236  1  0  0  0  0
138237  1  0  0  0  0
139238  1  0  0  0  0
142239  1  0  0  0  0
148240  1  0  0  0  0
148241  1  0  0  0  0
149242  1  0  0  0  0
149243  1  0  0  0  0
149244  1  0  0  0  0
M  END
