219

C         -7.13330      -10.15690        1.21050
C         -8.39140      -10.48910        0.74200
C         -9.57280       -9.63210        0.77120
O         -9.65030       -8.46730        1.11790
C        -10.69840      -10.48180        0.31740
C        -10.21830      -11.77200        0.02930
C        -11.09160      -12.75090       -0.41410
C        -12.43340      -12.42760       -0.56280
C        -12.90010      -11.15390       -0.28130
Br       -14.73810      -10.77350       -0.51060
C        -12.03340      -10.15110        0.16660
Cl       -12.60140       -8.57290        0.50640
C         -8.77270      -11.79080        0.26210
C         -7.95190      -12.86820        0.01930
C         -8.41010      -14.13770       -0.38290
N         -8.71550      -15.20110       -0.69250
C         -6.54690      -12.85930        0.09900
N         -5.39910      -12.93310        0.10220
C         -6.63030       -8.94480        1.66220
C         -5.29860       -8.78200        2.14100
N         -4.42440       -9.79230        2.42040
C         -4.82970      -11.03470        2.94530
C         -4.16220      -12.19710        2.56770
C         -4.55630      -13.41570        3.08260
C         -5.62050      -13.51080        3.97180
C         -6.05630      -14.84710        4.48720
C         -6.26550      -12.34130        4.35820
C         -5.87430      -11.11350        3.86290
C         -3.04270       -9.54910        2.27540
C         -2.14750       -9.93910        3.26560
C         -0.79760       -9.69460        3.10920
C         -0.30960       -9.05940        1.97350
C          1.15080       -8.76750        1.82080
C         -1.21260       -8.68180        0.98600
C         -2.56370       -8.92410        1.12740
C         -4.99080       -7.41990        2.29510
S         -3.57920       -6.54550        2.80340
C         -4.45110       -5.02870        2.64700
C         -5.73490       -5.19520        2.16110
N         -6.59220       -4.16860        1.80340
C         -6.12800       -3.05610        1.09740
C         -6.80780       -1.84070        1.17340
C         -6.32590       -0.72650        0.51880
C         -5.15960       -0.78020       -0.23660
C         -4.63360        0.45100       -0.91040
C         -4.51110       -2.00180       -0.34590
C         -4.98780       -3.12680        0.29960
C         -7.96580       -4.37360        2.03430
C         -8.37950       -4.91440        3.24820
C         -9.71710       -5.16990        3.47250
C        -10.67200       -4.89200        2.50270
C        -12.11490       -5.21610        2.73450
C        -10.24980       -4.33930        1.29950
C         -8.91460       -4.08360        1.05940
C         -6.04660       -6.56690        1.99810
S         -7.48400       -7.40020        1.54410
C         -3.84600       -3.77480        3.00270
C         -4.32800       -2.86470        3.91960
C         -5.38780       -3.23430        4.87140
C         -5.22590       -4.45610        5.52680
C         -6.14850       -4.90350        6.45030
C         -7.25170       -4.11980        6.73980
C         -7.41570       -2.90540        6.10140
C         -6.50390       -2.44120        5.15990
C         -6.72710       -1.12100        4.47690
C         -8.19890       -0.77610        4.25520
C         -3.55120       -1.68300        3.91130
S         -3.61670       -0.18960        4.81810
C         -2.24390        0.39120        3.93770
C         -1.47520        1.55950        3.80320
C         -1.62350        2.83610        4.38650
C         -0.78270        3.90660        3.93340
N         -1.07080        5.05900        4.51780
S         -2.29060        4.81640        5.55480
N         -2.50200        3.23220        5.29440
C          0.23410        3.62570        2.99570
C          1.22860        4.44740        2.44030
S          1.71380        6.11040        2.44460
C          3.02180        5.70200        1.35870
C          4.01840        6.47630        0.73700
C          4.19570        7.92430        0.93760
C          3.31930        8.85080        0.36980
C          2.18260        8.42010       -0.51310
C          2.65940        8.20600       -1.95080
C          3.55370       10.20170        0.58910
C          4.61860       10.63180        1.35890
C          5.47340        9.70670        1.93300
C          5.26050        8.35860        1.72150
C          4.84170        5.70050       -0.05370
S          4.38740        4.00040       -0.03190
C          3.07450        4.34360        1.03950
C          2.03980        3.62730        1.65420
N          1.57460        2.33950        1.67900
C          0.44720        2.31380        2.48660
C         -0.48660        1.29410        2.81390
N         -0.67520        0.00100        2.35030
C         -1.74350       -0.53090        3.01990
C         -2.48940       -1.71760        3.00640
S         -2.41380       -3.21800        2.16080
C         -0.21390       -0.63150        1.13580
C         -0.63840        0.15590       -0.10110
C          2.44710        1.26380        1.26390
C          2.91590        0.43030        2.45380
C          5.91450        6.10520       -0.89590
C          6.76120        5.29720       -1.60090
C          7.68060        5.99730       -2.41310
C          8.65190        5.39740       -3.24520
O          8.68410        4.04420       -3.19030
C          9.69300        3.32140       -3.87260
C          9.52080        1.85500       -3.50900
C          9.42220        6.25620       -4.01020
C          9.24800        7.66610       -3.93290
C          8.30300        8.26780       -3.06960
O          8.28600        9.61770       -3.09770
C          7.54780       10.35100       -2.13600
C          7.91020       11.81720       -2.31000
C          7.52100        7.40360       -2.32320
S          6.23340        7.79930       -1.19930
C         10.11870        8.37460       -4.77530
C         10.96940        7.58050       -5.50430
S         10.67910        5.88130       -5.17130
C         11.91960        7.93690       -6.48460
C         12.45920        9.16020       -6.75740
C         13.06780        9.39250       -8.09470
O         13.38260        8.55370       -8.90590
C         13.15890       10.86500       -8.22400
C         13.53370       11.60850       -9.32430
C         13.51530       12.99480       -9.19870
O         13.91160       13.84320      -10.21430
C         13.57250       13.60670      -11.50300
O         12.86190       12.71190      -11.86070
C         14.20700       14.63840      -12.39230
C         13.14060       13.60010       -8.00080
C         12.77490       12.84580       -6.89860
C         12.78020       11.46370       -7.00960
C         12.47910       10.41330       -6.03830
C         12.46900       10.58010       -4.67650
C         12.46570        9.51120       -3.75810
N         12.50980        8.67740       -2.97030
C         12.52900       11.83130       -4.03320
N         12.53820       12.82320       -3.45440
H         -6.41710      -10.96820        1.22670
H        -10.75870      -13.74920       -0.64340
H        -13.13020      -13.17690       -0.90580
H         -3.34910      -12.14160        1.86140
H         -4.04070      -14.31150        2.77170
H         -6.44270      -15.45510        3.66950
H         -6.83490      -14.74270        5.23850
H         -5.21450      -15.38050        4.92580
H         -7.08250      -12.38920        5.06360
H         -6.38100      -10.21280        4.17740
H         -2.51610      -10.42800        4.15510
H         -0.11200       -9.99770        3.88680
H          1.74780       -9.42920        2.44300
H          1.46160       -8.87940        0.78450
H          1.35580       -7.74000        2.12310
H         -0.85130       -8.19730        0.09080
H         -3.25530       -8.64080        0.34740
H         -7.71980       -1.77960        1.74400
H         -6.86220        0.20800        0.60130
H         -3.86990        0.19950       -1.64300
H         -5.43720        0.98460       -1.41460
H         -4.19980        1.12910       -0.17360
H         -3.61860       -2.08380       -0.95050
H         -4.47610       -4.06970        0.17400
H         -7.64590       -5.13290        4.01030
H        -10.02290       -5.59490        4.41740
H        -12.37060       -5.13010        3.78830
H        -12.30990       -6.24320        2.42540
H        -12.76260       -4.56090        2.15630
H        -10.97630       -4.12020        0.53030
H         -8.59920       -3.67220        0.11180
H         -4.34880       -5.05170        5.31890
H         -6.00250       -5.85280        6.94400
H         -7.98170       -4.45210        7.46300
H         -8.27770       -2.30450        6.34260
H         -6.21040       -1.12930        3.51530
H         -6.27080       -0.33260        5.08330
H         -8.27880        0.05750        3.56110
H         -8.68180       -0.47950        5.18280
H         -8.73860       -1.62790        3.84440
H          1.74110        7.49530       -0.13970
H          1.40910        9.19030       -0.50380
H          3.39540        7.40700       -1.99510
H          3.11820        9.11380       -2.33640
H          1.82180        7.93970       -2.59130
H          2.88510       10.92720        0.14760
H          4.77950       11.68830        1.51470
H          6.30240       10.03340        2.54250
H          5.92220        7.62640        2.16190
H         -0.67740       -1.62080        1.10720
H          0.86490       -0.78500        1.16710
H         -1.72350        0.19920       -0.15200
H         -0.25790        1.17420       -0.06990
H         -0.26660       -0.33190       -0.99840
H          1.96600        0.64600        0.50470
H          3.31290        1.73370        0.79070
H          2.07350        0.00220        2.99190
H          3.47670        1.05480        3.14550
H          3.56180       -0.37400        2.11200
H          6.73280        4.22360       -1.55460
H         10.68430        3.67470       -3.56450
H          9.59020        3.45690       -4.95640
H          8.53310        1.51240       -3.80510
H         10.27320        1.26070       -4.01840
H          9.62710        1.72300       -2.43570
H          7.80540       10.01340       -1.12510
H          6.47130       10.20360       -2.29050
H          8.97690       11.95880       -2.15770
H          7.36360       12.41570       -1.58790
H          7.65590       12.14740       -3.31360
H         10.06470        9.44370       -4.86760
H         12.20700        7.14960       -7.17490
H         13.82290       11.12110      -10.24140
H         14.14970       15.61940      -11.92940
H         13.71310       14.63940      -13.35900
H         15.25700       14.38480      -12.52710
H         13.14150       14.67760       -7.94750
H         12.48020       13.33860       -5.98620
