246

C        -11.05330        5.18630        5.04370
C        -11.55620        6.43550        5.35770
C        -10.87600        7.71210        5.16070
O         -9.74120        7.90820        4.76510
C        -11.86470        8.75600        5.51440
C        -13.07200        8.14160        5.89260
C        -14.15820        8.92010        6.25530
C        -14.02220       10.30150        6.23590
C        -12.82740       10.90050        5.87060
Br       -12.70280       12.78700        5.87500
C        -11.71810       10.13190        5.50170
Cl       -10.23480       10.86320        5.05660
C        -12.88900        6.68970        5.83840
C        -13.83090        5.76510        6.22740
C        -13.61380        4.37990        6.34810
N        -13.51000        3.24730        6.51990
C        -15.14750        6.08900        6.60790
N        -16.24030        6.28000        6.90680
C         -9.79520        4.80470        4.59730
C         -9.43750        3.44980        4.34530
N        -10.29010        2.38150        4.33660
C        -11.59330        2.44670        3.81290
C        -11.87840        3.26180        2.71970
C        -13.16240        3.31760        2.21620
C        -14.18510        2.55530        2.76940
C        -15.58360        2.62900        2.23990
C        -13.88300        1.72380        3.84140
C        -12.60760        1.66920        4.36680
C         -9.79610        1.13710        4.78080
C        -10.05120       -0.02830        4.06780
C         -9.55460       -1.23600        4.51970
C         -8.79410       -1.31130        5.67930
C         -8.24890       -2.61570        6.17140
C         -8.54860       -0.13900        6.38770
C         -9.04440        1.07170        5.95220
C         -8.05320        3.33140        4.14080
S         -6.99600        2.00070        3.78830
C         -5.62040        3.09140        3.77340
C         -5.98120        4.41500        3.93570
N         -5.10980        5.48510        3.85120
C         -4.09800        5.50600        2.88490
C         -2.90570        6.18630        3.12960
C         -1.88920        6.16990        2.19780
C         -2.02660        5.49230        0.99070
C         -0.89840        5.46150        0.00460
C         -3.23220        4.85610        0.73330
C         -4.25650        4.86100        1.66100
C         -5.37290        6.61020        4.65270
C         -5.75650        6.43690        5.97940
C         -6.07380        7.53280        6.75730
C         -6.01270        8.82030        6.24050
C         -6.40950       10.00320        7.06840
C         -5.60640        8.98360        4.92110
C         -5.29150        7.89730        4.13050
C         -7.37250        4.54120        4.17090
S         -8.40600        5.89050        4.45170
C         -4.26910        2.59350        3.73380
C         -3.37830        2.67170        4.77970
C         -3.78970        3.12720        6.11740
C         -4.90030        2.50460        6.68520
C         -5.35970        2.86970        7.93460
C         -4.69730        3.86030        8.63860
C         -3.59000        4.47490        8.08460
C         -3.12080        4.13330        6.82150
C         -1.93010        4.83470        6.22870
C         -1.82530        6.30930        6.61350
C         -2.12230        2.13620        4.41840
S         -0.64290        1.85750        5.30530
C          0.04670        1.13790        3.88920
C          1.22670        0.49190        3.48600
C          2.35280        0.09190        4.23620
C          3.35170       -0.71830        3.60280
N          4.31700       -1.07620        4.43500
S          3.99840       -0.44130        5.89070
N          2.61420        0.31220        5.51520
C          3.23650       -0.98330        2.22170
C          4.12420       -1.61820        1.33810
S          5.62750       -2.47580        1.37790
C          5.56200       -2.62020       -0.36080
C          6.42650       -3.22900       -1.29760
C          7.66510       -3.91520       -0.90440
C          8.91690       -3.63980       -1.46420
C          9.14770       -2.54250       -2.46890
C          9.81870       -3.03740       -3.74960
C         10.01650       -4.36010       -1.00840
C          9.90010       -5.33020       -0.03260
C          8.66830       -5.56250        0.55360
C          7.56910       -4.84490        0.13040
C          5.93670       -3.09620       -2.57810
S          4.45310       -2.15290       -2.64450
C          4.43840       -2.01770       -0.92360
C          3.60110       -1.46240        0.05510
N          2.41240       -0.78740        0.11580
C          2.14780       -0.49590        1.44300
C          1.06920        0.15120        2.11140
N         -0.20010        0.54150        1.72170
C         -0.81340        1.13020        2.79310
C         -2.06860        1.67410        3.10370
S         -3.58640        1.85370        2.30110
C         -0.97200        0.30240        0.52610
C         -1.14900        1.57790       -0.29810
C          1.78400       -0.36000       -1.11090
C          1.05190       -1.50860       -1.80550
C          6.40710       -3.74240       -3.76900
C          6.63680       -5.10000       -3.91970
N          6.34580       -6.06860       -2.97510
C          7.17260       -7.20300       -2.91400
C          6.62760       -8.47760       -2.79420
C          7.45370       -9.58250       -2.77730
C          8.83300       -9.45110       -2.88460
C          9.71690      -10.65970       -2.91850
C          9.36790       -8.17400       -2.99200
C          8.55350       -7.05980       -3.00390
C          5.19050       -5.97200       -2.19300
C          5.16190       -6.49850       -0.90300
C          4.06380       -6.29550       -0.09150
C          2.95640       -5.58520       -0.53980
C          1.81070       -5.28200        0.37670
C          2.95370       -5.14660       -1.85690
C          4.04750       -5.33830       -2.67690
C          7.12750       -5.39270       -5.21650
S          7.56080       -6.86230       -6.01020
C          7.86810       -5.96950       -7.50360
C          7.55850       -4.59240       -7.37420
N          7.58580       -3.67030       -8.38700
C          7.17250       -3.96910       -9.69780
C          6.14410       -4.87860       -9.93260
C          5.75770       -5.16570      -11.22640
C          6.36500       -4.54600      -12.31240
C          5.96600       -4.87390      -13.71800
C          7.36850       -3.61670      -12.06530
C          7.77670       -3.33070      -10.77810
C          7.91700       -2.33760       -8.07060
C          9.03570       -2.07290       -7.28590
C          9.36900       -0.76990       -6.97710
C          8.60490        0.29520       -7.44060
C          8.96810        1.70250       -7.08040
C          7.49480        0.01910       -8.22940
C          7.14890       -1.28000       -8.54500
C          7.18600       -4.28590       -6.05430
S          6.66550       -2.83720       -5.25290
C          8.44500       -6.51310       -8.65080
C          8.76290       -7.81320       -8.96380
C          8.47270       -9.01530       -8.16120
O          8.00180       -9.06670       -7.03970
C          8.86350      -10.15330       -9.00830
C          8.87200      -11.55650       -8.94260
C          9.37580      -12.09530      -10.08950
S          9.84860      -10.91910      -11.26400
C          9.36140       -9.66380      -10.20500
C          9.35090       -8.22360      -10.22210
C          9.83530       -7.45340      -11.25390
C          9.94460       -6.05350      -11.25820
N         10.09650       -4.91510      -11.31840
C         10.32100       -8.05480      -12.43150
N         10.70870       -8.53470      -13.40000
H        -11.74540        4.36350        5.16970
H        -15.09880        8.48430        6.54760
H        -14.85780       10.92580        6.51250
H        -11.09240        3.85250        2.27230
H        -13.37010        3.95890        1.37170
H        -15.98130        1.63060        2.06760
H        -16.23080        3.12230        2.96520
H        -15.62110        3.18840        1.30870
H        -14.66240        1.12400        4.28590
H        -12.39480        1.03540        5.21280
H        -10.63250        0.01840        3.15900
H         -9.75680       -2.13390        3.95440
H         -8.64630       -2.84280        7.16000
H         -8.50990       -3.42750        5.49780
H         -7.16410       -2.56560        6.25440
H         -7.96560       -0.18030        7.29630
H         -8.85770        1.97460        6.51560
H         -2.78700        6.73070        4.05240
H         -0.96600        6.68910        2.41230
H         -0.05070        4.91480        0.41830
H         -1.20330        4.98050       -0.92160
H         -0.56120        6.47200       -0.22140
H         -3.38060        4.34700       -0.20870
H         -5.18800        4.36410        1.43190
H         -5.80610        5.44070        6.39420
H         -6.37650        7.38140        7.78340
H         -6.29070        9.79630        8.12940
H         -7.45820       10.24040        6.88600
H         -5.81820       10.87850        6.80840
H         -5.55300        9.97720        4.50030
H         -4.99670        8.03820        3.10090
H         -5.39630        1.71300        6.14230
H         -6.22450        2.38010        8.35780
H         -5.04190        4.15360        9.61930
H         -3.08350        5.24180        8.64850
H         -1.97790        4.75050        5.14080
H         -1.02150        4.31750        6.55280
H         -1.07580        6.79800        5.99450
H         -1.52380        6.42930        7.65080
H         -2.78040        6.81320        6.47260
H          9.79420       -1.79020       -2.00560
H          8.20740       -2.05220       -2.71930
H          9.86620       -2.22970       -4.47510
H          9.25710       -3.85980       -4.18610
H         10.83030       -3.38490       -3.55490
H         10.99060       -4.14360       -1.42230
H         10.77050       -5.88350        0.28710
H          8.56630       -6.29120        1.34360
H          6.61000       -5.00440        0.59720
H         -1.96270       -0.04450        0.84150
H         -0.51220       -0.49300       -0.05260
H         -1.68510        1.35080       -1.21550
H         -0.19100        2.02700       -0.55190
H         -1.72160        2.30870        0.26660
H          2.57630       -0.00230       -1.77820
H          1.12290        0.47710       -0.90510
H          0.49390       -1.13020       -2.65760
H          1.77070       -2.24120       -2.16110
H          0.36590       -2.01320       -1.12800
H          5.55590       -8.59520       -2.72830
H          7.01780      -10.56770       -2.69470
H         10.70620      -10.43080       -2.52880
H          9.82970      -11.00030       -3.94840
H          9.28710      -11.47410       -2.33960
H         10.43830       -8.04780       -3.06740
H          8.98250       -6.07160       -3.07610
H          6.01550       -7.04990       -0.53930
H          4.07370       -6.68220        0.91760
H          0.89180       -5.12950       -0.18550
H          2.02020       -4.37080        0.94040
H          1.65860       -6.08800        1.09080
H          2.08160       -4.64380       -2.25090
H          4.01900       -4.99060       -3.69940
H          5.65500       -5.36250       -9.09990
H          4.96320       -5.87890      -11.39320
H          5.80230       -3.96410      -14.29280
H          6.76000       -5.43710      -14.20880
H          5.05800       -5.47130      -13.73820
H          7.85340       -3.12360      -12.89410
H          8.57260       -2.62390      -10.60470
H          9.64350       -2.89430       -6.93550
H         10.24540       -0.57140       -6.37680
H          8.49590        2.41200       -7.75490
H          8.63620        1.92390       -6.06550
H         10.04620        1.84420       -7.11670
H          6.88860        0.83260       -8.60030
H          6.28270       -1.48300       -9.15710
H          8.67450       -5.78140       -9.41590
H          8.52800      -12.13040       -8.10210
H          9.50350      -13.13380      -10.32500
