203

C          0.42250       -1.65180       10.11800
C          1.19170       -2.33120       11.04030
C          1.67800       -1.61870       12.23620
O          1.35400       -0.51770       12.62110
C          2.70210       -2.51920       12.82550
C          2.71450       -3.73470       12.11920
C          3.57090       -4.75300       12.49860
C          4.44300       -4.52620       13.55340
C          4.45420       -3.31390       14.22360
Br         5.70490       -3.04420       15.61650
C          3.56820       -2.28790       13.87880
Cl         3.56860       -0.79380       14.71710
C          1.73320       -3.65330       11.03720
C          1.27920       -4.71620       10.28350
C          0.11780       -4.65540        9.49810
N         -0.84450       -4.66290        8.86870
C          1.88190       -5.98480       10.25760
N          2.36270       -7.02350       10.15160
C          0.27390       -1.85660        8.74740
C          1.03840       -2.58070        7.80200
N          2.27740       -3.12730        8.00490
C          2.77290       -4.06040        7.05390
C          3.96920       -3.80110        6.39180
C          4.45880       -4.70640        5.47360
C          3.77480       -5.88500        5.19330
C          4.30970       -6.84580        4.17910
C          2.58480       -6.13410        5.86240
C          2.08250       -5.23570        6.78500
C          3.22510       -2.59750        8.89840
C          3.25730       -1.24660        9.23700
C          4.19720       -0.77600       10.13090
C          5.14580       -1.62290       10.69600
C          6.14930       -1.09510       11.67130
C          5.14190       -2.95800       10.31210
C          4.19380       -3.44570        9.43490
C          0.39870       -2.57080        6.54290
S          0.73560       -3.31710        5.01700
C         -0.65860       -2.52660        4.29830
C         -1.36480       -1.75120        5.20890
N         -2.52920       -1.05470        4.93760
C         -3.50550       -1.59770        4.09260
C         -4.24300       -0.77620        3.24440
C         -5.17310       -1.32600        2.38330
C         -5.38060       -2.69780        2.32790
C         -6.35950       -3.30090        1.36790
C         -4.65430       -3.50940        3.19340
C         -3.73970       -2.97050        4.07360
C         -2.74320        0.17760        5.57430
C         -1.68900        1.07150        5.74380
C         -1.89680        2.27610        6.38570
C         -3.15320        2.62680        6.86380
C         -3.36600        3.92460        7.58020
C         -4.20170        1.73260        6.68030
C         -4.00590        0.52120        6.04900
C         -0.75160       -1.79320        6.48230
S         -1.11190       -1.05430        7.99330
C         -0.85940       -2.66020        2.89280
C         -0.55110       -3.75090        2.10130
C         -0.21510       -5.08430        2.60590
C          0.84300       -5.80140        2.05630
C          1.11170       -7.08030        2.50530
C          0.32780       -7.65780        3.48890
C         -0.74210       -6.96270        4.03900
C         -1.61400       -7.57950        5.09550
C         -1.18120       -7.15240        6.49870
C         -0.99520       -5.67480        3.59420
C         -0.68130       -3.44170        0.73310
S         -0.44220       -4.37600       -0.72410
C         -0.86310       -2.98180       -1.66220
C         -0.96700       -2.59010       -3.00890
C         -0.84850       -3.30650       -4.22050
C         -1.04980       -2.61340       -5.46410
N         -0.95580       -3.41770       -6.51070
S         -0.63740       -4.91470       -5.98260
N         -0.60560       -4.59570       -4.39570
C         -1.22590       -1.21130       -5.44690
C         -1.19630       -0.25460       -6.47340
S         -1.04900       -0.18880       -8.19700
C         -0.95800        1.55270       -8.09860
C         -0.74900        2.55080       -9.06450
C         -0.47750        2.29570      -10.47920
C         -1.28560        1.43360      -11.21280
C         -1.03650        1.24250      -12.55840
C          0.01570        1.89660      -13.17650
C          0.85540        2.73210      -12.45000
C          2.00730        3.44200      -13.10490
C          1.80220        4.95760      -13.13270
C          0.60270        2.91620      -11.09920
C         -0.70520        3.80950       -8.48550
S         -0.88980        3.75970       -6.74450
C         -1.05220        2.03990       -6.78970
C         -1.19940        1.00440       -5.86080
N         -1.26450        0.86150       -4.50000
C         -1.29270       -0.49090       -4.22140
C         -1.30640       -1.20980       -3.00200
N         -1.47440       -0.79410       -1.69060
C         -1.18650       -1.86630       -0.88550
C         -1.09130       -2.13110        0.48510
S         -1.31890       -1.24720        1.94930
C         -2.36040        0.23840       -1.19770
C         -3.71750       -0.34140       -0.79890
C         -0.95130        1.97830       -3.63550
C         -2.10940        2.97030       -3.53210
C         -0.54400        5.05590       -9.17360
C         -1.15420        5.26370      -10.43750
C         -0.85960        6.42270      -11.23900
N         -1.51130        6.39890      -12.40210
S         -2.43280        5.08250      -12.45460
N         -2.04130        4.46490      -11.02880
C          0.06910        7.40020      -10.81180
C          0.52610        7.26980       -9.48880
C          1.30310        8.20140       -8.75520
C          1.61100        7.77300       -7.50180
C          2.38820        8.45770       -6.46360
O          2.59390        8.00020       -5.36620
O          2.84010        9.64270       -6.89140
C          3.59910       10.41060       -5.95520
C          2.69650       11.16810       -4.99200
S          0.96620        6.20480       -7.13390
C          0.21440        6.12490       -8.70370
C          0.46850        8.42010      -11.72420
C          1.72390        8.93280      -11.86110
C          2.96610        8.30780      -11.31680
O          3.06340        7.33130      -10.60450
C          4.04360        9.08280      -11.92640
S          5.75430        9.04650      -11.88550
C          5.79700       10.38830      -12.99880
Cl         7.29090       11.02510      -13.50980
C          4.55990       10.83270      -13.38000
C          3.54980       10.07450      -12.76180
C          2.10030       10.02840      -12.73890
C          1.27610       10.91080      -13.38370
C          1.78750       11.94060      -14.20140
N          2.18530       12.78330      -14.87060
C         -0.13100       10.92770      -13.29650
N         -1.27420       11.02260      -13.25560
H         -0.09610       -0.78430       10.51580
H          3.58830       -5.69950       11.98390
H          5.13370       -5.29830       13.85620
H          4.50610       -2.88680        6.59880
H          5.38540       -4.49300        4.96120
H          3.82800       -7.81510        4.27110
H          4.12200       -6.46290        3.17620
H          5.38450       -6.97020        4.29450
H          2.03880       -7.04210        5.65910
H          1.15670       -5.44440        7.29670
H          2.55000       -0.56150        8.79550
H          4.19540        0.27110       10.39430
H          6.89380       -0.48950       11.15420
H          5.66560       -0.46110       12.41170
H          6.66310       -1.90590       12.18120
H          5.88070       -3.63330       10.71750
H          4.19340       -4.49200        9.16610
H         -4.07480        0.29030        3.25850
H         -5.74020       -0.67480        1.73370
H         -6.87670       -2.52970        0.80270
H         -7.09850       -3.89740        1.90100
H         -5.84580       -3.95920        0.66750
H         -4.81660       -4.57760        3.18140
H         -3.20630       -3.60520        4.76560
H         -0.71010        0.81970        5.36160
H         -1.06930        2.95930        6.51110
H         -2.69680        4.69290        7.19960
H         -4.39320        4.26460        7.47270
H         -3.16220        3.79860        8.64410
H         -5.18630        1.98460        7.04680
H         -4.82750       -0.16840        5.92380
H          1.45050       -5.35390        1.28420
H          1.92960       -7.63800        2.07360
H          0.53560       -8.66560        3.82020
H         -1.56850       -8.66800        5.02120
H         -2.64970       -7.27150        4.93480
H         -1.84860       -7.57500        7.24580
H         -0.17180       -7.49800        6.70960
H         -1.20390       -6.06960        6.59660
H         -1.83510       -5.12890        3.99680
H         -2.11680        0.94080      -10.73300
H         -1.67080        0.58350      -13.13250
H          0.19390        1.74890      -14.23210
H          2.92670        3.22200      -12.55650
H          2.12680        3.07520      -14.12630
H          0.86430        5.21060      -13.62410
H          2.61460        5.43590      -13.67560
H          1.78450        5.36560      -12.12450
H          1.25720        3.55060      -10.51770
H         -2.51660        0.97720       -1.97550
H         -1.89100        0.71170       -0.32930
H         -4.37510        0.46400       -0.48330
H         -4.17070       -0.85330       -1.64550
H         -3.61780       -1.04550        0.02280
H         -0.65430        1.59760       -2.65810
H         -0.08880        2.50040       -4.06540
H         -2.27820        3.44820       -4.49280
H         -3.03490        2.48260       -3.23360
H         -1.86680        3.73930       -2.80450
H          1.60190        9.16290       -9.13010
H          4.18810       11.09620       -6.56760
H          4.26280        9.73820       -5.40170
H          2.00750       11.80470       -5.54200
H          3.30310       11.78440       -4.33490
H          2.12610       10.46620       -4.38870
H         -0.30100        8.72970      -12.42120
H          4.40440       11.64740      -14.06220
