
  xtb     02082207183D
 energy: -342.199057149608 gnorm: 0.000565453486 xtb: 6.4.1 (unknown)
193213  0     0  0            999 V2000
   -8.2798   -2.8418    4.8845 C   0  0  0  0  0  0  0  0  0  0  0  0
   -9.0185   -1.8551    5.5167 C   0  0  0  0  0  0  0  0  0  0  0  0
   -8.9952   -0.4317    5.2017 C   0  0  0  0  0  0  0  0  0  0  0  0
   -8.3009    0.1504    4.3868 O   0  0  0  0  0  0  0  0  0  0  0  0
  -10.0257    0.1912    6.0640 C   0  0  0  0  0  0  0  0  0  0  0  0
  -10.6381   -0.8048    6.8453 C   0  0  0  0  0  0  0  0  0  0  0  0
  -11.6422   -0.4631    7.7353 C   0  0  0  0  0  0  0  0  0  0  0  0
  -12.0207    0.8692    7.8320 C   0  0  0  0  0  0  0  0  0  0  0  0
  -11.4116    1.8463    7.0616 C   0  0  0  0  0  0  0  0  0  0  0  0
  -11.9670    3.6450    7.2437 Br  0  0  0  0  0  0  0  0  0  0  0  0
  -10.3955    1.5210    6.1567 C   0  0  0  0  0  0  0  0  0  0  0  0
   -9.6368    2.7232    5.2016 Cl  0  0  0  0  0  0  0  0  0  0  0  0
  -10.0068   -2.0896    6.5344 C   0  0  0  0  0  0  0  0  0  0  0  0
  -10.3112   -3.2811    7.1533 C   0  0  0  0  0  0  0  0  0  0  0  0
  -11.3513   -3.4436    8.0886 C   0  0  0  0  0  0  0  0  0  0  0  0
  -12.1927   -3.6531    8.8425 N   0  0  0  0  0  0  0  0  0  0  0  0
   -9.6220   -4.4951    6.9780 C   0  0  0  0  0  0  0  0  0  0  0  0
   -9.0942   -5.5160    6.9288 N   0  0  0  0  0  0  0  0  0  0  0  0
   -7.2728   -2.7433    3.9372 C   0  0  0  0  0  0  0  0  0  0  0  0
   -6.5825   -3.8752    3.4093 C   0  0  0  0  0  0  0  0  0  0  0  0
   -6.9812   -5.1742    3.5366 N   0  0  0  0  0  0  0  0  0  0  0  0
   -8.3401   -5.5489    3.5574 C   0  0  0  0  0  0  0  0  0  0  0  0
   -9.2776   -4.8750    2.7792 C   0  0  0  0  0  0  0  0  0  0  0  0
  -10.6054   -5.2506    2.8191 C   0  0  0  0  0  0  0  0  0  0  0  0
  -11.0285   -6.3110    3.6124 C   0  0  0  0  0  0  0  0  0  0  0  0
  -12.4709   -6.7072    3.6761 C   0  0  0  0  0  0  0  0  0  0  0  0
  -10.0779   -6.9987    4.3579 C   0  0  0  0  0  0  0  0  0  0  0  0
   -8.7488   -6.6258    4.3397 C   0  0  0  0  0  0  0  0  0  0  0  0
   -6.0118   -6.1962    3.4779 C   0  0  0  0  0  0  0  0  0  0  0  0
   -6.2230   -7.3242    2.6925 C   0  0  0  0  0  0  0  0  0  0  0  0
   -5.2593   -8.3108    2.6271 C   0  0  0  0  0  0  0  0  0  0  0  0
   -4.0719   -8.2030    3.3400 C   0  0  0  0  0  0  0  0  0  0  0  0
   -3.0354   -9.2809    3.2862 C   0  0  0  0  0  0  0  0  0  0  0  0
   -3.8790   -7.0802    4.1367 C   0  0  0  0  0  0  0  0  0  0  0  0
   -4.8339   -6.0870    4.2121 C   0  0  0  0  0  0  0  0  0  0  0  0
   -5.4271   -3.4734    2.7225 C   0  0  0  0  0  0  0  0  0  0  0  0
   -4.1569   -4.3172    1.8911 S   0  0  0  0  0  0  0  0  0  0  0  0
   -3.4123   -2.7869    1.4324 C   0  0  0  0  0  0  0  0  0  0  0  0
   -4.1673   -1.6897    1.8489 C   0  0  0  0  0  0  0  0  0  0  0  0
   -3.9020   -0.3570    1.5795 N   0  0  0  0  0  0  0  0  0  0  0  0
   -3.5356    0.0869    0.3079 C   0  0  0  0  0  0  0  0  0  0  0  0
   -2.8059    1.2680    0.1727 C   0  0  0  0  0  0  0  0  0  0  0  0
   -2.3874    1.6904   -1.0728 C   0  0  0  0  0  0  0  0  0  0  0  0
   -2.6745    0.9550   -2.2156 C   0  0  0  0  0  0  0  0  0  0  0  0
   -2.2086    1.3995   -3.5684 C   0  0  0  0  0  0  0  0  0  0  0  0
   -3.4177   -0.2125   -2.0759 C   0  0  0  0  0  0  0  0  0  0  0  0
   -3.8495   -0.6421   -0.8385 C   0  0  0  0  0  0  0  0  0  0  0  0
   -4.2808    0.5730    2.5710 C   0  0  0  0  0  0  0  0  0  0  0  0
   -3.9053    0.3556    3.8923 C   0  0  0  0  0  0  0  0  0  0  0  0
   -4.3360    1.2135    4.8855 C   0  0  0  0  0  0  0  0  0  0  0  0
   -5.1389    2.3059    4.5870 C   0  0  0  0  0  0  0  0  0  0  0  0
   -5.6518    3.2097    5.6640 C   0  0  0  0  0  0  0  0  0  0  0  0
   -5.4839    2.5306    3.2585 C   0  0  0  0  0  0  0  0  0  0  0  0
   -5.0657    1.6784    2.2580 C   0  0  0  0  0  0  0  0  0  0  0  0
   -5.2857   -2.0955    2.6117 C   0  0  0  0  0  0  0  0  0  0  0  0
   -6.5549   -1.2225    3.3902 S   0  0  0  0  0  0  0  0  0  0  0  0
   -2.1320   -2.7962    0.8202 C   0  0  0  0  0  0  0  0  0  0  0  0
   -1.4508   -3.8771    0.2774 C   0  0  0  0  0  0  0  0  0  0  0  0
   -2.0303   -5.1985    0.0221 C   0  0  0  0  0  0  0  0  0  0  0  0
   -1.4104   -6.3464    0.5023 C   0  0  0  0  0  0  0  0  0  0  0  0
   -1.9613   -7.5854    0.2355 C   0  0  0  0  0  0  0  0  0  0  0  0
   -3.1214   -7.6891   -0.5109 C   0  0  0  0  0  0  0  0  0  0  0  0
   -3.7383   -6.5539   -1.0209 C   0  0  0  0  0  0  0  0  0  0  0  0
   -5.0108   -6.6510   -1.8118 C   0  0  0  0  0  0  0  0  0  0  0  0
   -6.2183   -6.5318   -0.8807 C   0  0  0  0  0  0  0  0  0  0  0  0
   -3.1823   -5.3144   -0.7493 C   0  0  0  0  0  0  0  0  0  0  0  0
   -0.1391   -3.5322   -0.0859 C   0  0  0  0  0  0  0  0  0  0  0  0
    1.1497   -4.4369   -0.8436 S   0  0  0  0  0  0  0  0  0  0  0  0
    2.1007   -2.9899   -0.8914 C   0  0  0  0  0  0  0  0  0  0  0  0
    3.3193   -2.5419   -1.4246 C   0  0  0  0  0  0  0  0  0  0  0  0
    4.2886   -3.1941   -2.2186 C   0  0  0  0  0  0  0  0  0  0  0  0
    5.3339   -2.4144   -2.8211 C   0  0  0  0  0  0  0  0  0  0  0  0
    6.1231   -3.1407   -3.5971 N   0  0  0  0  0  0  0  0  0  0  0  0
    5.6031   -4.6738   -3.5662 S   0  0  0  0  0  0  0  0  0  0  0  0
    4.3470   -4.4700   -2.5658 N   0  0  0  0  0  0  0  0  0  0  0  0
    5.4303   -1.0416   -2.5065 C   0  0  0  0  0  0  0  0  0  0  0  0
    6.3464   -0.0509   -2.8988 C   0  0  0  0  0  0  0  0  0  0  0  0
    7.7007    0.1344   -3.9588 S   0  0  0  0  0  0  0  0  0  0  0  0
    7.8306    1.8041   -3.4629 C   0  0  0  0  0  0  0  0  0  0  0  0
    8.6754    2.8570   -3.8712 C   0  0  0  0  0  0  0  0  0  0  0  0
    9.6556    2.7190   -4.9479 C   0  0  0  0  0  0  0  0  0  0  0  0
    9.7586    3.6850   -5.9466 C   0  0  0  0  0  0  0  0  0  0  0  0
   10.6627    3.5121   -6.9761 C   0  0  0  0  0  0  0  0  0  0  0  0
   11.4606    2.3815   -7.0257 C   0  0  0  0  0  0  0  0  0  0  0  0
   11.3660    1.4071   -6.0411 C   0  0  0  0  0  0  0  0  0  0  0  0
   12.1822    0.1491   -6.1085 C   0  0  0  0  0  0  0  0  0  0  0  0
   11.3482   -0.9920   -6.6948 C   0  0  0  0  0  0  0  0  0  0  0  0
   10.4587    1.5864   -5.0080 C   0  0  0  0  0  0  0  0  0  0  0  0
    8.3613    4.0300   -3.2133 C   0  0  0  0  0  0  0  0  0  0  0  0
    7.0003    3.8496   -2.1166 S   0  0  0  0  0  0  0  0  0  0  0  0
    6.8695    2.1759   -2.5206 C   0  0  0  0  0  0  0  0  0  0  0  0
    6.0190    1.1121   -2.1973 C   0  0  0  0  0  0  0  0  0  0  0  0
    4.9300    0.8874   -1.3919 N   0  0  0  0  0  0  0  0  0  0  0  0
    4.5317   -0.4247   -1.5935 C   0  0  0  0  0  0  0  0  0  0  0  0
    3.3971   -1.1479   -1.1515 C   0  0  0  0  0  0  0  0  0  0  0  0
    2.2412   -0.7599   -0.4955 N   0  0  0  0  0  0  0  0  0  0  0  0
    1.4612   -1.8762   -0.3377 C   0  0  0  0  0  0  0  0  0  0  0  0
    0.1826   -2.1907    0.1368 C   0  0  0  0  0  0  0  0  0  0  0  0
   -1.1278   -1.3518    0.8805 S   0  0  0  0  0  0  0  0  0  0  0  0
    1.6432    0.5554   -0.3967 C   0  0  0  0  0  0  0  0  0  0  0  0
    1.4465    0.9996    1.0520 C   0  0  0  0  0  0  0  0  0  0  0  0
    4.7514    1.6989   -0.2071 C   0  0  0  0  0  0  0  0  0  0  0  0
    5.9574    1.5916    0.7263 C   0  0  0  0  0  0  0  0  0  0  0  0
    8.9888    5.3232   -3.3288 C   0  0  0  0  0  0  0  0  0  0  0  0
   10.3776    5.4806   -3.4573 C   0  0  0  0  0  0  0  0  0  0  0  0
   11.1808    4.4043   -3.3684 F   0  0  0  0  0  0  0  0  0  0  0  0
   10.9657    6.7113   -3.6249 C   0  0  0  0  0  0  0  0  0  0  0  0
   10.1845    7.8686   -3.7047 C   0  0  0  0  0  0  0  0  0  0  0  0
    8.8075    7.7204   -3.4883 C   0  0  0  0  0  0  0  0  0  0  0  0
    8.0325    8.8137   -3.3989 F   0  0  0  0  0  0  0  0  0  0  0  0
    8.2229    6.4923   -3.2905 C   0  0  0  0  0  0  0  0  0  0  0  0
   10.7977    9.1519   -3.9495 C   0  0  0  0  0  0  0  0  0  0  0  0
   10.2922   10.0963   -4.7807 C   0  0  0  0  0  0  0  0  0  0  0  0
    9.2321    9.8251   -5.7941 C   0  0  0  0  0  0  0  0  0  0  0  0
    8.6707    8.7778   -6.0098 O   0  0  0  0  0  0  0  0  0  0  0  0
    9.1057   11.0794   -6.5671 C   0  0  0  0  0  0  0  0  0  0  0  0
   10.0248   12.0318   -6.0871 C   0  0  0  0  0  0  0  0  0  0  0  0
   10.0940   13.2857   -6.6762 C   0  0  0  0  0  0  0  0  0  0  0  0
    9.2424   13.5717   -7.7319 C   0  0  0  0  0  0  0  0  0  0  0  0
    8.3369   12.6312   -8.2007 C   0  0  0  0  0  0  0  0  0  0  0  0
    7.2014   13.0851   -9.6396 Br  0  0  0  0  0  0  0  0  0  0  0  0
    8.2549   11.3578   -7.6259 C   0  0  0  0  0  0  0  0  0  0  0  0
    7.1429   10.1938   -8.2026 Cl  0  0  0  0  0  0  0  0  0  0  0  0
   10.7720   11.4533   -4.9754 C   0  0  0  0  0  0  0  0  0  0  0  0
   11.7089   12.1035   -4.2180 C   0  0  0  0  0  0  0  0  0  0  0  0
   12.1238   13.4350   -4.4355 C   0  0  0  0  0  0  0  0  0  0  0  0
   12.5088   14.5087   -4.5626 N   0  0  0  0  0  0  0  0  0  0  0  0
   12.3841   11.5442   -3.1115 C   0  0  0  0  0  0  0  0  0  0  0  0
   12.9663   11.1607   -2.1995 N   0  0  0  0  0  0  0  0  0  0  0  0
   -8.5079   -3.8557    5.1864 H   0  0  0  0  0  0  0  0  0  0  0  0
  -12.1334   -1.1989    8.3496 H   0  0  0  0  0  0  0  0  0  0  0  0
  -12.8018    1.1555    8.5194 H   0  0  0  0  0  0  0  0  0  0  0  0
   -8.9636   -4.0546    2.1506 H   0  0  0  0  0  0  0  0  0  0  0  0
  -11.3235   -4.7140    2.2160 H   0  0  0  0  0  0  0  0  0  0  0  0
  -13.0626   -6.1494    2.9548 H   0  0  0  0  0  0  0  0  0  0  0  0
  -12.5845   -7.7713    3.4760 H   0  0  0  0  0  0  0  0  0  0  0  0
  -12.8675   -6.5141    4.6726 H   0  0  0  0  0  0  0  0  0  0  0  0
  -10.3852   -7.8268    4.9782 H   0  0  0  0  0  0  0  0  0  0  0  0
   -8.0258   -7.1559    4.9389 H   0  0  0  0  0  0  0  0  0  0  0  0
   -7.1429   -7.4171    2.1345 H   0  0  0  0  0  0  0  0  0  0  0  0
   -5.4320   -9.1793    2.0082 H   0  0  0  0  0  0  0  0  0  0  0  0
   -2.0380   -8.8502    3.2337 H   0  0  0  0  0  0  0  0  0  0  0  0
   -3.0879   -9.8937    4.1867 H   0  0  0  0  0  0  0  0  0  0  0  0
   -3.1898   -9.9266    2.4258 H   0  0  0  0  0  0  0  0  0  0  0  0
   -2.9688   -6.9854    4.7103 H   0  0  0  0  0  0  0  0  0  0  0  0
   -4.6786   -5.2256    4.8450 H   0  0  0  0  0  0  0  0  0  0  0  0
   -2.5568    1.8388    1.0545 H   0  0  0  0  0  0  0  0  0  0  0  0
   -1.8163    2.6043   -1.1553 H   0  0  0  0  0  0  0  0  0  0  0  0
   -1.5778    2.2817   -3.4930 H   0  0  0  0  0  0  0  0  0  0  0  0
   -1.6450    0.6068   -4.0591 H   0  0  0  0  0  0  0  0  0  0  0  0
   -3.0618    1.6394   -4.2023 H   0  0  0  0  0  0  0  0  0  0  0  0
   -3.6640   -0.7920   -2.9542 H   0  0  0  0  0  0  0  0  0  0  0  0
   -4.4329   -1.5473   -0.7537 H   0  0  0  0  0  0  0  0  0  0  0  0
   -3.2871   -0.4972    4.1348 H   0  0  0  0  0  0  0  0  0  0  0  0
   -4.0478    1.0252    5.9098 H   0  0  0  0  0  0  0  0  0  0  0  0
   -6.7138    3.0228    5.8218 H   0  0  0  0  0  0  0  0  0  0  0  0
   -5.5367    4.2549    5.3823 H   0  0  0  0  0  0  0  0  0  0  0  0
   -5.1319    3.0369    6.6031 H   0  0  0  0  0  0  0  0  0  0  0  0
   -6.1087    3.3756    3.0087 H   0  0  0  0  0  0  0  0  0  0  0  0
   -5.3607    1.8500    1.2333 H   0  0  0  0  0  0  0  0  0  0  0  0
   -0.5069   -6.2611    1.0872 H   0  0  0  0  0  0  0  0  0  0  0  0
   -1.4787   -8.4770    0.6068 H   0  0  0  0  0  0  0  0  0  0  0  0
   -3.5461   -8.6616   -0.7139 H   0  0  0  0  0  0  0  0  0  0  0  0
   -5.0461   -5.8514   -2.5545 H   0  0  0  0  0  0  0  0  0  0  0  0
   -5.0525   -7.6070   -2.3371 H   0  0  0  0  0  0  0  0  0  0  0  0
   -7.1454   -6.5711   -1.4481 H   0  0  0  0  0  0  0  0  0  0  0  0
   -6.2131   -7.3439   -0.1585 H   0  0  0  0  0  0  0  0  0  0  0  0
   -6.1822   -5.5927   -0.3326 H   0  0  0  0  0  0  0  0  0  0  0  0
   -3.6411   -4.4208   -1.1496 H   0  0  0  0  0  0  0  0  0  0  0  0
    9.1217    4.5575   -5.9236 H   0  0  0  0  0  0  0  0  0  0  0  0
   10.7408    4.2623   -7.7493 H   0  0  0  0  0  0  0  0  0  0  0  0
   12.1627    2.2548   -7.8373 H   0  0  0  0  0  0  0  0  0  0  0  0
   13.0650    0.3104   -6.7298 H   0  0  0  0  0  0  0  0  0  0  0  0
   12.5147   -0.1278   -5.1061 H   0  0  0  0  0  0  0  0  0  0  0  0
   11.9318   -1.9088   -6.7327 H   0  0  0  0  0  0  0  0  0  0  0  0
   11.0251   -0.7439   -7.7035 H   0  0  0  0  0  0  0  0  0  0  0  0
   10.4638   -1.1668   -6.0863 H   0  0  0  0  0  0  0  0  0  0  0  0
   10.3894    0.8438   -4.2268 H   0  0  0  0  0  0  0  0  0  0  0  0
    0.6583    0.5123   -0.8780 H   0  0  0  0  0  0  0  0  0  0  0  0
    2.2542    1.2633   -0.9577 H   0  0  0  0  0  0  0  0  0  0  0  0
    1.0927    2.0264    1.0733 H   0  0  0  0  0  0  0  0  0  0  0  0
    2.3682    0.9329    1.6259 H   0  0  0  0  0  0  0  0  0  0  0  0
    0.7044    0.3722    1.5372 H   0  0  0  0  0  0  0  0  0  0  0  0
    4.6149    2.7396   -0.5187 H   0  0  0  0  0  0  0  0  0  0  0  0
    3.8715    1.3623    0.3285 H   0  0  0  0  0  0  0  0  0  0  0  0
    6.1179    0.5548    1.0150 H   0  0  0  0  0  0  0  0  0  0  0  0
    6.8586    1.9620    0.2460 H   0  0  0  0  0  0  0  0  0  0  0  0
    5.7778    2.1807    1.6215 H   0  0  0  0  0  0  0  0  0  0  0  0
   12.0377    6.7728   -3.7289 H   0  0  0  0  0  0  0  0  0  0  0  0
    7.1564    6.4347   -3.1360 H   0  0  0  0  0  0  0  0  0  0  0  0
   11.7361    9.3288   -3.4404 H   0  0  0  0  0  0  0  0  0  0  0  0
   10.7899   14.0348   -6.3375 H   0  0  0  0  0  0  0  0  0  0  0  0
    9.2796   14.5418   -8.2032 H   0  0  0  0  0  0  0  0  0  0  0  0
  1  2  2  0  0  0  0
  2  3  1  0  0  0  0
  3  4  2  0  0  0  0
  3  5  1  0  0  0  0
  5  6  2  0  0  0  0
  6  7  1  0  0  0  0
  7  8  2  0  0  0  0
  8  9  1  0  0  0  0
  9 10  1  0  0  0  0
  9 11  2  0  0  0  0
 11 12  1  0  0  0  0
  6 13  1  0  0  0  0
 13 14  2  0  0  0  0
 14 15  1  0  0  0  0
 15 16  3  0  0  0  0
 14 17  1  0  0  0  0
 17 18  3  0  0  0  0
  1 19  1  0  0  0  0
 19 20  2  0  0  0  0
 20 21  1  0  0  0  0
 21 22  1  0  0  0  0
 22 23  2  0  0  0  0
 23 24  1  0  0  0  0
 24 25  2  0  0  0  0
 25 26  1  0  0  0  0
 25 27  1  0  0  0  0
 27 28  2  0  0  0  0
 21 29  1  0  0  0  0
 29 30  2  0  0  0  0
 30 31  1  0  0  0  0
 31 32  2  0  0  0  0
 32 33  1  0  0  0  0
 32 34  1  0  0  0  0
 34 35  2  0  0  0  0
 20 36  1  0  0  0  0
 36 37  1  0  0  0  0
 37 38  1  0  0  0  0
 38 39  2  0  0  0  0
 39 40  1  0  0  0  0
 40 41  1  0  0  0  0
 41 42  2  0  0  0  0
 42 43  1  0  0  0  0
 43 44  2  0  0  0  0
 44 45  1  0  0  0  0
 44 46  1  0  0  0  0
 46 47  2  0  0  0  0
 40 48  1  0  0  0  0
 48 49  2  0  0  0  0
 49 50  1  0  0  0  0
 50 51  2  0  0  0  0
 51 52  1  0  0  0  0
 51 53  1  0  0  0  0
 53 54  2  0  0  0  0
 39 55  1  0  0  0  0
 55 56  1  0  0  0  0
 38 57  1  0  0  0  0
 57 58  2  0  0  0  0
 58 59  1  0  0  0  0
 59 60  2  0  0  0  0
 60 61  1  0  0  0  0
 61 62  2  0  0  0  0
 62 63  1  0  0  0  0
 63 64  1  0  0  0  0
 64 65  1  0  0  0  0
 63 66  2  0  0  0  0
 58 67  1  0  0  0  0
 67 68  1  0  0  0  0
 68 69  1  0  0  0  0
 69 70  1  0  0  0  0
 70 71  1  0  0  0  0
 71 72  1  0  0  0  0
 72 73  2  0  0  0  0
 73 74  1  0  0  0  0
 74 75  1  0  0  0  0
 72 76  1  0  0  0  0
 76 77  1  0  0  0  0
 77 78  1  0  0  0  0
 78 79  1  0  0  0  0
 79 80  1  0  0  0  0
 80 81  1  0  0  0  0
 81 82  2  0  0  0  0
 82 83  1  0  0  0  0
 83 84  2  0  0  0  0
 84 85  1  0  0  0  0
 85 86  1  0  0  0  0
 86 87  1  0  0  0  0
 85 88  2  0  0  0  0
 80 89  2  0  0  0  0
 89 90  1  0  0  0  0
 90 91  1  0  0  0  0
 91 92  1  0  0  0  0
 92 93  1  0  0  0  0
 93 94  1  0  0  0  0
 94 95  1  0  0  0  0
 95 96  1  0  0  0  0
 96 97  1  0  0  0  0
 97 98  1  0  0  0  0
 98 99  1  0  0  0  0
 96100  1  0  0  0  0
100101  1  0  0  0  0
 93102  1  0  0  0  0
102103  1  0  0  0  0
 89104  1  0  0  0  0
104105  2  0  0  0  0
105106  1  0  0  0  0
105107  1  0  0  0  0
107108  2  0  0  0  0
108109  1  0  0  0  0
109110  1  0  0  0  0
109111  2  0  0  0  0
108112  1  0  0  0  0
112113  2  0  0  0  0
113114  1  0  0  0  0
114115  2  0  0  0  0
114116  1  0  0  0  0
116117  2  0  0  0  0
117118  1  0  0  0  0
118119  2  0  0  0  0
119120  1  0  0  0  0
120121  1  0  0  0  0
120122  2  0  0  0  0
122123  1  0  0  0  0
117124  1  0  0  0  0
124125  2  0  0  0  0
125126  1  0  0  0  0
126127  3  0  0  0  0
125128  1  0  0  0  0
128129  3  0  0  0  0
 13  2  1  0  0  0  0
 56 19  1  0  0  0  0
 99 57  1  0  0  0  0
111104  1  0  0  0  0
124113  1  0  0  0  0
 11  5  1  0  0  0  0
 28 22  1  0  0  0  0
 35 29  1  0  0  0  0
 55 36  2  0  0  0  0
 66 59  1  0  0  0  0
 98 67  2  0  0  0  0
122116  1  0  0  0  0
 47 41  1  0  0  0  0
 54 48  1  0  0  0  0
 97 69  2  0  0  0  0
 95 70  2  0  0  0  0
 75 71  2  0  0  0  0
 94 76  2  0  0  0  0
 92 77  2  0  0  0  0
 91 79  2  0  0  0  0
 88 81  1  0  0  0  0
  1130  1  0  0  0  0
  7131  1  0  0  0  0
  8132  1  0  0  0  0
 23133  1  0  0  0  0
 24134  1  0  0  0  0
 26135  1  0  0  0  0
 26136  1  0  0  0  0
 26137  1  0  0  0  0
 27138  1  0  0  0  0
 28139  1  0  0  0  0
 30140  1  0  0  0  0
 31141  1  0  0  0  0
 33142  1  0  0  0  0
 33143  1  0  0  0  0
 33144  1  0  0  0  0
 34145  1  0  0  0  0
 35146  1  0  0  0  0
 42147  1  0  0  0  0
 43148  1  0  0  0  0
 45149  1  0  0  0  0
 45150  1  0  0  0  0
 45151  1  0  0  0  0
 46152  1  0  0  0  0
 47153  1  0  0  0  0
 49154  1  0  0  0  0
 50155  1  0  0  0  0
 52156  1  0  0  0  0
 52157  1  0  0  0  0
 52158  1  0  0  0  0
 53159  1  0  0  0  0
 54160  1  0  0  0  0
 60161  1  0  0  0  0
 61162  1  0  0  0  0
 62163  1  0  0  0  0
 64164  1  0  0  0  0
 64165  1  0  0  0  0
 65166  1  0  0  0  0
 65167  1  0  0  0  0
 65168  1  0  0  0  0
 66169  1  0  0  0  0
 82170  1  0  0  0  0
 83171  1  0  0  0  0
 84172  1  0  0  0  0
 86173  1  0  0  0  0
 86174  1  0  0  0  0
 87175  1  0  0  0  0
 87176  1  0  0  0  0
 87177  1  0  0  0  0
 88178  1  0  0  0  0
100179  1  0  0  0  0
100180  1  0  0  0  0
101181  1  0  0  0  0
101182  1  0  0  0  0
101183  1  0  0  0  0
102184  1  0  0  0  0
102185  1  0  0  0  0
103186  1  0  0  0  0
103187  1  0  0  0  0
103188  1  0  0  0  0
107189  1  0  0  0  0
111190  1  0  0  0  0
112191  1  0  0  0  0
118192  1  0  0  0  0
119193  1  0  0  0  0
M  END
