
  xtb     02072209003D
 energy: -365.010168872304 gnorm: 0.000274065370 xtb: 6.4.1 (unknown)
209230  0     0  0            999 V2000
   -7.0108   -5.2798   -3.4911 C   0  0  0  0  0  0  0  0  0  0  0  0
   -6.8134   -6.3378   -4.3594 C   0  0  0  0  0  0  0  0  0  0  0  0
   -5.6964   -6.4968   -5.2858 C   0  0  0  0  0  0  0  0  0  0  0  0
   -4.8140   -5.6993   -5.5476 O   0  0  0  0  0  0  0  0  0  0  0  0
   -5.8327   -7.8567   -5.8547 C   0  0  0  0  0  0  0  0  0  0  0  0
   -6.9698   -8.4764   -5.3062 C   0  0  0  0  0  0  0  0  0  0  0  0
   -7.2959   -9.7704   -5.6762 C   0  0  0  0  0  0  0  0  0  0  0  0
   -6.4808  -10.4264   -6.5886 C   0  0  0  0  0  0  0  0  0  0  0  0
   -5.3659   -9.8076   -7.1309 C   0  0  0  0  0  0  0  0  0  0  0  0
   -4.2998  -10.7524   -8.3739 Br  0  0  0  0  0  0  0  0  0  0  0  0
   -5.0205   -8.5002   -6.7718 C   0  0  0  0  0  0  0  0  0  0  0  0
   -3.6478   -7.7248   -7.4409 Cl  0  0  0  0  0  0  0  0  0  0  0  0
   -7.6230   -7.5274   -4.4024 C   0  0  0  0  0  0  0  0  0  0  0  0
   -8.8131   -7.7559   -3.7507 C   0  0  0  0  0  0  0  0  0  0  0  0
   -9.5372   -6.7999   -3.0147 C   0  0  0  0  0  0  0  0  0  0  0  0
  -10.2145   -6.0726   -2.4356 N   0  0  0  0  0  0  0  0  0  0  0  0
   -9.5000   -8.9852   -3.7655 C   0  0  0  0  0  0  0  0  0  0  0  0
  -10.0980   -9.9649   -3.7158 N   0  0  0  0  0  0  0  0  0  0  0  0
   -6.2829   -4.1116   -3.3085 C   0  0  0  0  0  0  0  0  0  0  0  0
   -6.5991   -3.1412   -2.3157 C   0  0  0  0  0  0  0  0  0  0  0  0
   -7.5284   -3.2849   -1.3229 N   0  0  0  0  0  0  0  0  0  0  0  0
   -8.1878   -2.1304   -0.8548 C   0  0  0  0  0  0  0  0  0  0  0  0
   -8.3445   -1.9010    0.5074 C   0  0  0  0  0  0  0  0  0  0  0  0
   -8.9941   -0.7631    0.9452 C   0  0  0  0  0  0  0  0  0  0  0  0
   -9.4961    0.1684    0.0456 C   0  0  0  0  0  0  0  0  0  0  0  0
  -10.1906    1.4090    0.5141 C   0  0  0  0  0  0  0  0  0  0  0  0
   -9.3380   -0.0735   -1.3154 C   0  0  0  0  0  0  0  0  0  0  0  0
   -8.6963   -1.2078   -1.7663 C   0  0  0  0  0  0  0  0  0  0  0  0
   -7.7425   -4.5033   -0.6516 C   0  0  0  0  0  0  0  0  0  0  0  0
   -6.6846   -5.3769   -0.4102 C   0  0  0  0  0  0  0  0  0  0  0  0
   -6.9106   -6.5705    0.2451 C   0  0  0  0  0  0  0  0  0  0  0  0
   -8.1808   -6.9149    0.6935 C   0  0  0  0  0  0  0  0  0  0  0  0
   -8.4340   -8.2195    1.3828 C   0  0  0  0  0  0  0  0  0  0  0  0
   -9.2226   -6.0208    0.4761 C   0  0  0  0  0  0  0  0  0  0  0  0
   -9.0159   -4.8312   -0.1932 C   0  0  0  0  0  0  0  0  0  0  0  0
   -5.8058   -1.9934   -2.4696 C   0  0  0  0  0  0  0  0  0  0  0  0
   -5.6310   -0.5198   -1.5666 S   0  0  0  0  0  0  0  0  0  0  0  0
   -4.2882   -0.0408   -2.5927 C   0  0  0  0  0  0  0  0  0  0  0  0
   -3.9662   -0.9994   -3.5450 C   0  0  0  0  0  0  0  0  0  0  0  0
   -2.8807   -0.9570   -4.3989 N   0  0  0  0  0  0  0  0  0  0  0  0
   -2.9924   -1.6013   -5.6447 C   0  0  0  0  0  0  0  0  0  0  0  0
   -4.1502   -1.4568   -6.4028 C   0  0  0  0  0  0  0  0  0  0  0  0
   -4.2887   -2.1430   -7.5925 C   0  0  0  0  0  0  0  0  0  0  0  0
   -3.2828   -2.9797   -8.0590 C   0  0  0  0  0  0  0  0  0  0  0  0
   -3.4648   -3.7694   -9.3178 C   0  0  0  0  0  0  0  0  0  0  0  0
   -2.1180   -3.0926   -7.3097 C   0  0  0  0  0  0  0  0  0  0  0  0
   -1.9683   -2.4164   -6.1161 C   0  0  0  0  0  0  0  0  0  0  0  0
   -1.6458   -0.4464   -3.9801 C   0  0  0  0  0  0  0  0  0  0  0  0
   -0.8273    0.2296   -4.8827 C   0  0  0  0  0  0  0  0  0  0  0  0
    0.3517    0.8054   -4.4561 C   0  0  0  0  0  0  0  0  0  0  0  0
    0.7557    0.7215   -3.1279 C   0  0  0  0  0  0  0  0  0  0  0  0
    2.0211    1.3810   -2.6709 C   0  0  0  0  0  0  0  0  0  0  0  0
   -0.0341   -0.0061   -2.2483 C   0  0  0  0  0  0  0  0  0  0  0  0
   -1.2136   -0.5930   -2.6643 C   0  0  0  0  0  0  0  0  0  0  0  0
   -4.8648   -2.0911   -3.4866 C   0  0  0  0  0  0  0  0  0  0  0  0
   -4.9350   -3.5926   -4.3304 S   0  0  0  0  0  0  0  0  0  0  0  0
   -3.5435    1.1570   -2.3433 C   0  0  0  0  0  0  0  0  0  0  0  0
   -3.0694    2.0506   -3.2858 C   0  0  0  0  0  0  0  0  0  0  0  0
   -3.5982    2.1362   -4.6443 C   0  0  0  0  0  0  0  0  0  0  0  0
   -4.9365    1.8388   -4.9015 C   0  0  0  0  0  0  0  0  0  0  0  0
   -5.4282    1.9132   -6.1897 C   0  0  0  0  0  0  0  0  0  0  0  0
   -4.6000    2.2838   -7.2355 C   0  0  0  0  0  0  0  0  0  0  0  0
   -3.2708    2.6054   -6.9966 C   0  0  0  0  0  0  0  0  0  0  0  0
   -2.3742    3.0705   -8.1073 C   0  0  0  0  0  0  0  0  0  0  0  0
   -2.3186    4.5991   -8.1400 C   0  0  0  0  0  0  0  0  0  0  0  0
   -2.7859    2.5381   -5.6994 C   0  0  0  0  0  0  0  0  0  0  0  0
   -2.0465    2.8602   -2.7405 C   0  0  0  0  0  0  0  0  0  0  0  0
   -0.9393    4.0269   -3.4235 S   0  0  0  0  0  0  0  0  0  0  0  0
   -0.0912    4.0983   -1.9148 C   0  0  0  0  0  0  0  0  0  0  0  0
    1.0843    4.6493   -1.3669 C   0  0  0  0  0  0  0  0  0  0  0  0
    2.0378    5.5871   -1.8255 C   0  0  0  0  0  0  0  0  0  0  0  0
    3.1263    5.9724   -0.9603 C   0  0  0  0  0  0  0  0  0  0  0  0
    3.8956    6.9000   -1.5063 N   0  0  0  0  0  0  0  0  0  0  0  0
    3.3183    7.2554   -2.9755 S   0  0  0  0  0  0  0  0  0  0  0  0
    2.0593    6.2379   -2.9777 N   0  0  0  0  0  0  0  0  0  0  0  0
    3.3079    5.2964    0.2690 C   0  0  0  0  0  0  0  0  0  0  0  0
    4.3487    5.2697    1.2161 C   0  0  0  0  0  0  0  0  0  0  0  0
    5.8590    6.0518    1.5440 S   0  0  0  0  0  0  0  0  0  0  0  0
    6.1041    4.9704    2.9011 C   0  0  0  0  0  0  0  0  0  0  0  0
    7.1693    4.7829    3.7969 C   0  0  0  0  0  0  0  0  0  0  0  0
    8.4478    5.4762    3.6620 C   0  0  0  0  0  0  0  0  0  0  0  0
    8.4898    6.8433    3.4056 C   0  0  0  0  0  0  0  0  0  0  0  0
    9.7086    7.4744    3.2464 C   0  0  0  0  0  0  0  0  0  0  0  0
   10.8859    6.7529    3.3309 C   0  0  0  0  0  0  0  0  0  0  0  0
   10.8622    5.3839    3.5722 C   0  0  0  0  0  0  0  0  0  0  0  0
   12.1359    4.5897    3.6136 C   0  0  0  0  0  0  0  0  0  0  0  0
   12.5258    4.1311    2.2070 C   0  0  0  0  0  0  0  0  0  0  0  0
    9.6383    4.7554    3.7287 C   0  0  0  0  0  0  0  0  0  0  0  0
    6.8955    3.7509    4.6946 C   0  0  0  0  0  0  0  0  0  0  0  0
    5.3780    2.9399    4.3463 S   0  0  0  0  0  0  0  0  0  0  0  0
    5.0500    4.0687    3.0810 C   0  0  0  0  0  0  0  0  0  0  0  0
    4.0551    4.2385    2.1184 C   0  0  0  0  0  0  0  0  0  0  0  0
    2.8630    3.6411    1.7902 N   0  0  0  0  0  0  0  0  0  0  0  0
    2.3851    4.2948    0.6707 C   0  0  0  0  0  0  0  0  0  0  0  0
    1.1994    4.1022   -0.0636 C   0  0  0  0  0  0  0  0  0  0  0  0
    0.0939    3.3175    0.2125 N   0  0  0  0  0  0  0  0  0  0  0  0
   -0.6715    3.2994   -0.9258 C   0  0  0  0  0  0  0  0  0  0  0  0
   -1.7894    2.6035   -1.3944 C   0  0  0  0  0  0  0  0  0  0  0  0
   -2.8358    1.3933   -0.7526 S   0  0  0  0  0  0  0  0  0  0  0  0
   -0.5065    3.1142    1.5159 C   0  0  0  0  0  0  0  0  0  0  0  0
   -1.7145    4.0282    1.7179 C   0  0  0  0  0  0  0  0  0  0  0  0
    2.6297    2.2565    2.1476 C   0  0  0  0  0  0  0  0  0  0  0  0
    3.6916    1.3391    1.5410 C   0  0  0  0  0  0  0  0  0  0  0  0
    7.6267    3.3104    5.8378 C   0  0  0  0  0  0  0  0  0  0  0  0
    8.5190    4.0871    6.5768 C   0  0  0  0  0  0  0  0  0  0  0  0
    8.6576    5.3999    6.3286 F   0  0  0  0  0  0  0  0  0  0  0  0
    9.2800    3.5521    7.6139 C   0  0  0  0  0  0  0  0  0  0  0  0
   10.1693    4.3533    8.2180 F   0  0  0  0  0  0  0  0  0  0  0  0
    9.1848    2.2248    8.0217 C   0  0  0  0  0  0  0  0  0  0  0  0
    8.1459    1.4556    7.4152 C   0  0  0  0  0  0  0  0  0  0  0  0
    7.7991    0.2633    7.9203 N   0  0  0  0  0  0  0  0  0  0  0  0
    6.8672   -0.4546    7.3466 C   0  0  0  0  0  0  0  0  0  0  0  0
    6.4729   -1.7474    7.9961 C   0  0  0  0  0  0  0  0  0  0  0  0
    6.8041   -1.7880    9.4831 C   0  0  0  0  0  0  0  0  0  0  0  0
    6.2613    0.0014    6.1413 C   0  0  0  0  0  0  0  0  0  0  0  0
    6.5218    1.2065    5.7054 N   0  0  0  0  0  0  0  0  0  0  0  0
    7.4170    1.9818    6.3253 C   0  0  0  0  0  0  0  0  0  0  0  0
    5.2714   -0.7922    5.3456 C   0  0  0  0  0  0  0  0  0  0  0  0
    3.8430   -0.3955    5.7266 C   0  0  0  0  0  0  0  0  0  0  0  0
    9.9889    1.6863    9.0729 C   0  0  0  0  0  0  0  0  0  0  0  0
   10.2968    0.3618    9.1409 C   0  0  0  0  0  0  0  0  0  0  0  0
   10.1757   -0.5698    7.9881 C   0  0  0  0  0  0  0  0  0  0  0  0
   10.1668   -0.2964    6.8089 O   0  0  0  0  0  0  0  0  0  0  0  0
   10.2954   -1.9241    8.5776 C   0  0  0  0  0  0  0  0  0  0  0  0
   10.6921   -1.8128    9.9230 C   0  0  0  0  0  0  0  0  0  0  0  0
   10.8908   -2.9579   10.6798 C   0  0  0  0  0  0  0  0  0  0  0  0
   10.6688   -4.1925   10.0888 C   0  0  0  0  0  0  0  0  0  0  0  0
   10.2618   -4.2951    8.7666 C   0  0  0  0  0  0  0  0  0  0  0  0
    9.9350   -6.0057    8.0311 Br  0  0  0  0  0  0  0  0  0  0  0  0
   10.0808   -3.1537    7.9804 C   0  0  0  0  0  0  0  0  0  0  0  0
    9.5782   -3.2641    6.3446 Cl  0  0  0  0  0  0  0  0  0  0  0  0
   10.7749   -0.3955   10.2783 C   0  0  0  0  0  0  0  0  0  0  0  0
   11.1843    0.0970   11.4891 C   0  0  0  0  0  0  0  0  0  0  0  0
   11.2385    1.4665   11.8265 C   0  0  0  0  0  0  0  0  0  0  0  0
   11.3055    2.5570   12.1775 N   0  0  0  0  0  0  0  0  0  0  0  0
   11.6285   -0.7041   12.5616 C   0  0  0  0  0  0  0  0  0  0  0  0
   12.0016   -1.3039   13.4665 N   0  0  0  0  0  0  0  0  0  0  0  0
   -7.8612   -5.3781   -2.8287 H   0  0  0  0  0  0  0  0  0  0  0  0
   -8.1573  -10.2774   -5.2750 H   0  0  0  0  0  0  0  0  0  0  0  0
   -6.7156  -11.4366   -6.8868 H   0  0  0  0  0  0  0  0  0  0  0  0
   -7.9510   -2.6131    1.2175 H   0  0  0  0  0  0  0  0  0  0  0  0
   -9.1058   -0.5948    2.0063 H   0  0  0  0  0  0  0  0  0  0  0  0
   -9.6242    2.2915    0.2183 H   0  0  0  0  0  0  0  0  0  0  0  0
  -11.1797    1.4844    0.0649 H   0  0  0  0  0  0  0  0  0  0  0  0
  -10.2971    1.4126    1.5955 H   0  0  0  0  0  0  0  0  0  0  0  0
   -9.7306    0.6351   -2.0299 H   0  0  0  0  0  0  0  0  0  0  0  0
   -8.5910   -1.3931   -2.8254 H   0  0  0  0  0  0  0  0  0  0  0  0
   -5.6897   -5.1191   -0.7431 H   0  0  0  0  0  0  0  0  0  0  0  0
   -6.0819   -7.2417    0.4191 H   0  0  0  0  0  0  0  0  0  0  0  0
   -9.0146   -8.8762    0.7348 H   0  0  0  0  0  0  0  0  0  0  0  0
   -9.0061   -8.0663    2.2960 H   0  0  0  0  0  0  0  0  0  0  0  0
   -7.5010   -8.7189    1.6313 H   0  0  0  0  0  0  0  0  0  0  0  0
  -10.2162   -6.2685    0.8170 H   0  0  0  0  0  0  0  0  0  0  0  0
   -9.8390   -4.1582   -0.3741 H   0  0  0  0  0  0  0  0  0  0  0  0
   -4.9376   -0.8066   -6.0509 H   0  0  0  0  0  0  0  0  0  0  0  0
   -5.1972   -2.0300   -8.1663 H   0  0  0  0  0  0  0  0  0  0  0  0
   -2.5078   -3.9833   -9.7881 H   0  0  0  0  0  0  0  0  0  0  0  0
   -4.0982   -3.2386  -10.0250 H   0  0  0  0  0  0  0  0  0  0  0  0
   -3.9456   -4.7198   -9.0835 H   0  0  0  0  0  0  0  0  0  0  0  0
   -1.3220   -3.7357   -7.6563 H   0  0  0  0  0  0  0  0  0  0  0  0
   -1.0658   -2.5294   -5.5333 H   0  0  0  0  0  0  0  0  0  0  0  0
   -1.1380    0.3110   -5.9134 H   0  0  0  0  0  0  0  0  0  0  0  0
    0.9641    1.3481   -5.1616 H   0  0  0  0  0  0  0  0  0  0  0  0
    2.8847    0.7759   -2.9495 H   0  0  0  0  0  0  0  0  0  0  0  0
    2.1349    2.3590   -3.1345 H   0  0  0  0  0  0  0  0  0  0  0  0
    2.0245    1.5045   -1.5899 H   0  0  0  0  0  0  0  0  0  0  0  0
    0.2746   -0.1152   -1.2179 H   0  0  0  0  0  0  0  0  0  0  0  0
   -1.8083   -1.1648   -1.9666 H   0  0  0  0  0  0  0  0  0  0  0  0
   -5.5928    1.5672   -4.0880 H   0  0  0  0  0  0  0  0  0  0  0  0
   -6.4666    1.6834   -6.3811 H   0  0  0  0  0  0  0  0  0  0  0  0
   -4.9905    2.3309   -8.2416 H   0  0  0  0  0  0  0  0  0  0  0  0
   -1.3659    2.6793   -7.9562 H   0  0  0  0  0  0  0  0  0  0  0  0
   -2.7456    2.6996   -9.0644 H   0  0  0  0  0  0  0  0  0  0  0  0
   -1.6683    4.9387   -8.9426 H   0  0  0  0  0  0  0  0  0  0  0  0
   -3.3128    5.0100   -8.3009 H   0  0  0  0  0  0  0  0  0  0  0  0
   -1.9374    4.9833   -7.1966 H   0  0  0  0  0  0  0  0  0  0  0  0
   -1.7527    2.7854   -5.5104 H   0  0  0  0  0  0  0  0  0  0  0  0
    7.5719    7.4091    3.3594 H   0  0  0  0  0  0  0  0  0  0  0  0
    9.7402    8.5375    3.0597 H   0  0  0  0  0  0  0  0  0  0  0  0
   11.8353    7.2547    3.2118 H   0  0  0  0  0  0  0  0  0  0  0  0
   12.9384    5.2025    4.0286 H   0  0  0  0  0  0  0  0  0  0  0  0
   12.0074    3.7153    4.2549 H   0  0  0  0  0  0  0  0  0  0  0  0
   12.6685    4.9895    1.5544 H   0  0  0  0  0  0  0  0  0  0  0  0
   13.4500    3.5589    2.2365 H   0  0  0  0  0  0  0  0  0  0  0  0
   11.7434    3.5056    1.7827 H   0  0  0  0  0  0  0  0  0  0  0  0
    9.6048    3.6876    3.9000 H   0  0  0  0  0  0  0  0  0  0  0  0
    0.2327    3.3447    2.2826 H   0  0  0  0  0  0  0  0  0  0  0  0
   -0.8204    2.0683    1.6042 H   0  0  0  0  0  0  0  0  0  0  0  0
   -2.1023    3.9000    2.7246 H   0  0  0  0  0  0  0  0  0  0  0  0
   -1.4253    5.0683    1.5837 H   0  0  0  0  0  0  0  0  0  0  0  0
   -2.5046    3.7905    1.0113 H   0  0  0  0  0  0  0  0  0  0  0  0
    1.6551    1.9469    1.7783 H   0  0  0  0  0  0  0  0  0  0  0  0
    2.6505    2.1759    3.2386 H   0  0  0  0  0  0  0  0  0  0  0  0
    3.4516    0.3046    1.7711 H   0  0  0  0  0  0  0  0  0  0  0  0
    4.6751    1.5635    1.9431 H   0  0  0  0  0  0  0  0  0  0  0  0
    3.7200    1.4600    0.4600 H   0  0  0  0  0  0  0  0  0  0  0  0
    5.4032   -1.9102    7.8542 H   0  0  0  0  0  0  0  0  0  0  0  0
    6.9988   -2.5581    7.4817 H   0  0  0  0  0  0  0  0  0  0  0  0
    6.2689   -1.0022   10.0104 H   0  0  0  0  0  0  0  0  0  0  0  0
    6.5168   -2.7489    9.9027 H   0  0  0  0  0  0  0  0  0  0  0  0
    7.8672   -1.6397    9.6427 H   0  0  0  0  0  0  0  0  0  0  0  0
    5.4240   -1.8601    5.4998 H   0  0  0  0  0  0  0  0  0  0  0  0
    5.4272   -0.5606    4.2911 H   0  0  0  0  0  0  0  0  0  0  0  0
    3.1276   -0.9518    5.1265 H   0  0  0  0  0  0  0  0  0  0  0  0
    3.7011    0.6677    5.5503 H   0  0  0  0  0  0  0  0  0  0  0  0
    3.6471   -0.6004    6.7768 H   0  0  0  0  0  0  0  0  0  0  0  0
   10.3049    2.3713    9.8481 H   0  0  0  0  0  0  0  0  0  0  0  0
   11.2017   -2.9115   11.7099 H   0  0  0  0  0  0  0  0  0  0  0  0
   10.8072   -5.0947   10.6645 H   0  0  0  0  0  0  0  0  0  0  0  0
  1  2  2  0  0  0  0
  2  3  1  0  0  0  0
  3  4  2  0  0  0  0
  3  5  1  0  0  0  0
  5  6  2  0  0  0  0
  6  7  1  0  0  0  0
  7  8  2  0  0  0  0
  8  9  1  0  0  0  0
  9 10  1  0  0  0  0
  9 11  2  0  0  0  0
 11 12  1  0  0  0  0
  6 13  1  0  0  0  0
 13 14  2  0  0  0  0
 14 15  1  0  0  0  0
 15 16  3  0  0  0  0
 14 17  1  0  0  0  0
 17 18  3  0  0  0  0
  1 19  1  0  0  0  0
 19 20  2  0  0  0  0
 20 21  1  0  0  0  0
 21 22  1  0  0  0  0
 22 23  2  0  0  0  0
 23 24  1  0  0  0  0
 24 25  2  0  0  0  0
 25 26  1  0  0  0  0
 25 27  1  0  0  0  0
 27 28  2  0  0  0  0
 21 29  1  0  0  0  0
 29 30  2  0  0  0  0
 30 31  1  0  0  0  0
 31 32  2  0  0  0  0
 32 33  1  0  0  0  0
 32 34  1  0  0  0  0
 34 35  2  0  0  0  0
 20 36  1  0  0  0  0
 36 37  1  0  0  0  0
 37 38  1  0  0  0  0
 38 39  2  0  0  0  0
 39 40  1  0  0  0  0
 40 41  1  0  0  0  0
 41 42  2  0  0  0  0
 42 43  1  0  0  0  0
 43 44  2  0  0  0  0
 44 45  1  0  0  0  0
 44 46  1  0  0  0  0
 46 47  2  0  0  0  0
 40 48  1  0  0  0  0
 48 49  2  0  0  0  0
 49 50  1  0  0  0  0
 50 51  2  0  0  0  0
 51 52  1  0  0  0  0
 51 53  1  0  0  0  0
 53 54  2  0  0  0  0
 39 55  1  0  0  0  0
 55 56  1  0  0  0  0
 38 57  1  0  0  0  0
 57 58  2  0  0  0  0
 58 59  1  0  0  0  0
 59 60  2  0  0  0  0
 60 61  1  0  0  0  0
 61 62  2  0  0  0  0
 62 63  1  0  0  0  0
 63 64  1  0  0  0  0
 64 65  1  0  0  0  0
 63 66  2  0  0  0  0
 58 67  1  0  0  0  0
 67 68  1  0  0  0  0
 68 69  1  0  0  0  0
 69 70  1  0  0  0  0
 70 71  1  0  0  0  0
 71 72  1  0  0  0  0
 72 73  2  0  0  0  0
 73 74  1  0  0  0  0
 74 75  1  0  0  0  0
 72 76  1  0  0  0  0
 76 77  1  0  0  0  0
 77 78  1  0  0  0  0
 78 79  1  0  0  0  0
 79 80  1  0  0  0  0
 80 81  1  0  0  0  0
 81 82  2  0  0  0  0
 82 83  1  0  0  0  0
 83 84  2  0  0  0  0
 84 85  1  0  0  0  0
 85 86  1  0  0  0  0
 86 87  1  0  0  0  0
 85 88  2  0  0  0  0
 80 89  2  0  0  0  0
 89 90  1  0  0  0  0
 90 91  1  0  0  0  0
 91 92  1  0  0  0  0
 92 93  1  0  0  0  0
 93 94  1  0  0  0  0
 94 95  1  0  0  0  0
 95 96  1  0  0  0  0
 96 97  1  0  0  0  0
 97 98  1  0  0  0  0
 98 99  1  0  0  0  0
 96100  1  0  0  0  0
100101  1  0  0  0  0
 93102  1  0  0  0  0
102103  1  0  0  0  0
 89104  1  0  0  0  0
104105  2  0  0  0  0
105106  1  0  0  0  0
105107  1  0  0  0  0
107108  1  0  0  0  0
107109  2  0  0  0  0
109110  1  0  0  0  0
110111  2  0  0  0  0
111112  1  0  0  0  0
112113  1  0  0  0  0
113114  1  0  0  0  0
112115  2  0  0  0  0
115116  1  0  0  0  0
116117  2  0  0  0  0
115118  1  0  0  0  0
118119  1  0  0  0  0
109120  1  0  0  0  0
120121  2  0  0  0  0
121122  1  0  0  0  0
122123  2  0  0  0  0
122124  1  0  0  0  0
124125  2  0  0  0  0
125126  1  0  0  0  0
126127  2  0  0  0  0
127128  1  0  0  0  0
128129  1  0  0  0  0
128130  2  0  0  0  0
130131  1  0  0  0  0
125132  1  0  0  0  0
132133  2  0  0  0  0
133134  1  0  0  0  0
134135  3  0  0  0  0
133136  1  0  0  0  0
136137  3  0  0  0  0
 13  2  1  0  0  0  0
 56 19  1  0  0  0  0
 99 57  1  0  0  0  0
117104  1  0  0  0  0
132121  1  0  0  0  0
 11  5  1  0  0  0  0
 28 22  1  0  0  0  0
 35 29  1  0  0  0  0
 55 36  2  0  0  0  0
 66 59  1  0  0  0  0
 98 67  2  0  0  0  0
117110  1  0  0  0  0
130124  1  0  0  0  0
 47 41  1  0  0  0  0
 54 48  1  0  0  0  0
 97 69  2  0  0  0  0
 95 70  2  0  0  0  0
 75 71  2  0  0  0  0
 94 76  2  0  0  0  0
 92 77  2  0  0  0  0
 91 79  2  0  0  0  0
 88 81  1  0  0  0  0
  1138  1  0  0  0  0
  7139  1  0  0  0  0
  8140  1  0  0  0  0
 23141  1  0  0  0  0
 24142  1  0  0  0  0
 26143  1  0  0  0  0
 26144  1  0  0  0  0
 26145  1  0  0  0  0
 27146  1  0  0  0  0
 28147  1  0  0  0  0
 30148  1  0  0  0  0
 31149  1  0  0  0  0
 33150  1  0  0  0  0
 33151  1  0  0  0  0
 33152  1  0  0  0  0
 34153  1  0  0  0  0
 35154  1  0  0  0  0
 42155  1  0  0  0  0
 43156  1  0  0  0  0
 45157  1  0  0  0  0
 45158  1  0  0  0  0
 45159  1  0  0  0  0
 46160  1  0  0  0  0
 47161  1  0  0  0  0
 49162  1  0  0  0  0
 50163  1  0  0  0  0
 52164  1  0  0  0  0
 52165  1  0  0  0  0
 52166  1  0  0  0  0
 53167  1  0  0  0  0
 54168  1  0  0  0  0
 60169  1  0  0  0  0
 61170  1  0  0  0  0
 62171  1  0  0  0  0
 64172  1  0  0  0  0
 64173  1  0  0  0  0
 65174  1  0  0  0  0
 65175  1  0  0  0  0
 65176  1  0  0  0  0
 66177  1  0  0  0  0
 82178  1  0  0  0  0
 83179  1  0  0  0  0
 84180  1  0  0  0  0
 86181  1  0  0  0  0
 86182  1  0  0  0  0
 87183  1  0  0  0  0
 87184  1  0  0  0  0
 87185  1  0  0  0  0
 88186  1  0  0  0  0
100187  1  0  0  0  0
100188  1  0  0  0  0
101189  1  0  0  0  0
101190  1  0  0  0  0
101191  1  0  0  0  0
102192  1  0  0  0  0
102193  1  0  0  0  0
103194  1  0  0  0  0
103195  1  0  0  0  0
103196  1  0  0  0  0
113197  1  0  0  0  0
113198  1  0  0  0  0
114199  1  0  0  0  0
114200  1  0  0  0  0
114201  1  0  0  0  0
118202  1  0  0  0  0
118203  1  0  0  0  0
119204  1  0  0  0  0
119205  1  0  0  0  0
119206  1  0  0  0  0
120207  1  0  0  0  0
126208  1  0  0  0  0
127209  1  0  0  0  0
M  END
