
  xtb     02072210003D
 energy: -402.723161958284 gnorm: 0.000413508618 xtb: 6.4.1 (unknown)
243267  0     0  0            999 V2000
    3.6381   11.4867    3.1748 C   0  0  0  0  0  0  0  0  0  0  0  0
    4.0942   12.2727    2.1285 C   0  0  0  0  0  0  0  0  0  0  0  0
    3.6186   12.2263    0.7515 C   0  0  0  0  0  0  0  0  0  0  0  0
    2.7830   11.4842    0.2652 O   0  0  0  0  0  0  0  0  0  0  0  0
    4.3384   13.3057    0.0370 C   0  0  0  0  0  0  0  0  0  0  0  0
    5.1840   13.9734    0.9406 C   0  0  0  0  0  0  0  0  0  0  0  0
    5.9593   15.0343    0.5041 C   0  0  0  0  0  0  0  0  0  0  0  0
    5.8809   15.4113   -0.8298 C   0  0  0  0  0  0  0  0  0  0  0  0
    5.0512   14.7447   -1.7165 C   0  0  0  0  0  0  0  0  0  0  0  0
    4.9970   15.2985   -3.5241 Br  0  0  0  0  0  0  0  0  0  0  0  0
    4.2585   13.6721   -1.2945 C   0  0  0  0  0  0  0  0  0  0  0  0
    3.2315   12.8409   -2.3849 Cl  0  0  0  0  0  0  0  0  0  0  0  0
    5.0643   13.3265    2.2498 C   0  0  0  0  0  0  0  0  0  0  0  0
    5.7995   13.6702    3.3623 C   0  0  0  0  0  0  0  0  0  0  0  0
    6.6845   14.7637    3.4185 C   0  0  0  0  0  0  0  0  0  0  0  0
    7.4078   15.6485    3.5389 N   0  0  0  0  0  0  0  0  0  0  0  0
    5.8118   12.9723    4.5838 C   0  0  0  0  0  0  0  0  0  0  0  0
    5.9154   12.4446    5.6007 N   0  0  0  0  0  0  0  0  0  0  0  0
    2.7728   10.4048    3.1737 C   0  0  0  0  0  0  0  0  0  0  0  0
    2.4609    9.6548    4.3474 C   0  0  0  0  0  0  0  0  0  0  0  0
    2.7205   10.0454    5.6286 N   0  0  0  0  0  0  0  0  0  0  0  0
    2.6521   11.3927    6.0348 C   0  0  0  0  0  0  0  0  0  0  0  0
    1.7009   12.2519    5.4907 C   0  0  0  0  0  0  0  0  0  0  0  0
    1.6500   13.5707    5.8956 C   0  0  0  0  0  0  0  0  0  0  0  0
    2.5253   14.0610    6.8578 C   0  0  0  0  0  0  0  0  0  0  0  0
    2.4873   15.4953    7.2858 C   0  0  0  0  0  0  0  0  0  0  0  0
    3.4503   13.1864    7.4163 C   0  0  0  0  0  0  0  0  0  0  0  0
    3.5222   11.8684    7.0126 C   0  0  0  0  0  0  0  0  0  0  0  0
    2.9476    9.0649    6.6164 C   0  0  0  0  0  0  0  0  0  0  0  0
    2.3242    9.1556    7.8570 C   0  0  0  0  0  0  0  0  0  0  0  0
    2.5959    8.2216    8.8354 C   0  0  0  0  0  0  0  0  0  0  0  0
    3.4859    7.1784    8.6056 C   0  0  0  0  0  0  0  0  0  0  0  0
    3.8315    6.2153    9.6980 C   0  0  0  0  0  0  0  0  0  0  0  0
    4.0820    7.0819    7.3545 C   0  0  0  0  0  0  0  0  0  0  0  0
    3.8231    8.0124    6.3679 C   0  0  0  0  0  0  0  0  0  0  0  0
    1.8367    8.4457    4.0117 C   0  0  0  0  0  0  0  0  0  0  0  0
    1.2494    7.0910    4.9269 S   0  0  0  0  0  0  0  0  0  0  0  0
    0.6526    6.3337    3.4513 C   0  0  0  0  0  0  0  0  0  0  0  0
    0.8417    7.1407    2.3297 C   0  0  0  0  0  0  0  0  0  0  0  0
    0.4044    6.8713    1.0402 N   0  0  0  0  0  0  0  0  0  0  0  0
   -0.9144    6.4942    0.7777 C   0  0  0  0  0  0  0  0  0  0  0  0
   -1.9439    6.7705    1.6756 C   0  0  0  0  0  0  0  0  0  0  0  0
   -3.2287    6.3389    1.4183 C   0  0  0  0  0  0  0  0  0  0  0  0
   -3.5348    5.6404    0.2560 C   0  0  0  0  0  0  0  0  0  0  0  0
   -4.9316    5.1616    0.0012 C   0  0  0  0  0  0  0  0  0  0  0  0
   -2.5097    5.3927   -0.6485 C   0  0  0  0  0  0  0  0  0  0  0  0
   -1.2170    5.8034   -0.3955 C   0  0  0  0  0  0  0  0  0  0  0  0
    1.2304    7.3339   -0.0062 C   0  0  0  0  0  0  0  0  0  0  0  0
    2.5903    7.0420    0.0201 C   0  0  0  0  0  0  0  0  0  0  0  0
    3.4275    7.5495   -0.9537 C   0  0  0  0  0  0  0  0  0  0  0  0
    2.9329    8.3487   -1.9763 C   0  0  0  0  0  0  0  0  0  0  0  0
    3.8485    8.9436   -3.0002 C   0  0  0  0  0  0  0  0  0  0  0  0
    1.5687    8.6138   -2.0071 C   0  0  0  0  0  0  0  0  0  0  0  0
    0.7224    8.1186   -1.0364 C   0  0  0  0  0  0  0  0  0  0  0  0
    1.5538    8.3146    2.6574 C   0  0  0  0  0  0  0  0  0  0  0  0
    2.0967    9.6580    1.7199 S   0  0  0  0  0  0  0  0  0  0  0  0
    0.1498    5.0090    3.5106 C   0  0  0  0  0  0  0  0  0  0  0  0
   -0.1289    4.2621    4.6455 C   0  0  0  0  0  0  0  0  0  0  0  0
   -0.0750    4.7507    6.0325 C   0  0  0  0  0  0  0  0  0  0  0  0
    0.9232    4.2530    6.8626 C   0  0  0  0  0  0  0  0  0  0  0  0
    1.0069    4.6557    8.1807 C   0  0  0  0  0  0  0  0  0  0  0  0
    0.0906    5.5651    8.6774 C   0  0  0  0  0  0  0  0  0  0  0  0
   -0.9151    6.0474    7.8598 C   0  0  0  0  0  0  0  0  0  0  0  0
   -1.0219    5.6473    6.5357 C   0  0  0  0  0  0  0  0  0  0  0  0
   -2.1729    6.1193    5.6937 C   0  0  0  0  0  0  0  0  0  0  0  0
   -3.2739    5.0583    5.6446 C   0  0  0  0  0  0  0  0  0  0  0  0
   -0.4580    2.9372    4.3228 C   0  0  0  0  0  0  0  0  0  0  0  0
   -0.8979    1.5537    5.2991 S   0  0  0  0  0  0  0  0  0  0  0  0
   -1.0738    0.6197    3.8492 C   0  0  0  0  0  0  0  0  0  0  0  0
   -1.4289   -0.6814    3.4504 C   0  0  0  0  0  0  0  0  0  0  0  0
   -1.8650   -1.8056    4.1845 C   0  0  0  0  0  0  0  0  0  0  0  0
   -2.2103   -3.0082    3.4781 C   0  0  0  0  0  0  0  0  0  0  0  0
   -2.6430   -3.9627    4.2869 N   0  0  0  0  0  0  0  0  0  0  0  0
   -2.6144   -3.4011    5.8054 S   0  0  0  0  0  0  0  0  0  0  0  0
   -2.0485   -1.9172    5.4908 N   0  0  0  0  0  0  0  0  0  0  0  0
   -1.9927   -3.0695    2.0843 C   0  0  0  0  0  0  0  0  0  0  0  0
   -2.0452   -4.1434    1.1803 C   0  0  0  0  0  0  0  0  0  0  0  0
   -2.4431   -5.8291    1.1734 S   0  0  0  0  0  0  0  0  0  0  0  0
   -1.9287   -5.9155   -0.4942 C   0  0  0  0  0  0  0  0  0  0  0  0
   -1.9305   -6.9675   -1.4321 C   0  0  0  0  0  0  0  0  0  0  0  0
   -2.3630   -8.3384   -1.1086 C   0  0  0  0  0  0  0  0  0  0  0  0
   -1.6230   -9.1359   -0.2313 C   0  0  0  0  0  0  0  0  0  0  0  0
   -0.2912   -8.6989    0.3091 C   0  0  0  0  0  0  0  0  0  0  0  0
    0.8071   -8.9003   -0.7364 C   0  0  0  0  0  0  0  0  0  0  0  0
   -2.1145  -10.3914    0.0978 C   0  0  0  0  0  0  0  0  0  0  0  0
   -3.3026  -10.8630   -0.4284 C   0  0  0  0  0  0  0  0  0  0  0  0
   -4.0199  -10.0786   -1.3134 C   0  0  0  0  0  0  0  0  0  0  0  0
   -3.5507   -8.8223   -1.6443 C   0  0  0  0  0  0  0  0  0  0  0  0
   -1.5454   -6.5243   -2.6779 C   0  0  0  0  0  0  0  0  0  0  0  0
   -1.0588   -4.8333   -2.6688 S   0  0  0  0  0  0  0  0  0  0  0  0
   -1.4974   -4.6915   -1.0057 C   0  0  0  0  0  0  0  0  0  0  0  0
   -1.5603   -3.6745   -0.0433 C   0  0  0  0  0  0  0  0  0  0  0  0
   -1.2313   -2.3490    0.0628 N   0  0  0  0  0  0  0  0  0  0  0  0
   -1.5007   -1.9492    1.3592 C   0  0  0  0  0  0  0  0  0  0  0  0
   -1.3388   -0.7125    2.0314 C   0  0  0  0  0  0  0  0  0  0  0  0
   -0.9852    0.5505    1.5778 N   0  0  0  0  0  0  0  0  0  0  0  0
   -0.8128    1.3441    2.6845 C   0  0  0  0  0  0  0  0  0  0  0  0
   -0.4563    2.6689    2.9519 C   0  0  0  0  0  0  0  0  0  0  0  0
   -0.0067    4.0584    2.0356 S   0  0  0  0  0  0  0  0  0  0  0  0
   -1.3625    1.1966    0.3382 C   0  0  0  0  0  0  0  0  0  0  0  0
   -2.7119    1.9027    0.4721 C   0  0  0  0  0  0  0  0  0  0  0  0
   -0.4057   -1.7240   -0.9457 C   0  0  0  0  0  0  0  0  0  0  0  0
   -1.2079   -1.3415   -2.1893 C   0  0  0  0  0  0  0  0  0  0  0  0
   -1.4850   -7.2676   -3.8986 C   0  0  0  0  0  0  0  0  0  0  0  0
   -1.8891   -6.8693   -5.1660 C   0  0  0  0  0  0  0  0  0  0  0  0
   -2.4864   -5.6640   -5.5004 N   0  0  0  0  0  0  0  0  0  0  0  0
   -2.2008   -5.0964   -6.7525 C   0  0  0  0  0  0  0  0  0  0  0  0
   -3.2096   -4.4898   -7.4968 C   0  0  0  0  0  0  0  0  0  0  0  0
   -2.9256   -3.9447   -8.7315 C   0  0  0  0  0  0  0  0  0  0  0  0
   -1.6405   -3.9937   -9.2622 C   0  0  0  0  0  0  0  0  0  0  0  0
   -1.3565   -3.4225  -10.6174 C   0  0  0  0  0  0  0  0  0  0  0  0
   -0.6406   -4.5974   -8.5120 C   0  0  0  0  0  0  0  0  0  0  0  0
   -0.9093   -5.1385   -7.2695 C   0  0  0  0  0  0  0  0  0  0  0  0
   -3.3562   -5.0179   -4.6148 C   0  0  0  0  0  0  0  0  0  0  0  0
   -3.3674   -3.6286   -4.5132 C   0  0  0  0  0  0  0  0  0  0  0  0
   -4.1443   -3.0116   -3.5521 C   0  0  0  0  0  0  0  0  0  0  0  0
   -4.9129   -3.7504   -2.6614 C   0  0  0  0  0  0  0  0  0  0  0  0
   -5.6695   -3.0860   -1.5530 C   0  0  0  0  0  0  0  0  0  0  0  0
   -4.9437   -5.1324   -2.8099 C   0  0  0  0  0  0  0  0  0  0  0  0
   -4.1925   -5.7579   -3.7830 C   0  0  0  0  0  0  0  0  0  0  0  0
   -1.6504   -7.8987   -6.1085 C   0  0  0  0  0  0  0  0  0  0  0  0
   -1.9103   -8.0424   -7.8090 S   0  0  0  0  0  0  0  0  0  0  0  0
   -1.2442   -9.6818   -7.7974 C   0  0  0  0  0  0  0  0  0  0  0  0
   -0.7806  -10.0506   -6.5289 C   0  0  0  0  0  0  0  0  0  0  0  0
   -0.0611  -11.1782   -6.2192 N   0  0  0  0  0  0  0  0  0  0  0  0
   -0.1461  -11.6970   -4.9125 C   0  0  0  0  0  0  0  0  0  0  0  0
    1.0090  -12.0358   -4.2125 C   0  0  0  0  0  0  0  0  0  0  0  0
    0.9151  -12.5549   -2.9388 C   0  0  0  0  0  0  0  0  0  0  0  0
   -0.3210  -12.7472   -2.3291 C   0  0  0  0  0  0  0  0  0  0  0  0
   -0.3949  -13.3418   -0.9574 C   0  0  0  0  0  0  0  0  0  0  0  0
   -1.4660  -12.3957   -3.0308 C   0  0  0  0  0  0  0  0  0  0  0  0
   -1.3864  -11.8774   -4.3092 C   0  0  0  0  0  0  0  0  0  0  0  0
    0.9138  -11.6970   -7.0870 C   0  0  0  0  0  0  0  0  0  0  0  0
    1.6418  -10.8650   -7.9335 C   0  0  0  0  0  0  0  0  0  0  0  0
    2.5720  -11.4031   -8.8012 C   0  0  0  0  0  0  0  0  0  0  0  0
    2.8124  -12.7710   -8.8386 C   0  0  0  0  0  0  0  0  0  0  0  0
    3.8162  -13.3573   -9.7818 C   0  0  0  0  0  0  0  0  0  0  0  0
    2.1041  -13.5906   -7.9654 C   0  0  0  0  0  0  0  0  0  0  0  0
    1.1643  -13.0684   -7.1026 C   0  0  0  0  0  0  0  0  0  0  0  0
   -1.0743   -9.0413   -5.5785 C   0  0  0  0  0  0  0  0  0  0  0  0
   -0.8480   -8.9049   -3.8704 S   0  0  0  0  0  0  0  0  0  0  0  0
   -1.3220  -10.4106   -9.0024 C   0  0  0  0  0  0  0  0  0  0  0  0
   -1.6603   -9.8823  -10.2471 C   0  0  0  0  0  0  0  0  0  0  0  0
   -1.7180  -10.8252  -11.2526 C   0  0  0  0  0  0  0  0  0  0  0  0
   -1.4388  -12.1169  -10.8142 C   0  0  0  0  0  0  0  0  0  0  0  0
   -1.3963  -13.2756  -11.6227 C   0  0  0  0  0  0  0  0  0  0  0  0
   -1.0699  -14.5610  -11.2273 C   0  0  0  0  0  0  0  0  0  0  0  0
   -0.7080  -14.9263   -9.9214 C   0  0  0  0  0  0  0  0  0  0  0  0
   -0.4000  -15.2845   -8.8736 N   0  0  0  0  0  0  0  0  0  0  0  0
   -1.0668  -15.6210  -12.1550 C   0  0  0  0  0  0  0  0  0  0  0  0
   -1.0546  -16.4982  -12.8948 N   0  0  0  0  0  0  0  0  0  0  0  0
   -1.7187  -13.0912  -12.9928 C   0  0  0  0  0  0  0  0  0  0  0  0
   -1.9783  -12.9365  -14.0978 N   0  0  0  0  0  0  0  0  0  0  0  0
   -1.1074  -12.1304   -9.0998 S   0  0  0  0  0  0  0  0  0  0  0  0
    4.0364   11.7362    4.1498 H   0  0  0  0  0  0  0  0  0  0  0  0
    6.6163   15.5706    1.1680 H   0  0  0  0  0  0  0  0  0  0  0  0
    6.4768   16.2360   -1.1891 H   0  0  0  0  0  0  0  0  0  0  0  0
    1.0077   11.8841    4.7485 H   0  0  0  0  0  0  0  0  0  0  0  0
    0.9105   14.2275    5.4607 H   0  0  0  0  0  0  0  0  0  0  0  0
    1.6443   16.0155    6.8383 H   0  0  0  0  0  0  0  0  0  0  0  0
    2.4106   15.5689    8.3693 H   0  0  0  0  0  0  0  0  0  0  0  0
    3.4051   15.9996    6.9844 H   0  0  0  0  0  0  0  0  0  0  0  0
    4.1384   13.5468    8.1657 H   0  0  0  0  0  0  0  0  0  0  0  0
    4.2584   11.2071    7.4410 H   0  0  0  0  0  0  0  0  0  0  0  0
    1.6339    9.9636    8.0481 H   0  0  0  0  0  0  0  0  0  0  0  0
    2.1123    8.3069    9.7973 H   0  0  0  0  0  0  0  0  0  0  0  0
    2.9791    6.0452   10.3511 H   0  0  0  0  0  0  0  0  0  0  0  0
    4.6409    6.6237   10.3047 H   0  0  0  0  0  0  0  0  0  0  0  0
    4.1661    5.2654    9.2891 H   0  0  0  0  0  0  0  0  0  0  0  0
    4.7732    6.2767    7.1536 H   0  0  0  0  0  0  0  0  0  0  0  0
    4.3128    7.9419    5.4078 H   0  0  0  0  0  0  0  0  0  0  0  0
   -1.7334    7.3351    2.5721 H   0  0  0  0  0  0  0  0  0  0  0  0
   -4.0126    6.5577    2.1293 H   0  0  0  0  0  0  0  0  0  0  0  0
   -5.0579    4.8643   -1.0369 H   0  0  0  0  0  0  0  0  0  0  0  0
   -5.1570    4.3020    0.6335 H   0  0  0  0  0  0  0  0  0  0  0  0
   -5.6538    5.9423    0.2322 H   0  0  0  0  0  0  0  0  0  0  0  0
   -2.7236    4.8626   -1.5659 H   0  0  0  0  0  0  0  0  0  0  0  0
   -0.4277    5.5867   -1.0996 H   0  0  0  0  0  0  0  0  0  0  0  0
    2.9854    6.4269    0.8162 H   0  0  0  0  0  0  0  0  0  0  0  0
    4.4839    7.3251   -0.9147 H   0  0  0  0  0  0  0  0  0  0  0  0
    4.7593    8.3578   -3.1007 H   0  0  0  0  0  0  0  0  0  0  0  0
    4.1272    9.9527   -2.6956 H   0  0  0  0  0  0  0  0  0  0  0  0
    3.3598    9.0104   -3.9698 H   0  0  0  0  0  0  0  0  0  0  0  0
    1.1661    9.2363   -2.7926 H   0  0  0  0  0  0  0  0  0  0  0  0
   -0.3315    8.3536   -1.0589 H   0  0  0  0  0  0  0  0  0  0  0  0
    1.6366    3.5478    6.4616 H   0  0  0  0  0  0  0  0  0  0  0  0
    1.7799    4.2544    8.8169 H   0  0  0  0  0  0  0  0  0  0  0  0
    0.1486    5.8898    9.7056 H   0  0  0  0  0  0  0  0  0  0  0  0
   -1.6398    6.7439    8.2571 H   0  0  0  0  0  0  0  0  0  0  0  0
   -2.5779    7.0412    6.1156 H   0  0  0  0  0  0  0  0  0  0  0  0
   -1.8380    6.3288    4.6772 H   0  0  0  0  0  0  0  0  0  0  0  0
   -2.8986    4.1403    5.1986 H   0  0  0  0  0  0  0  0  0  0  0  0
   -3.6254    4.8307    6.6483 H   0  0  0  0  0  0  0  0  0  0  0  0
   -4.1147    5.4118    5.0522 H   0  0  0  0  0  0  0  0  0  0  0  0
   -0.3191   -7.6492    0.6031 H   0  0  0  0  0  0  0  0  0  0  0  0
   -0.0545   -9.2886    1.1967 H   0  0  0  0  0  0  0  0  0  0  0  0
    1.7817   -8.6739   -0.3103 H   0  0  0  0  0  0  0  0  0  0  0  0
    0.8090   -9.9278   -1.0948 H   0  0  0  0  0  0  0  0  0  0  0  0
    0.6441   -8.2473   -1.5905 H   0  0  0  0  0  0  0  0  0  0  0  0
   -1.5552  -11.0052    0.7887 H   0  0  0  0  0  0  0  0  0  0  0  0
   -3.6723  -11.8376   -0.1440 H   0  0  0  0  0  0  0  0  0  0  0  0
   -4.9474  -10.4365   -1.7354 H   0  0  0  0  0  0  0  0  0  0  0  0
   -4.1203   -8.1942   -2.3112 H   0  0  0  0  0  0  0  0  0  0  0  0
   -0.5876    1.9285    0.0899 H   0  0  0  0  0  0  0  0  0  0  0  0
   -1.4308    0.4618   -0.4542 H   0  0  0  0  0  0  0  0  0  0  0  0
   -2.9942    2.3342   -0.4838 H   0  0  0  0  0  0  0  0  0  0  0  0
   -2.6604    2.7038    1.2045 H   0  0  0  0  0  0  0  0  0  0  0  0
   -3.4779    1.1934    0.7800 H   0  0  0  0  0  0  0  0  0  0  0  0
    0.1025   -0.8653   -0.5052 H   0  0  0  0  0  0  0  0  0  0  0  0
    0.3631   -2.4476   -1.2408 H   0  0  0  0  0  0  0  0  0  0  0  0
   -1.5525   -2.2363   -2.6999 H   0  0  0  0  0  0  0  0  0  0  0  0
   -0.5814   -0.7731   -2.8712 H   0  0  0  0  0  0  0  0  0  0  0  0
   -2.0830   -0.7475   -1.9348 H   0  0  0  0  0  0  0  0  0  0  0  0
   -4.2139   -4.4541   -7.1007 H   0  0  0  0  0  0  0  0  0  0  0  0
   -3.7176   -3.4801   -9.3009 H   0  0  0  0  0  0  0  0  0  0  0  0
   -1.7277   -4.0945  -11.3916 H   0  0  0  0  0  0  0  0  0  0  0  0
   -0.2883   -3.2876  -10.7676 H   0  0  0  0  0  0  0  0  0  0  0  0
   -1.8544   -2.4632  -10.7438 H   0  0  0  0  0  0  0  0  0  0  0  0
    0.3669   -4.6401   -8.9003 H   0  0  0  0  0  0  0  0  0  0  0  0
   -0.1172   -5.5905   -6.6899 H   0  0  0  0  0  0  0  0  0  0  0  0
   -2.7447   -3.0412   -5.1717 H   0  0  0  0  0  0  0  0  0  0  0  0
   -4.1345   -1.9334   -3.4800 H   0  0  0  0  0  0  0  0  0  0  0  0
   -6.6347   -3.5641   -1.4004 H   0  0  0  0  0  0  0  0  0  0  0  0
   -5.1072   -3.1672   -0.6211 H   0  0  0  0  0  0  0  0  0  0  0  0
   -5.8275   -2.0312   -1.7646 H   0  0  0  0  0  0  0  0  0  0  0  0
   -5.5627   -5.7249   -2.1515 H   0  0  0  0  0  0  0  0  0  0  0  0
   -4.2369   -6.8292   -3.9088 H   0  0  0  0  0  0  0  0  0  0  0  0
    1.9742  -11.8874   -4.6735 H   0  0  0  0  0  0  0  0  0  0  0  0
    1.8173  -12.8149   -2.4041 H   0  0  0  0  0  0  0  0  0  0  0  0
   -0.0392  -14.3718   -0.9767 H   0  0  0  0  0  0  0  0  0  0  0  0
    0.2377  -12.7870   -0.2664 H   0  0  0  0  0  0  0  0  0  0  0  0
   -1.4149  -13.3351   -0.5850 H   0  0  0  0  0  0  0  0  0  0  0  0
   -2.4355  -12.5333   -2.5769 H   0  0  0  0  0  0  0  0  0  0  0  0
   -2.2853  -11.6211   -4.8508 H   0  0  0  0  0  0  0  0  0  0  0  0
    1.4743   -9.7978   -7.9154 H   0  0  0  0  0  0  0  0  0  0  0  0
    3.1204  -10.7450   -9.4600 H   0  0  0  0  0  0  0  0  0  0  0  0
    3.4282  -14.2679  -10.2339 H   0  0  0  0  0  0  0  0  0  0  0  0
    4.0724  -12.6525  -10.5690 H   0  0  0  0  0  0  0  0  0  0  0  0
    4.7288  -13.6166   -9.2445 H   0  0  0  0  0  0  0  0  0  0  0  0
    2.2724  -14.6563   -7.9783 H   0  0  0  0  0  0  0  0  0  0  0  0
    0.5999  -13.7215   -6.4560 H   0  0  0  0  0  0  0  0  0  0  0  0
   -1.8392   -8.8315  -10.3908 H   0  0  0  0  0  0  0  0  0  0  0  0
   -1.9427  -10.6018  -12.2808 H   0  0  0  0  0  0  0  0  0  0  0  0
  1  2  2  0  0  0  0
  2  3  1  0  0  0  0
  3  4  2  0  0  0  0
  3  5  1  0  0  0  0
  5  6  2  0  0  0  0
  6  7  1  0  0  0  0
  7  8  2  0  0  0  0
  8  9  1  0  0  0  0
  9 10  1  0  0  0  0
  9 11  2  0  0  0  0
 11 12  1  0  0  0  0
  6 13  1  0  0  0  0
 13 14  2  0  0  0  0
 14 15  1  0  0  0  0
 15 16  3  0  0  0  0
 14 17  1  0  0  0  0
 17 18  3  0  0  0  0
  1 19  1  0  0  0  0
 19 20  2  0  0  0  0
 20 21  1  0  0  0  0
 21 22  1  0  0  0  0
 22 23  2  0  0  0  0
 23 24  1  0  0  0  0
 24 25  2  0  0  0  0
 25 26  1  0  0  0  0
 25 27  1  0  0  0  0
 27 28  2  0  0  0  0
 21 29  1  0  0  0  0
 29 30  2  0  0  0  0
 30 31  1  0  0  0  0
 31 32  2  0  0  0  0
 32 33  1  0  0  0  0
 32 34  1  0  0  0  0
 34 35  2  0  0  0  0
 20 36  1  0  0  0  0
 36 37  1  0  0  0  0
 37 38  1  0  0  0  0
 38 39  2  0  0  0  0
 39 40  1  0  0  0  0
 40 41  1  0  0  0  0
 41 42  2  0  0  0  0
 42 43  1  0  0  0  0
 43 44  2  0  0  0  0
 44 45  1  0  0  0  0
 44 46  1  0  0  0  0
 46 47  2  0  0  0  0
 40 48  1  0  0  0  0
 48 49  2  0  0  0  0
 49 50  1  0  0  0  0
 50 51  2  0  0  0  0
 51 52  1  0  0  0  0
 51 53  1  0  0  0  0
 53 54  2  0  0  0  0
 39 55  1  0  0  0  0
 55 56  1  0  0  0  0
 38 57  1  0  0  0  0
 57 58  2  0  0  0  0
 58 59  1  0  0  0  0
 59 60  2  0  0  0  0
 60 61  1  0  0  0  0
 61 62  2  0  0  0  0
 62 63  1  0  0  0  0
 63 64  2  0  0  0  0
 64 65  1  0  0  0  0
 65 66  1  0  0  0  0
 58 67  1  0  0  0  0
 67 68  1  0  0  0  0
 68 69  1  0  0  0  0
 69 70  1  0  0  0  0
 70 71  1  0  0  0  0
 71 72  1  0  0  0  0
 72 73  2  0  0  0  0
 73 74  1  0  0  0  0
 74 75  1  0  0  0  0
 72 76  1  0  0  0  0
 76 77  1  0  0  0  0
 77 78  1  0  0  0  0
 78 79  1  0  0  0  0
 79 80  1  0  0  0  0
 80 81  1  0  0  0  0
 81 82  2  0  0  0  0
 82 83  1  0  0  0  0
 83 84  1  0  0  0  0
 82 85  1  0  0  0  0
 85 86  2  0  0  0  0
 86 87  1  0  0  0  0
 87 88  2  0  0  0  0
 80 89  2  0  0  0  0
 89 90  1  0  0  0  0
 90 91  1  0  0  0  0
 91 92  1  0  0  0  0
 92 93  1  0  0  0  0
 93 94  1  0  0  0  0
 94 95  1  0  0  0  0
 95 96  1  0  0  0  0
 96 97  1  0  0  0  0
 97 98  1  0  0  0  0
 98 99  1  0  0  0  0
 96100  1  0  0  0  0
100101  1  0  0  0  0
 93102  1  0  0  0  0
102103  1  0  0  0  0
 89104  1  0  0  0  0
104105  2  0  0  0  0
105106  1  0  0  0  0
106107  1  0  0  0  0
107108  2  0  0  0  0
108109  1  0  0  0  0
109110  2  0  0  0  0
110111  1  0  0  0  0
110112  1  0  0  0  0
112113  2  0  0  0  0
106114  1  0  0  0  0
114115  2  0  0  0  0
115116  1  0  0  0  0
116117  2  0  0  0  0
117118  1  0  0  0  0
117119  1  0  0  0  0
119120  2  0  0  0  0
105121  1  0  0  0  0
121122  1  0  0  0  0
122123  1  0  0  0  0
123124  2  0  0  0  0
124125  1  0  0  0  0
125126  1  0  0  0  0
126127  2  0  0  0  0
127128  1  0  0  0  0
128129  2  0  0  0  0
129130  1  0  0  0  0
129131  1  0  0  0  0
131132  2  0  0  0  0
125133  1  0  0  0  0
133134  2  0  0  0  0
134135  1  0  0  0  0
135136  2  0  0  0  0
136137  1  0  0  0  0
136138  1  0  0  0  0
138139  2  0  0  0  0
124140  1  0  0  0  0
140141  1  0  0  0  0
123142  1  0  0  0  0
142143  2  0  0  0  0
143144  1  0  0  0  0
144145  2  0  0  0  0
145146  1  0  0  0  0
146147  2  0  0  0  0
147148  1  0  0  0  0
148149  3  0  0  0  0
147150  1  0  0  0  0
150151  3  0  0  0  0
146152  1  0  0  0  0
152153  3  0  0  0  0
145154  1  0  0  0  0
 13  2  1  0  0  0  0
 56 19  1  0  0  0  0
 99 57  1  0  0  0  0
141104  1  0  0  0  0
154142  1  0  0  0  0
 11  5  1  0  0  0  0
 28 22  1  0  0  0  0
 35 29  1  0  0  0  0
 55 36  2  0  0  0  0
 64 59  1  0  0  0  0
 98 67  2  0  0  0  0
113107  1  0  0  0  0
120114  1  0  0  0  0
140121  2  0  0  0  0
 47 41  1  0  0  0  0
 54 48  1  0  0  0  0
 97 69  2  0  0  0  0
132126  1  0  0  0  0
139133  1  0  0  0  0
 95 70  2  0  0  0  0
 75 71  2  0  0  0  0
 94 76  2  0  0  0  0
 92 77  2  0  0  0  0
 91 79  2  0  0  0  0
 88 81  1  0  0  0  0
  1155  1  0  0  0  0
  7156  1  0  0  0  0
  8157  1  0  0  0  0
 23158  1  0  0  0  0
 24159  1  0  0  0  0
 26160  1  0  0  0  0
 26161  1  0  0  0  0
 26162  1  0  0  0  0
 27163  1  0  0  0  0
 28164  1  0  0  0  0
 30165  1  0  0  0  0
 31166  1  0  0  0  0
 33167  1  0  0  0  0
 33168  1  0  0  0  0
 33169  1  0  0  0  0
 34170  1  0  0  0  0
 35171  1  0  0  0  0
 42172  1  0  0  0  0
 43173  1  0  0  0  0
 45174  1  0  0  0  0
 45175  1  0  0  0  0
 45176  1  0  0  0  0
 46177  1  0  0  0  0
 47178  1  0  0  0  0
 49179  1  0  0  0  0
 50180  1  0  0  0  0
 52181  1  0  0  0  0
 52182  1  0  0  0  0
 52183  1  0  0  0  0
 53184  1  0  0  0  0
 54185  1  0  0  0  0
 60186  1  0  0  0  0
 61187  1  0  0  0  0
 62188  1  0  0  0  0
 63189  1  0  0  0  0
 65190  1  0  0  0  0
 65191  1  0  0  0  0
 66192  1  0  0  0  0
 66193  1  0  0  0  0
 66194  1  0  0  0  0
 83195  1  0  0  0  0
 83196  1  0  0  0  0
 84197  1  0  0  0  0
 84198  1  0  0  0  0
 84199  1  0  0  0  0
 85200  1  0  0  0  0
 86201  1  0  0  0  0
 87202  1  0  0  0  0
 88203  1  0  0  0  0
100204  1  0  0  0  0
100205  1  0  0  0  0
101206  1  0  0  0  0
101207  1  0  0  0  0
101208  1  0  0  0  0
102209  1  0  0  0  0
102210  1  0  0  0  0
103211  1  0  0  0  0
103212  1  0  0  0  0
103213  1  0  0  0  0
108214  1  0  0  0  0
109215  1  0  0  0  0
111216  1  0  0  0  0
111217  1  0  0  0  0
111218  1  0  0  0  0
112219  1  0  0  0  0
113220  1  0  0  0  0
115221  1  0  0  0  0
116222  1  0  0  0  0
118223  1  0  0  0  0
118224  1  0  0  0  0
118225  1  0  0  0  0
119226  1  0  0  0  0
120227  1  0  0  0  0
127228  1  0  0  0  0
128229  1  0  0  0  0
130230  1  0  0  0  0
130231  1  0  0  0  0
130232  1  0  0  0  0
131233  1  0  0  0  0
132234  1  0  0  0  0
134235  1  0  0  0  0
135236  1  0  0  0  0
137237  1  0  0  0  0
137238  1  0  0  0  0
137239  1  0  0  0  0
138240  1  0  0  0  0
139241  1  0  0  0  0
143242  1  0  0  0  0
144243  1  0  0  0  0
M  END
