249

C          7.83480       -3.19290       -9.96660
C          8.94770       -3.98460      -10.12730
C          9.45500       -4.26120      -11.48370
O          9.17080       -3.67990      -12.50760
C         10.34210       -5.44400      -11.32460
C         10.44190       -5.77110       -9.95880
C         11.18500       -6.86560       -9.55340
C         11.82420       -7.62710      -10.52150
C         11.73630       -7.29590      -11.86410
Br        12.64040       -8.36670      -13.13390
C         10.99100       -6.19140      -12.29250
Cl        10.88570       -5.78100      -13.95240
C          9.69580       -4.77510       -9.19060
C          9.90380       -4.48270       -7.86170
C         10.64260       -5.29240       -6.98390
N         11.21020       -5.94460       -6.22700
C          9.45880       -3.27660       -7.28490
N          9.17270       -2.26470       -6.82180
C          6.90760       -3.21500       -8.92360
C          5.76120       -2.39860       -8.80910
N          5.53530       -1.27310       -9.54150
C          6.59100       -0.44610       -9.98390
C          6.51380        0.15800      -11.23430
C          7.53420        0.98290      -11.66580
C          8.64720        1.22280      -10.86900
C          9.76470        2.09060      -11.35740
C          8.70670        0.62020       -9.61700
C          7.69210       -0.20070       -9.16860
C          4.21090       -0.85220       -9.77030
C          3.25170       -1.77420      -10.18200
C          1.95420       -1.36460      -10.40940
C          1.58210       -0.03470      -10.24230
C          0.16640        0.38830      -10.48300
C          2.55100        0.87850       -9.84540
C          3.85290        0.48170       -9.61000
C          4.89930       -2.87870       -7.79890
S          3.38470       -2.35330       -7.14150
C          3.43880       -3.63710       -5.94320
C          4.61550       -4.37400       -5.99530
N          5.04100       -5.29400       -5.05890
C          4.77080       -5.12620       -3.69350
C          4.58260       -3.86500       -3.13390
C          4.17570       -3.73970       -1.81990
C          3.97600       -4.85610       -1.01920
C          3.43400       -4.72810        0.37100
C          4.27750       -6.10410       -1.55280
C          4.67330       -6.24360       -2.86790
C          5.99200       -6.24990       -5.47180
C          7.20110       -6.38100       -4.79530
C          8.16330       -7.25130       -5.26500
C          7.94650       -8.00790       -6.41140
C          9.00990       -8.92820       -6.92630
C          6.72100       -7.89860       -7.05700
C          5.74830       -7.03150       -6.59680
C          5.39880       -3.96950       -7.10110
S          6.91480       -4.50480       -7.71740
C          2.38890       -3.79640       -4.98510
C          1.82270       -4.97580       -4.54360
C          1.98200       -6.29360       -5.17240
C          2.27110       -7.37000       -4.33380
C          2.46650       -8.64000       -4.83510
C          2.34110       -8.86240       -6.19510
C          1.98410       -7.81640       -7.02340
C          1.79740       -6.52470       -6.54140
C          1.30970       -5.47480       -7.50550
C          2.23180       -5.29300       -8.71120
C          1.04840       -4.75550       -3.38320
S          0.19820       -5.83380       -2.30250
C         -0.21630       -4.47760       -1.30760
C         -0.83490       -4.20490       -0.07660
C         -1.37020       -5.07780        0.89420
C         -1.83890       -4.53060        2.13380
N         -2.27060       -5.46320        2.96850
S         -2.10260       -6.90710        2.25400
N         -1.47100       -6.39720        0.85200
C         -1.82840       -3.13040        2.30780
C         -2.31440       -2.33690        3.35960
S         -3.09540       -2.51980        4.89650
C         -3.22510       -0.77910        5.00850
C         -3.85680        0.06930        5.93940
C         -4.54050       -0.42470        7.14740
C         -3.81690       -0.98730        8.20220
C         -2.31510       -0.98770        8.21940
C         -1.78160        0.37900        8.65230
C         -4.51530       -1.50620        9.28340
C         -5.89650       -1.47300        9.33330
C         -6.60730       -0.89830        8.29490
C         -5.92840       -0.38090        7.20900
C         -3.82620        1.38170        5.51780
S         -2.89010        1.59210        4.04390
C         -2.68010       -0.11380        3.91040
C         -2.15200       -1.00740        2.97020
N         -1.57860       -0.94800        1.73030
C         -1.34760       -2.24340        1.30060
C         -0.76030       -2.79620        0.12800
N         -0.07370       -2.24870       -0.94190
C          0.24780       -3.26020       -1.80430
C          0.98080       -3.42000       -2.98710
S          1.86720       -2.39730       -4.05660
C          0.49550       -0.94080       -1.16200
C         -0.24540       -0.17040       -2.25510
C         -1.54880        0.32240        1.04370
C         -0.41620        1.21910        1.54370
C         -4.43550        2.52170        6.12670
C         -5.09190        3.57970        5.50420
N         -5.36430        3.69780        4.15240
C         -5.36730        4.97410        3.55820
C         -6.33090        5.29030        2.60580
C         -6.31820        6.52630        1.99070
C         -5.35790        7.47860        2.31040
C         -5.31700        8.80120        1.61240
C         -4.41310        7.16090        3.28050
C         -4.40890        5.92560        3.89770
C         -5.59630        2.56800        3.35960
C         -5.11460        2.50190        2.05340
C         -5.22650        1.32920        1.33200
C         -5.80260        0.19260        1.88600
C         -5.81980       -1.11080        1.14850
C         -6.34670        0.28920        3.16210
C         -6.26350        1.46240        3.88260
C         -5.50530        4.53490        6.46270
S         -6.29660        6.06360        6.34610
C         -6.18840        6.27880        8.09780
C         -5.55560        5.18830        8.72360
N         -5.25670        5.11870       10.05060
C         -5.02980        3.86750       10.65600
C         -3.93330        3.68630       11.49460
C         -3.72190        2.46380       12.09650
C         -4.59090        1.39730       11.88510
C         -4.34490        0.08360       12.55920
C         -5.68540        1.59080       11.05370
C         -5.90950        2.81050       10.44440
C         -5.02590        6.27360       10.83350
C         -4.24040        7.31580       10.35210
C         -4.03160        8.43280       11.13580
C         -4.57810        8.53180       12.41050
C         -4.37400        9.75980       13.24190
C         -5.33580        7.46990       12.88990
C         -5.56050        6.34910       12.11470
C         -5.19380        4.20690        7.77450
S         -4.39340        2.67770        7.87370
C         -6.80240        7.36340        8.73310
C         -7.22540        8.54410        8.17810
C         -8.27460        9.34130        8.85010
O         -8.70970        9.18040        9.97050
C         -8.70070       10.34400        7.84780
C         -9.72910       11.26380        7.90770
C         -9.96020       12.07510        6.80670
C         -9.16580       11.94670        5.67450
Cl        -9.48550       12.94820        4.30780
C         -8.11770       11.03380        5.60350
C         -7.88630       10.23320        6.70660
C         -6.86410        9.21460        6.95870
C         -5.65430        9.14810        6.30930
C         -4.56600        8.37660        6.75810
N         -3.62800        7.82300        7.12550
C         -5.31160        9.95450        5.21080
N         -4.97110       10.59270        4.31760
H          7.58370       -2.58010      -10.82570
H         11.26550       -7.13860       -8.51450
H         12.40310       -8.49060      -10.23180
H          5.65710       -0.02770      -11.86540
H          7.46730        1.44120      -12.64140
H         10.30340        2.53610      -10.52470
H          9.38960        2.88170      -12.00270
H         10.47050        1.49270      -11.93490
H          9.55680        0.79970       -8.97590
H          7.75920       -0.65620       -8.19220
H          3.53650       -2.80530      -10.33290
H          1.21650       -2.08510      -10.73220
H         -0.48600       -0.03730       -9.72080
H         -0.18000        0.03300      -11.45200
H          0.07150        1.47050      -10.45210
H          2.28350        1.91650       -9.71280
H          4.59660        1.19890       -9.29650
H          4.75330       -2.98050       -3.72970
H          4.00910       -2.75240       -1.41220
H          2.36560       -4.95170        0.37350
H          3.56970       -3.71880        0.75290
H          3.92140       -5.42950        1.04450
H          4.17650       -6.98400       -0.93400
H          4.88780       -7.22010       -3.27530
H          7.38750       -5.77890       -3.91820
H          9.11020       -7.32330       -4.75140
H          8.98660       -8.97830       -8.01310
H          9.99180       -8.59010       -6.60420
H          8.85490       -9.93580       -6.53940
H          6.52760       -8.49210       -7.93900
H          4.79930       -6.94760       -7.10640
H          2.35280       -7.19560       -3.27310
H          2.70620       -9.45300       -4.16660
H          2.49330       -9.84970       -6.60500
H          1.82940       -8.00830       -8.07520
H          0.32360       -5.78360       -7.86710
H          1.18350       -4.51900       -6.99850
H          1.88830       -4.45650       -9.31480
H          3.25170       -5.09430       -8.39100
H          2.24270       -6.18270       -9.33560
H         -1.91970       -1.23210        7.23290
H         -1.96460       -1.74870        8.91910
H         -2.21200        0.67100        9.60820
H         -0.69870        0.35010        8.74790
H         -2.04330        1.13910        7.92030
H         -3.96160       -1.95380       10.09600
H         -6.41870       -1.90100       10.17710
H         -7.68650       -0.86310        8.32340
H         -6.47780        0.04510        6.38380
H          1.53210       -1.08670       -1.48660
H          0.51660       -0.39290       -0.22460
H         -0.10050       -0.65510       -3.21680
H         -1.31490       -0.12740       -2.05990
H          0.14230        0.84240       -2.31920
H         -1.48710        0.15230       -0.02710
H         -2.50170        0.82400        1.24840
H         -0.59910        1.51070        2.57420
H          0.54590        0.71230        1.50570
H         -0.36500        2.11890        0.93720
H         -7.08360        4.55920        2.34840
H         -7.07050        6.75470        1.24930
H         -5.15650        9.60640        2.32730
H         -4.49080        8.82130        0.90120
H         -6.24080        8.98480        1.06950
H         -3.66210        7.88970        3.54840
H         -3.65610        5.69150        4.63650
H         -4.62250        3.36150        1.62360
H         -4.83740        1.29160        0.32380
H         -6.78390       -1.60380        1.25490
H         -5.05950       -1.77920        1.55670
H         -5.61340       -0.96560        0.09080
H         -6.83540       -0.57050        3.59760
H         -6.70170        1.53490        4.86680
H         -3.25100        4.50620       11.66220
H         -2.86480        2.33050       12.74070
H         -4.38150        0.20170       13.64180
H         -3.35700       -0.29540       12.30150
H         -5.08940       -0.64980       12.26360
H         -6.37600        0.77990       10.87940
H         -6.77410        2.95210        9.81250
H         -3.80220        7.25250        9.36740
H         -3.42380        9.23840       10.75070
H         -4.29710        9.50680       14.29700
H         -5.22370       10.43230       13.11950
H         -3.47570       10.29130       12.93750
H         -5.76310        7.52380       13.88030
H         -6.15670        5.53130       12.49250
H         -7.07550        7.22530        9.77410
H        -10.33630       11.34230        8.79600
H        -10.75570       12.80340        6.81870
H         -7.52600       10.95830        4.70590
