200

C         -0.13260        9.48120        5.12840
C          0.30850       10.15580        6.25550
C          1.43500        9.70230        7.07480
O          2.12470        8.71480        6.90490
C          1.64650       10.77490        8.07870
C          0.71820       11.80760        7.85950
C          0.72390       12.92960        8.66850
C          1.64910       12.99880        9.70170
C          2.54890       11.97020        9.92550
Br         3.76370       12.10610       11.36960
C          2.56670       10.83490        9.10800
Cl         3.66660        9.55050        9.39070
C         -0.14300       11.42270        6.74080
C         -1.28950       12.07630        6.35190
C         -1.76620       13.25440        6.95230
N         -2.20960       14.20550        7.42090
C         -2.17180       11.59130        5.36760
N         -2.94930       11.23770        4.59900
C          0.00070        8.11870        4.88960
C          0.20670        7.02340        5.76500
N          0.10300        7.03250        7.12070
C          0.72030        6.00520        7.87370
C          2.06510        5.70580        7.69310
C          2.65800        4.72300        8.46270
C          1.92980        4.02220        9.41500
C          2.56910        2.97270       10.27010
C          0.58250        4.32920        9.58150
C         -0.02150        5.31180        8.82450
C         -0.62650        7.99450        7.83390
C         -0.13690        8.46810        9.04950
C         -0.82390        9.44700        9.74330
C         -2.01120        9.97420        9.25390
C         -2.73140       11.07210        9.97010
C         -2.52000        9.45690        8.06400
C         -1.84470        8.48200        7.36140
C          0.40130        5.83550        5.02350
S          0.76070        4.19820        5.45520
C          0.65750        3.70810        3.77140
C          0.39800        4.77400        2.91590
N          0.32920        4.73150        1.53260
C          1.13940        3.87260        0.78510
C          0.66230        3.28720       -0.38620
C          1.41980        2.33880       -1.04620
C          2.65470        1.93280       -0.55610
C          3.42910        0.82830       -1.20740
C          3.15280        2.57020        0.57560
C          2.41920        3.53960        1.22630
C         -0.58960        5.57990        0.88780
C         -0.22860        6.26160       -0.26970
C         -1.13230        7.10440       -0.88610
C         -2.40640        7.29640       -0.36610
C         -3.37630        8.23570       -1.01310
C         -2.75980        6.60610        0.78770
C         -1.86980        5.75320        1.40790
C          0.24710        5.97410        3.65050
S         -0.11780        7.59680        3.19920
C          0.86380        2.33530        3.43670
C          1.76780        1.45580        3.99520
C          2.72970        1.77680        5.06320
C          3.75120        2.68270        4.80120
C          4.72170        2.94980        5.74700
C          4.68240        2.29830        6.96680
C          3.66040        1.40710        7.23690
C          2.67050        1.13570        6.30310
C          1.53710        0.21840        6.66350
C          0.28410        1.02230        7.01560
C          1.75340        0.21700        3.32600
S          2.77390       -1.19520        3.45600
C          1.95520       -1.87740        2.09060
C          2.06610       -2.98610        1.23630
C          3.02090       -4.02480        1.17020
C          3.01360       -4.90530        0.03550
N          4.00900       -5.77740        0.06650
S          4.87530       -5.52080        1.40950
N          4.01810       -4.28240        2.00200
C          1.97670       -4.78670       -0.91560
C          1.67270       -5.53070       -2.06820
S          2.33530       -6.82680       -3.00460
C          0.96410       -6.71120       -4.08290
C          0.61670       -7.40520       -5.24910
C          1.40990       -8.51200       -5.81340
C          2.33620       -8.29680       -6.83460
C          2.58380       -6.92370       -7.39070
C          3.73290       -6.24010       -6.64710
C          3.06320       -9.37980       -7.30810
C          2.87900      -10.64740       -6.79010
C          1.95740      -10.85360       -5.77850
C          1.22770       -9.78750       -5.29050
C         -0.58190       -6.94790       -5.77380
S         -1.28060       -5.64460       -4.81160
C          0.04700       -5.71970       -3.71150
C          0.45880       -5.04220       -2.56130
N          0.00480       -4.01380       -1.77200
C          0.94090       -3.82360       -0.76720
C          1.06220       -2.83490        0.23970
N          0.39230       -1.64600        0.46580
C          0.93440       -1.06830        1.58270
C          0.82340        0.13670        2.28850
S         -0.10310        1.58710        2.17150
C         -0.40900       -0.85180       -0.43920
C         -1.83610       -0.65790        0.07270
C         -1.42000       -3.76340       -1.72430
C         -2.17120       -4.96530       -1.15120
C         -1.24790       -7.38840       -6.94030
C         -2.46070       -6.90970       -7.42180
C         -2.85700       -7.50810       -8.60700
C         -4.07970       -7.13990       -9.32070
C         -4.05730       -6.84780      -10.68330
C         -5.22170       -6.50430      -11.34310
C         -6.42090       -6.44650      -10.65360
C         -6.44940       -6.71800       -9.29560
C         -5.28680       -7.05640       -8.63000
C         -1.94700       -8.49350       -9.05210
S         -0.57160       -8.60210       -7.97200
C         -2.19680       -9.32020      -10.14610
C         -1.41640      -10.30200      -10.72060
C         -0.05890      -10.65970      -10.31510
O          0.60480      -10.18410       -9.41130
C          0.37250      -11.72950      -11.24110
C         -0.66560      -12.00480      -12.14920
C         -0.49230      -12.97940      -13.11820
C          0.71450      -13.66340      -13.16580
C          1.73340      -13.38710      -12.26810
Br         3.35380      -14.35340      -12.38480
C          1.57880      -12.40700      -11.28170
Cl         2.82940      -12.05710      -10.16850
C         -1.79580      -11.12370      -11.84540
C         -2.98560      -11.11300      -12.53180
C         -4.09000      -10.27610      -12.26990
N         -5.03750       -9.63860      -12.14040
C         -3.27570      -11.95560      -13.62450
N         -3.57780      -12.60810      -14.51990
H         -0.58550       10.05620        4.32970
H          0.03590       13.74430        8.51570
H          1.66960       13.86350       10.34690
H          2.63880        6.27340        6.97750
H          3.70580        4.50530        8.32390
H          2.04250        2.02510       10.16680
H          2.52340        3.26320       11.31930
H          3.60980        2.82870        9.99490
H          0.00180        3.79220       10.31760
H         -1.06620        5.54920        8.96410
H          0.79020        8.07380        9.43750
H         -0.41920        9.81600       10.67450
H         -2.69920       11.99070        9.38280
H         -2.27920       11.26820       10.93910
H         -3.77890       10.81220       10.11490
H         -3.45740        9.83170        7.67960
H         -2.25850        8.09830        6.44100
H         -0.31600        3.55550       -0.75570
H          1.03200        1.89330       -1.95200
H          4.46170        1.12820       -1.37570
H          2.98620        0.54840       -2.16030
H          3.44170       -0.05150       -0.56170
H          4.12820        2.29760        0.95230
H          2.82220        4.04100        2.09320
H          0.76300        6.13020       -0.67720
H         -0.83670        7.63120       -1.78180
H         -3.46040        9.14750       -0.42170
H         -4.36610        7.78690       -1.07340
H         -3.05010        8.50610       -2.01410
H         -3.74800        6.73720        1.20380
H         -2.16110        5.21280        2.29720
H          3.79160        3.16500        3.83630
H          5.51090        3.65300        5.52660
H          5.45080        2.48050        7.70430
H          3.63140        0.89960        8.19000
H          1.82720       -0.39010        7.52190
H          1.31080       -0.45600        5.83660
H         -0.07780        1.56470        6.14550
H         -0.50560        0.36010        7.36290
H          0.50370        1.74860        7.79560
H          2.83740       -7.00540       -8.44930
H          1.68310       -6.31230       -7.30520
H          3.49600       -6.13590       -5.59090
H          3.91840       -5.25130       -7.06080
H          4.64240       -6.82970       -6.73380
H          3.77990       -9.22170       -8.10100
H          3.45400      -11.47740       -7.17340
H          1.80620      -11.84180       -5.37030
H          0.50400       -9.93660       -4.50150
H          0.06450        0.13370       -0.52100
H         -0.38880       -1.31340       -1.42730
H         -1.82920       -0.03990        0.96620
H         -2.43280       -0.15780       -0.68490
H         -2.30810       -1.60510        0.32520
H         -1.62170       -2.89870       -1.10370
H         -1.76090       -3.56460       -2.74520
H         -3.23380       -4.74400       -1.10380
H         -2.02920       -5.84460       -1.77370
H         -1.81360       -5.18820       -0.14800
H         -3.01810       -6.13080       -6.92990
H         -3.11820       -6.86790      -11.21790
H         -5.19330       -6.28600      -12.39960
H         -7.33110       -6.18850      -11.17300
H         -7.38240       -6.67040       -8.75360
H         -5.30970       -7.28480       -7.57420
H         -3.16720       -9.15540      -10.59840
H         -1.26370      -13.21840      -13.83060
H          0.86830      -14.42590      -13.91380
