
  xtb     02072210323D
 energy: -408.690808078768 gnorm: 0.000779951819 xtb: 6.4.1 (unknown)
246271  0     0  0            999 V2000
    3.3963    5.3957   10.5991 C   0  0  0  0  0  0  0  0  0  0  0  0
    4.0626    5.0247   11.7580 C   0  0  0  0  0  0  0  0  0  0  0  0
    4.7908    3.7624   11.8980 C   0  0  0  0  0  0  0  0  0  0  0  0
    4.9168    2.8813   11.0681 O   0  0  0  0  0  0  0  0  0  0  0  0
    5.2337    3.7181   13.3139 C   0  0  0  0  0  0  0  0  0  0  0  0
    4.7755    4.8677   13.9802 C   0  0  0  0  0  0  0  0  0  0  0  0
    5.0570    5.0504   15.3221 C   0  0  0  0  0  0  0  0  0  0  0  0
    5.8115    4.0880   15.9798 C   0  0  0  0  0  0  0  0  0  0  0  0
    6.2779    2.9672   15.3135 C   0  0  0  0  0  0  0  0  0  0  0  0
    7.3318    1.7078   16.2537 Br  0  0  0  0  0  0  0  0  0  0  0  0
    5.9895    2.7590   13.9607 C   0  0  0  0  0  0  0  0  0  0  0  0
    6.5789    1.3817   13.1268 Cl  0  0  0  0  0  0  0  0  0  0  0  0
    4.0635    5.7063   13.0146 C   0  0  0  0  0  0  0  0  0  0  0  0
    3.6352    6.9942   13.2401 C   0  0  0  0  0  0  0  0  0  0  0  0
    3.0922    7.8256   12.2418 C   0  0  0  0  0  0  0  0  0  0  0  0
    2.6721    8.5653   11.4694 N   0  0  0  0  0  0  0  0  0  0  0  0
    3.7694    7.6666   14.4670 C   0  0  0  0  0  0  0  0  0  0  0  0
    3.8729    8.2684   15.4408 N   0  0  0  0  0  0  0  0  0  0  0  0
    3.7111    4.9761    9.3138 C   0  0  0  0  0  0  0  0  0  0  0  0
    4.9054    4.4383    8.7686 C   0  0  0  0  0  0  0  0  0  0  0  0
    6.1389    4.4448    9.3368 N   0  0  0  0  0  0  0  0  0  0  0  0
    7.1357    3.5764    8.8251 C   0  0  0  0  0  0  0  0  0  0  0  0
    8.3439    4.1022    8.3846 C   0  0  0  0  0  0  0  0  0  0  0  0
    9.3070    3.2611    7.8619 C   0  0  0  0  0  0  0  0  0  0  0  0
    9.0901    1.8911    7.7753 C   0  0  0  0  0  0  0  0  0  0  0  0
   10.1181    0.9869    7.1691 C   0  0  0  0  0  0  0  0  0  0  0  0
    7.8875    1.3763    8.2480 C   0  0  0  0  0  0  0  0  0  0  0  0
    6.9138    2.2049    8.7695 C   0  0  0  0  0  0  0  0  0  0  0  0
    6.5204    5.3130   10.3693 C   0  0  0  0  0  0  0  0  0  0  0  0
    7.3527    4.8446   11.3836 C   0  0  0  0  0  0  0  0  0  0  0  0
    7.6998    5.6708   12.4365 C   0  0  0  0  0  0  0  0  0  0  0  0
    7.2384    6.9782   12.5041 C   0  0  0  0  0  0  0  0  0  0  0  0
    7.5609    7.8613   13.6674 C   0  0  0  0  0  0  0  0  0  0  0  0
    6.4548    7.4554   11.4550 C   0  0  0  0  0  0  0  0  0  0  0  0
    6.0988    6.6418   10.4008 C   0  0  0  0  0  0  0  0  0  0  0  0
    4.6780    3.9872    7.4497 C   0  0  0  0  0  0  0  0  0  0  0  0
    5.6761    3.2181    6.2615 S   0  0  0  0  0  0  0  0  0  0  0  0
    4.3679    3.2532    5.1022 C   0  0  0  0  0  0  0  0  0  0  0  0
    3.2404    3.9045    5.5923 C   0  0  0  0  0  0  0  0  0  0  0  0
    2.1229    4.2242    4.8373 N   0  0  0  0  0  0  0  0  0  0  0  0
    0.8594    4.1750    5.4440 C   0  0  0  0  0  0  0  0  0  0  0  0
    0.5617    3.1680    6.3580 C   0  0  0  0  0  0  0  0  0  0  0  0
   -0.6740    3.1321    6.9736 C   0  0  0  0  0  0  0  0  0  0  0  0
   -1.6445    4.0838    6.6893 C   0  0  0  0  0  0  0  0  0  0  0  0
   -2.9766    4.0566    7.3738 C   0  0  0  0  0  0  0  0  0  0  0  0
   -1.3413    5.0803    5.7678 C   0  0  0  0  0  0  0  0  0  0  0  0
   -0.1071    5.1345    5.1535 C   0  0  0  0  0  0  0  0  0  0  0  0
    2.2721    4.6405    3.5063 C   0  0  0  0  0  0  0  0  0  0  0  0
    3.3872    5.3759    3.1119 C   0  0  0  0  0  0  0  0  0  0  0  0
    3.5730    5.7045    1.7840 C   0  0  0  0  0  0  0  0  0  0  0  0
    2.6626    5.3138    0.8112 C   0  0  0  0  0  0  0  0  0  0  0  0
    2.9108    5.5969   -0.6382 C   0  0  0  0  0  0  0  0  0  0  0  0
    1.5270    4.6246    1.2199 C   0  0  0  0  0  0  0  0  0  0  0  0
    1.3271    4.2885    2.5434 C   0  0  0  0  0  0  0  0  0  0  0  0
    3.4197    4.2824    6.9411 C   0  0  0  0  0  0  0  0  0  0  0  0
    2.4289    5.0985    8.0917 S   0  0  0  0  0  0  0  0  0  0  0  0
    4.4520    2.6603    3.8012 C   0  0  0  0  0  0  0  0  0  0  0  0
    5.3680    2.8450    2.7871 C   0  0  0  0  0  0  0  0  0  0  0  0
    6.6637    3.5142    2.9130 C   0  0  0  0  0  0  0  0  0  0  0  0
    7.5759    3.1204    3.8876 C   0  0  0  0  0  0  0  0  0  0  0  0
    8.8012    3.7530    3.9807 C   0  0  0  0  0  0  0  0  0  0  0  0
    9.1342    4.7627    3.0953 C   0  0  0  0  0  0  0  0  0  0  0  0
    8.2484    5.1457    2.0954 C   0  0  0  0  0  0  0  0  0  0  0  0
    8.6279    6.1830    1.0784 C   0  0  0  0  0  0  0  0  0  0  0  0
    9.1435    5.5095   -0.1950 C   0  0  0  0  0  0  0  0  0  0  0  0
    7.0177    4.5130    2.0133 C   0  0  0  0  0  0  0  0  0  0  0  0
    4.8877    2.3201    1.5675 C   0  0  0  0  0  0  0  0  0  0  0  0
    5.5025    2.3803   -0.0664 S   0  0  0  0  0  0  0  0  0  0  0  0
    4.0968    1.5222   -0.6041 C   0  0  0  0  0  0  0  0  0  0  0  0
    3.5163    1.0626   -1.7977 C   0  0  0  0  0  0  0  0  0  0  0  0
    3.8990    1.2423   -3.1443 C   0  0  0  0  0  0  0  0  0  0  0  0
    3.0276    0.7689   -4.1819 C   0  0  0  0  0  0  0  0  0  0  0  0
    3.4800    1.0565   -5.3924 N   0  0  0  0  0  0  0  0  0  0  0  0
    4.8834    1.8494   -5.2410 S   0  0  0  0  0  0  0  0  0  0  0  0
    4.9674    1.8608   -3.6224 N   0  0  0  0  0  0  0  0  0  0  0  0
    1.8681    0.0481   -3.8240 C   0  0  0  0  0  0  0  0  0  0  0  0
    0.9054   -0.6041   -4.6126 C   0  0  0  0  0  0  0  0  0  0  0  0
    0.5161   -0.8542   -6.2822 S   0  0  0  0  0  0  0  0  0  0  0  0
   -0.8367   -1.8503   -5.7964 C   0  0  0  0  0  0  0  0  0  0  0  0
   -1.7870   -2.5960   -6.5243 C   0  0  0  0  0  0  0  0  0  0  0  0
   -1.8057   -2.6572   -7.9873 C   0  0  0  0  0  0  0  0  0  0  0  0
   -1.9399   -3.8660   -8.6611 C   0  0  0  0  0  0  0  0  0  0  0  0
   -1.9473   -3.8849  -10.0427 C   0  0  0  0  0  0  0  0  0  0  0  0
   -1.7958   -2.7111  -10.7556 C   0  0  0  0  0  0  0  0  0  0  0  0
   -1.6263   -1.4941  -10.1011 C   0  0  0  0  0  0  0  0  0  0  0  0
   -1.4132   -0.2549  -10.9316 C   0  0  0  0  0  0  0  0  0  0  0  0
   -1.1196    1.0179  -10.1482 C   0  0  0  0  0  0  0  0  0  0  0  0
   -1.6449   -1.4814   -8.7166 C   0  0  0  0  0  0  0  0  0  0  0  0
   -2.6425   -3.2786   -5.6785 C   0  0  0  0  0  0  0  0  0  0  0  0
   -2.2996   -2.9643   -3.9823 S   0  0  0  0  0  0  0  0  0  0  0  0
   -0.9598   -1.9683   -4.4130 C   0  0  0  0  0  0  0  0  0  0  0  0
    0.0383   -1.2560   -3.7359 C   0  0  0  0  0  0  0  0  0  0  0  0
    0.4082   -1.0213   -2.4388 N   0  0  0  0  0  0  0  0  0  0  0  0
    1.5296   -0.2040   -2.4648 C   0  0  0  0  0  0  0  0  0  0  0  0
    2.3039    0.4060   -1.4425 C   0  0  0  0  0  0  0  0  0  0  0  0
    2.1414    0.5103   -0.0711 N   0  0  0  0  0  0  0  0  0  0  0  0
    3.2169    1.1922    0.4275 C   0  0  0  0  0  0  0  0  0  0  0  0
    3.6601    1.6695    1.6673 C   0  0  0  0  0  0  0  0  0  0  0  0
    3.0602    1.7106    3.2829 S   0  0  0  0  0  0  0  0  0  0  0  0
    0.9704    0.3118    0.7514 C   0  0  0  0  0  0  0  0  0  0  0  0
   -0.2090    1.1532    0.2722 C   0  0  0  0  0  0  0  0  0  0  0  0
   -0.0605   -1.9181   -1.4046 C   0  0  0  0  0  0  0  0  0  0  0  0
    1.0503   -2.8510   -0.9300 C   0  0  0  0  0  0  0  0  0  0  0  0
   -3.7833   -4.0636   -6.0212 C   0  0  0  0  0  0  0  0  0  0  0  0
   -4.3267   -5.1491   -5.3450 C   0  0  0  0  0  0  0  0  0  0  0  0
   -3.7851   -5.7789   -4.2369 N   0  0  0  0  0  0  0  0  0  0  0  0
   -2.4026   -5.9255   -4.0889 C   0  0  0  0  0  0  0  0  0  0  0  0
   -1.8188   -5.8752   -2.8244 C   0  0  0  0  0  0  0  0  0  0  0  0
   -0.4461   -5.9406   -2.6879 C   0  0  0  0  0  0  0  0  0  0  0  0
    0.3832   -6.0456   -3.7966 C   0  0  0  0  0  0  0  0  0  0  0  0
    1.8752   -6.0621   -3.6584 C   0  0  0  0  0  0  0  0  0  0  0  0
   -0.2072   -6.1273   -5.0533 C   0  0  0  0  0  0  0  0  0  0  0  0
   -1.5773   -6.0808   -5.2014 C   0  0  0  0  0  0  0  0  0  0  0  0
   -4.6656   -6.2995   -3.2719 C   0  0  0  0  0  0  0  0  0  0  0  0
   -4.4139   -7.5318   -2.6767 C   0  0  0  0  0  0  0  0  0  0  0  0
   -5.2909   -8.0390   -1.7387 C   0  0  0  0  0  0  0  0  0  0  0  0
   -6.4390   -7.3440   -1.3784 C   0  0  0  0  0  0  0  0  0  0  0  0
   -7.4056   -7.9115   -0.3849 C   0  0  0  0  0  0  0  0  0  0  0  0
   -6.6828   -6.1150   -1.9800 C   0  0  0  0  0  0  0  0  0  0  0  0
   -5.8087   -5.5908   -2.9106 C   0  0  0  0  0  0  0  0  0  0  0  0
   -5.5231   -5.5786   -5.9676 C   0  0  0  0  0  0  0  0  0  0  0  0
   -6.6206   -6.8696   -5.6671 S   0  0  0  0  0  0  0  0  0  0  0  0
   -7.6182   -6.3827   -7.0451 C   0  0  0  0  0  0  0  0  0  0  0  0
   -7.0394   -5.3142   -7.7576 C   0  0  0  0  0  0  0  0  0  0  0  0
   -7.4466   -4.7951   -8.9609 N   0  0  0  0  0  0  0  0  0  0  0  0
   -8.1075   -5.5248   -9.9593 C   0  0  0  0  0  0  0  0  0  0  0  0
   -7.9700   -6.9045  -10.0947 C   0  0  0  0  0  0  0  0  0  0  0  0
   -8.6661   -7.5795  -11.0772 C   0  0  0  0  0  0  0  0  0  0  0  0
   -9.5004   -6.9065  -11.9631 C   0  0  0  0  0  0  0  0  0  0  0  0
  -10.2611   -7.6573  -13.0106 C   0  0  0  0  0  0  0  0  0  0  0  0
   -9.5914   -5.5237  -11.8568 C   0  0  0  0  0  0  0  0  0  0  0  0
   -8.9129   -4.8389  -10.8698 C   0  0  0  0  0  0  0  0  0  0  0  0
   -6.9094   -3.5381   -9.3568 C   0  0  0  0  0  0  0  0  0  0  0  0
   -6.1172   -3.4549  -10.4964 C   0  0  0  0  0  0  0  0  0  0  0  0
   -5.5764   -2.2421  -10.8741 C   0  0  0  0  0  0  0  0  0  0  0  0
   -5.8213   -1.0902  -10.1367 C   0  0  0  0  0  0  0  0  0  0  0  0
   -5.2129    0.2200  -10.5255 C   0  0  0  0  0  0  0  0  0  0  0  0
   -6.6276   -1.1829   -9.0089 C   0  0  0  0  0  0  0  0  0  0  0  0
   -7.1666   -2.3915   -8.6141 C   0  0  0  0  0  0  0  0  0  0  0  0
   -5.8764   -4.8555   -7.0972 C   0  0  0  0  0  0  0  0  0  0  0  0
   -4.7245   -3.6082   -7.4325 S   0  0  0  0  0  0  0  0  0  0  0  0
   -8.7920   -7.1255   -7.2339 C   0  0  0  0  0  0  0  0  0  0  0  0
   -9.9224   -6.8148   -7.9445 C   0  0  0  0  0  0  0  0  0  0  0  0
  -10.7947   -7.9059   -8.4591 C   0  0  0  0  0  0  0  0  0  0  0  0
  -10.7211   -9.0873   -8.2028 O   0  0  0  0  0  0  0  0  0  0  0  0
  -11.7004   -7.2164   -9.3789 C   0  0  0  0  0  0  0  0  0  0  0  0
  -12.9511   -7.6603  -10.4566 S   0  0  0  0  0  0  0  0  0  0  0  0
  -13.1918   -6.0032  -10.8689 C   0  0  0  0  0  0  0  0  0  0  0  0
  -12.3609   -5.1454  -10.2110 C   0  0  0  0  0  0  0  0  0  0  0  0
  -11.4907   -5.8461   -9.3560 C   0  0  0  0  0  0  0  0  0  0  0  0
  -10.4358   -5.5517   -8.4025 C   0  0  0  0  0  0  0  0  0  0  0  0
  -10.1677   -4.3068   -7.8796 C   0  0  0  0  0  0  0  0  0  0  0  0
  -10.7114   -3.1364   -8.4369 C   0  0  0  0  0  0  0  0  0  0  0  0
  -11.1103   -2.1676   -8.9082 N   0  0  0  0  0  0  0  0  0  0  0  0
   -9.4092   -4.0996   -6.7172 C   0  0  0  0  0  0  0  0  0  0  0  0
   -8.8347   -3.8866   -5.7444 N   0  0  0  0  0  0  0  0  0  0  0  0
    2.5240    6.0316   10.6886 H   0  0  0  0  0  0  0  0  0  0  0  0
    4.7065    5.9128   15.8643 H   0  0  0  0  0  0  0  0  0  0  0  0
    6.0459    4.2117   17.0258 H   0  0  0  0  0  0  0  0  0  0  0  0
    8.5172    5.1668    8.4451 H   0  0  0  0  0  0  0  0  0  0  0  0
   10.2409    3.6782    7.5140 H   0  0  0  0  0  0  0  0  0  0  0  0
   10.1555    0.0354    7.6946 H   0  0  0  0  0  0  0  0  0  0  0  0
    9.8637    0.7837    6.1281 H   0  0  0  0  0  0  0  0  0  0  0  0
   11.1044    1.4436    7.1942 H   0  0  0  0  0  0  0  0  0  0  0  0
    7.7133    0.3111    8.2087 H   0  0  0  0  0  0  0  0  0  0  0  0
    5.9875    1.8088    9.1554 H   0  0  0  0  0  0  0  0  0  0  0  0
    7.7097    3.8262   11.3483 H   0  0  0  0  0  0  0  0  0  0  0  0
    8.3282    5.2841   13.2256 H   0  0  0  0  0  0  0  0  0  0  0  0
    6.6520    8.1103   14.2158 H   0  0  0  0  0  0  0  0  0  0  0  0
    8.2511    7.3719   14.3494 H   0  0  0  0  0  0  0  0  0  0  0  0
    8.0044    8.7955   13.3270 H   0  0  0  0  0  0  0  0  0  0  0  0
    6.1112    8.4795   11.4715 H   0  0  0  0  0  0  0  0  0  0  0  0
    5.4884    7.0338    9.6013 H   0  0  0  0  0  0  0  0  0  0  0  0
    1.3007    2.4110    6.5774 H   0  0  0  0  0  0  0  0  0  0  0  0
   -0.8886    2.3458    7.6829 H   0  0  0  0  0  0  0  0  0  0  0  0
   -3.2132    3.0553    7.7256 H   0  0  0  0  0  0  0  0  0  0  0  0
   -3.7645    4.3916    6.7028 H   0  0  0  0  0  0  0  0  0  0  0  0
   -2.9647    4.7242    8.2360 H   0  0  0  0  0  0  0  0  0  0  0  0
   -2.0812    5.8327    5.5360 H   0  0  0  0  0  0  0  0  0  0  0  0
    0.1190    5.9224    4.4504 H   0  0  0  0  0  0  0  0  0  0  0  0
    4.1145    5.6851    3.8485 H   0  0  0  0  0  0  0  0  0  0  0  0
    4.4437    6.2780    1.5019 H   0  0  0  0  0  0  0  0  0  0  0  0
    3.5437    6.4729   -0.7611 H   0  0  0  0  0  0  0  0  0  0  0  0
    1.9759    5.7580   -1.1708 H   0  0  0  0  0  0  0  0  0  0  0  0
    3.4178    4.7476   -1.1001 H   0  0  0  0  0  0  0  0  0  0  0  0
    0.7907    4.3404    0.4810 H   0  0  0  0  0  0  0  0  0  0  0  0
    0.4500    3.7321    2.8401 H   0  0  0  0  0  0  0  0  0  0  0  0
    7.3378    2.2995    4.5473 H   0  0  0  0  0  0  0  0  0  0  0  0
    9.5000    3.4498    4.7461 H   0  0  0  0  0  0  0  0  0  0  0  0
   10.0949    5.2515    3.1723 H   0  0  0  0  0  0  0  0  0  0  0  0
    7.7586    6.7964    0.8322 H   0  0  0  0  0  0  0  0  0  0  0  0
    9.4033    6.8362    1.4833 H   0  0  0  0  0  0  0  0  0  0  0  0
    8.3802    4.8581   -0.6145 H   0  0  0  0  0  0  0  0  0  0  0  0
    9.4121    6.2565   -0.9383 H   0  0  0  0  0  0  0  0  0  0  0  0
   10.0221    4.9075    0.0259 H   0  0  0  0  0  0  0  0  0  0  0  0
    6.3178    4.8012    1.2434 H   0  0  0  0  0  0  0  0  0  0  0  0
   -2.0237   -4.7864   -8.1036 H   0  0  0  0  0  0  0  0  0  0  0  0
   -2.0592   -4.8233  -10.5661 H   0  0  0  0  0  0  0  0  0  0  0  0
   -1.7917   -2.7361  -11.8363 H   0  0  0  0  0  0  0  0  0  0  0  0
   -2.2993   -0.0997  -11.5546 H   0  0  0  0  0  0  0  0  0  0  0  0
   -0.5792   -0.4491  -11.6129 H   0  0  0  0  0  0  0  0  0  0  0  0
   -0.2335    0.8944   -9.5301 H   0  0  0  0  0  0  0  0  0  0  0  0
   -0.9428    1.8401  -10.8383 H   0  0  0  0  0  0  0  0  0  0  0  0
   -1.9571    1.2896   -9.5092 H   0  0  0  0  0  0  0  0  0  0  0  0
   -1.5374   -0.5542   -8.1775 H   0  0  0  0  0  0  0  0  0  0  0  0
    0.7148   -0.7479    0.8032 H   0  0  0  0  0  0  0  0  0  0  0  0
    1.2456    0.6257    1.7615 H   0  0  0  0  0  0  0  0  0  0  0  0
    0.0414    2.2079    0.3461 H   0  0  0  0  0  0  0  0  0  0  0  0
   -1.0791    0.9597    0.8942 H   0  0  0  0  0  0  0  0  0  0  0  0
   -0.4584    0.9339   -0.7630 H   0  0  0  0  0  0  0  0  0  0  0  0
   -0.8605   -2.5140   -1.8511 H   0  0  0  0  0  0  0  0  0  0  0  0
   -0.4989   -1.3622   -0.5758 H   0  0  0  0  0  0  0  0  0  0  0  0
    1.3998   -3.4589   -1.7612 H   0  0  0  0  0  0  0  0  0  0  0  0
    0.6722   -3.5089   -0.1520 H   0  0  0  0  0  0  0  0  0  0  0  0
    1.8956   -2.2904   -0.5373 H   0  0  0  0  0  0  0  0  0  0  0  0
   -2.4474   -5.7622   -1.9539 H   0  0  0  0  0  0  0  0  0  0  0  0
   -0.0130   -5.8934   -1.6990 H   0  0  0  0  0  0  0  0  0  0  0  0
    2.3007   -6.9078   -4.1960 H   0  0  0  0  0  0  0  0  0  0  0  0
    2.3035   -5.1531   -4.0826 H   0  0  0  0  0  0  0  0  0  0  0  0
    2.1705   -6.1295   -2.6139 H   0  0  0  0  0  0  0  0  0  0  0  0
    0.4179   -6.2303   -5.9287 H   0  0  0  0  0  0  0  0  0  0  0  0
   -2.0189   -6.1614   -6.1835 H   0  0  0  0  0  0  0  0  0  0  0  0
   -3.5319   -8.0889   -2.9568 H   0  0  0  0  0  0  0  0  0  0  0  0
   -5.0840   -8.9984   -1.2865 H   0  0  0  0  0  0  0  0  0  0  0  0
   -8.2352   -8.3902   -0.9058 H   0  0  0  0  0  0  0  0  0  0  0  0
   -6.9256   -8.6568    0.2447 H   0  0  0  0  0  0  0  0  0  0  0  0
   -7.8170   -7.1266    0.2463 H   0  0  0  0  0  0  0  0  0  0  0  0
   -7.5684   -5.5569   -1.7142 H   0  0  0  0  0  0  0  0  0  0  0  0
   -6.0091   -4.6300   -3.3613 H   0  0  0  0  0  0  0  0  0  0  0  0
   -7.3122   -7.4495   -9.4355 H   0  0  0  0  0  0  0  0  0  0  0  0
   -8.5615   -8.6515  -11.1545 H   0  0  0  0  0  0  0  0  0  0  0  0
  -10.6993   -8.5610  -12.5914 H   0  0  0  0  0  0  0  0  0  0  0  0
   -9.5928   -7.9557  -13.8186 H   0  0  0  0  0  0  0  0  0  0  0  0
  -11.0526   -7.0423  -13.4317 H   0  0  0  0  0  0  0  0  0  0  0  0
  -10.2178   -4.9741  -12.5440 H   0  0  0  0  0  0  0  0  0  0  0  0
   -9.0159   -3.7667  -10.7871 H   0  0  0  0  0  0  0  0  0  0  0  0
   -5.9210   -4.3464  -11.0740 H   0  0  0  0  0  0  0  0  0  0  0  0
   -4.9488   -2.1929  -11.7515 H   0  0  0  0  0  0  0  0  0  0  0  0
   -5.9001    1.0397  -10.3286 H   0  0  0  0  0  0  0  0  0  0  0  0
   -4.9444    0.2291  -11.5786 H   0  0  0  0  0  0  0  0  0  0  0  0
   -4.3101    0.3888   -9.9391 H   0  0  0  0  0  0  0  0  0  0  0  0
   -6.8369   -0.2975   -8.4275 H   0  0  0  0  0  0  0  0  0  0  0  0
   -7.7765   -2.4490   -7.7262 H   0  0  0  0  0  0  0  0  0  0  0  0
   -8.7874   -8.1197   -6.7969 H   0  0  0  0  0  0  0  0  0  0  0  0
  -13.9522   -5.7535  -11.5828 H   0  0  0  0  0  0  0  0  0  0  0  0
  -12.3717   -4.0791  -10.3416 H   0  0  0  0  0  0  0  0  0  0  0  0
  1  2  2  0  0  0  0
  2  3  1  0  0  0  0
  3  4  2  0  0  0  0
  3  5  1  0  0  0  0
  5  6  2  0  0  0  0
  6  7  1  0  0  0  0
  7  8  2  0  0  0  0
  8  9  1  0  0  0  0
  9 10  1  0  0  0  0
  9 11  2  0  0  0  0
 11 12  1  0  0  0  0
  6 13  1  0  0  0  0
 13 14  2  0  0  0  0
 14 15  1  0  0  0  0
 15 16  3  0  0  0  0
 14 17  1  0  0  0  0
 17 18  3  0  0  0  0
  1 19  1  0  0  0  0
 19 20  2  0  0  0  0
 20 21  1  0  0  0  0
 21 22  1  0  0  0  0
 22 23  2  0  0  0  0
 23 24  1  0  0  0  0
 24 25  2  0  0  0  0
 25 26  1  0  0  0  0
 25 27  1  0  0  0  0
 27 28  2  0  0  0  0
 21 29  1  0  0  0  0
 29 30  2  0  0  0  0
 30 31  1  0  0  0  0
 31 32  2  0  0  0  0
 32 33  1  0  0  0  0
 32 34  1  0  0  0  0
 34 35  2  0  0  0  0
 20 36  1  0  0  0  0
 36 37  1  0  0  0  0
 37 38  1  0  0  0  0
 38 39  2  0  0  0  0
 39 40  1  0  0  0  0
 40 41  1  0  0  0  0
 41 42  2  0  0  0  0
 42 43  1  0  0  0  0
 43 44  2  0  0  0  0
 44 45  1  0  0  0  0
 44 46  1  0  0  0  0
 46 47  2  0  0  0  0
 40 48  1  0  0  0  0
 48 49  2  0  0  0  0
 49 50  1  0  0  0  0
 50 51  2  0  0  0  0
 51 52  1  0  0  0  0
 51 53  1  0  0  0  0
 53 54  2  0  0  0  0
 39 55  1  0  0  0  0
 55 56  1  0  0  0  0
 38 57  1  0  0  0  0
 57 58  2  0  0  0  0
 58 59  1  0  0  0  0
 59 60  2  0  0  0  0
 60 61  1  0  0  0  0
 61 62  2  0  0  0  0
 62 63  1  0  0  0  0
 63 64  1  0  0  0  0
 64 65  1  0  0  0  0
 63 66  2  0  0  0  0
 58 67  1  0  0  0  0
 67 68  1  0  0  0  0
 68 69  1  0  0  0  0
 69 70  1  0  0  0  0
 70 71  1  0  0  0  0
 71 72  1  0  0  0  0
 72 73  2  0  0  0  0
 73 74  1  0  0  0  0
 74 75  1  0  0  0  0
 72 76  1  0  0  0  0
 76 77  1  0  0  0  0
 77 78  1  0  0  0  0
 78 79  1  0  0  0  0
 79 80  1  0  0  0  0
 80 81  1  0  0  0  0
 81 82  2  0  0  0  0
 82 83  1  0  0  0  0
 83 84  2  0  0  0  0
 84 85  1  0  0  0  0
 85 86  1  0  0  0  0
 86 87  1  0  0  0  0
 85 88  2  0  0  0  0
 80 89  2  0  0  0  0
 89 90  1  0  0  0  0
 90 91  1  0  0  0  0
 91 92  1  0  0  0  0
 92 93  1  0  0  0  0
 93 94  1  0  0  0  0
 94 95  1  0  0  0  0
 95 96  1  0  0  0  0
 96 97  1  0  0  0  0
 97 98  1  0  0  0  0
 98 99  1  0  0  0  0
 96100  1  0  0  0  0
100101  1  0  0  0  0
 93102  1  0  0  0  0
102103  1  0  0  0  0
 89104  1  0  0  0  0
104105  2  0  0  0  0
105106  1  0  0  0  0
106107  1  0  0  0  0
107108  2  0  0  0  0
108109  1  0  0  0  0
109110  2  0  0  0  0
110111  1  0  0  0  0
110112  1  0  0  0  0
112113  2  0  0  0  0
106114  1  0  0  0  0
114115  2  0  0  0  0
115116  1  0  0  0  0
116117  2  0  0  0  0
117118  1  0  0  0  0
117119  1  0  0  0  0
119120  2  0  0  0  0
105121  1  0  0  0  0
121122  1  0  0  0  0
122123  1  0  0  0  0
123124  2  0  0  0  0
124125  1  0  0  0  0
125126  1  0  0  0  0
126127  2  0  0  0  0
127128  1  0  0  0  0
128129  2  0  0  0  0
129130  1  0  0  0  0
129131  1  0  0  0  0
131132  2  0  0  0  0
125133  1  0  0  0  0
133134  2  0  0  0  0
134135  1  0  0  0  0
135136  2  0  0  0  0
136137  1  0  0  0  0
136138  1  0  0  0  0
138139  2  0  0  0  0
124140  1  0  0  0  0
140141  1  0  0  0  0
123142  1  0  0  0  0
142143  2  0  0  0  0
143144  1  0  0  0  0
144145  2  0  0  0  0
144146  1  0  0  0  0
146147  1  0  0  0  0
147148  1  0  0  0  0
148149  2  0  0  0  0
149150  1  0  0  0  0
150151  1  0  0  0  0
151152  2  0  0  0  0
152153  1  0  0  0  0
153154  3  0  0  0  0
152155  1  0  0  0  0
155156  3  0  0  0  0
 13  2  1  0  0  0  0
 56 19  1  0  0  0  0
 99 57  1  0  0  0  0
141104  1  0  0  0  0
151143  1  0  0  0  0
 11  5  1  0  0  0  0
 28 22  1  0  0  0  0
 35 29  1  0  0  0  0
 55 36  2  0  0  0  0
 66 59  1  0  0  0  0
 98 67  2  0  0  0  0
113107  1  0  0  0  0
120114  1  0  0  0  0
140121  2  0  0  0  0
150146  2  0  0  0  0
 47 41  1  0  0  0  0
 54 48  1  0  0  0  0
 97 69  2  0  0  0  0
132126  1  0  0  0  0
139133  1  0  0  0  0
 95 70  2  0  0  0  0
 75 71  2  0  0  0  0
 94 76  2  0  0  0  0
 92 77  2  0  0  0  0
 91 79  2  0  0  0  0
 88 81  1  0  0  0  0
  1157  1  0  0  0  0
  7158  1  0  0  0  0
  8159  1  0  0  0  0
 23160  1  0  0  0  0
 24161  1  0  0  0  0
 26162  1  0  0  0  0
 26163  1  0  0  0  0
 26164  1  0  0  0  0
 27165  1  0  0  0  0
 28166  1  0  0  0  0
 30167  1  0  0  0  0
 31168  1  0  0  0  0
 33169  1  0  0  0  0
 33170  1  0  0  0  0
 33171  1  0  0  0  0
 34172  1  0  0  0  0
 35173  1  0  0  0  0
 42174  1  0  0  0  0
 43175  1  0  0  0  0
 45176  1  0  0  0  0
 45177  1  0  0  0  0
 45178  1  0  0  0  0
 46179  1  0  0  0  0
 47180  1  0  0  0  0
 49181  1  0  0  0  0
 50182  1  0  0  0  0
 52183  1  0  0  0  0
 52184  1  0  0  0  0
 52185  1  0  0  0  0
 53186  1  0  0  0  0
 54187  1  0  0  0  0
 60188  1  0  0  0  0
 61189  1  0  0  0  0
 62190  1  0  0  0  0
 64191  1  0  0  0  0
 64192  1  0  0  0  0
 65193  1  0  0  0  0
 65194  1  0  0  0  0
 65195  1  0  0  0  0
 66196  1  0  0  0  0
 82197  1  0  0  0  0
 83198  1  0  0  0  0
 84199  1  0  0  0  0
 86200  1  0  0  0  0
 86201  1  0  0  0  0
 87202  1  0  0  0  0
 87203  1  0  0  0  0
 87204  1  0  0  0  0
 88205  1  0  0  0  0
100206  1  0  0  0  0
100207  1  0  0  0  0
101208  1  0  0  0  0
101209  1  0  0  0  0
101210  1  0  0  0  0
102211  1  0  0  0  0
102212  1  0  0  0  0
103213  1  0  0  0  0
103214  1  0  0  0  0
103215  1  0  0  0  0
108216  1  0  0  0  0
109217  1  0  0  0  0
111218  1  0  0  0  0
111219  1  0  0  0  0
111220  1  0  0  0  0
112221  1  0  0  0  0
113222  1  0  0  0  0
115223  1  0  0  0  0
116224  1  0  0  0  0
118225  1  0  0  0  0
118226  1  0  0  0  0
118227  1  0  0  0  0
119228  1  0  0  0  0
120229  1  0  0  0  0
127230  1  0  0  0  0
128231  1  0  0  0  0
130232  1  0  0  0  0
130233  1  0  0  0  0
130234  1  0  0  0  0
131235  1  0  0  0  0
132236  1  0  0  0  0
134237  1  0  0  0  0
135238  1  0  0  0  0
137239  1  0  0  0  0
137240  1  0  0  0  0
137241  1  0  0  0  0
138242  1  0  0  0  0
139243  1  0  0  0  0
142244  1  0  0  0  0
148245  1  0  0  0  0
149246  1  0  0  0  0
M  END
