195

C          4.33270        9.33400        0.60010
C          4.85830        9.92360        1.73660
C          4.94910        9.31250        3.05840
O          4.61850        8.18890        3.39380
C          5.50510       10.35470        3.95030
C          5.70580       11.53520        3.21290
C          6.20610       12.66350        3.84080
C          6.50310       12.59440        5.19510
C          6.31500       11.42450        5.91320
Br         6.75470       11.38910        7.75180
C          5.80870       10.27450        5.29770
Cl         5.58130        8.82100        6.17430
C          5.33750       11.27810        1.81880
C          5.47650       12.18480        0.79280
C          5.28700       11.91070       -0.57400
N          5.20060       11.76800       -1.71200
C          5.87050       13.52540        0.96990
N          6.16480       14.63330        1.04400
C          3.87710        8.04140        0.38390
C          3.42440        7.58110       -0.88770
N          3.10890        8.38210       -1.94640
C          2.48880        9.63620       -1.77270
C          1.56340        9.83300       -0.75090
C          0.96380       11.06590       -0.58970
C          1.25310       12.12260       -1.44530
C          0.61730       13.46590       -1.26500
C          2.15580       11.90610       -2.48010
C          2.77410       10.68300       -2.64600
C          3.28380        7.90280       -3.25930
C          4.46280        7.25810       -3.61820
C          4.66510        6.86620       -4.92710
C          3.70380        7.10000       -5.90160
C          3.94750        6.75310       -7.33740
C          2.51190        7.70970       -5.52310
C          2.29810        8.10890       -4.22060
C          3.29640        6.18280       -0.89370
S          2.84320        4.99850       -2.07820
C          2.89340        3.72250       -0.85910
C          3.21340        4.21700        0.39980
N          3.32200        3.49690        1.58660
C          2.22320        2.81030        2.10790
C          2.42430        1.72530        2.96210
C          1.34710        1.00950        3.43740
C          0.04330        1.34900        3.08650
C         -1.11710        0.56250        3.61660
C         -0.15140        2.44530        2.25880
C          0.91920        3.17350        1.77470
C          4.39270        3.86040        2.42830
C          5.66410        4.01030        1.88310
C          6.71350        4.43570        2.67400
C          6.52690        4.71180        4.02170
C          7.64880        5.21620        4.87510
C          5.25780        4.53590        4.56210
C          4.19940        4.11970        3.78210
C          3.49110        5.60290        0.35220
S          3.94330        6.73490        1.57200
C          2.61090        2.39300       -1.29320
C          2.87010        1.87580       -2.55120
C          3.67310        2.53840       -3.59530
C          5.05120        2.59370       -3.40880
C          5.87290        3.11080       -4.39010
C          5.31680        3.57580       -5.56950
C          3.94680        3.54900       -5.74380
C          3.10410        3.03600       -4.76660
C          1.61680        3.05210       -4.98120
C          1.19150        2.13980       -6.13140
C          2.40310        0.55650       -2.67880
S          2.43820       -0.59750       -3.99200
C          1.57450       -1.72020       -2.99370
C          0.98120       -2.98610       -3.08130
C          0.86320       -3.86550       -4.17940
C          0.07050       -5.04890       -4.03370
N          0.00400       -5.75570       -5.15090
S          0.87080       -4.99660       -6.28850
N          1.36070       -3.73560       -5.39940
C         -0.50010       -5.33500       -2.77420
C         -1.27580       -6.42100       -2.35460
S         -2.00690       -7.84300       -3.01470
C         -2.64190       -8.21520       -1.42320
C         -3.47840       -9.23590       -0.96550
C         -4.10200      -10.20180       -1.88000
C         -3.35490      -11.12790       -2.61010
C         -1.88540      -11.33120       -2.37720
C         -1.66680      -12.46370       -1.37190
C         -4.02060      -11.95210       -3.50820
C         -5.38790      -11.86650       -3.69050
C         -6.12240      -10.94350       -2.96510
C         -5.47970      -10.11380       -2.06860
C         -3.77330       -9.07780        0.39280
S         -3.02240       -7.63940        1.07670
C         -2.29010       -7.27110       -0.44540
C         -1.51330       -6.24580       -0.98460
N         -0.92960       -5.08480       -0.55220
C         -0.30650       -4.48970       -1.63790
C          0.37630       -3.25800       -1.81650
N          0.60460       -2.16440       -0.99280
C          1.30620       -1.23760       -1.71020
C          1.78280        0.06560       -1.52890
S          1.79120        1.23160       -0.25770
C         -0.00650       -1.76590        0.25500
C         -1.50190       -1.50670        0.08830
C         -0.75550       -4.88000        0.86850
C          0.69670       -5.09720        1.28770
C         -4.59940       -9.85290        1.23720
C         -5.06410       -9.33110        2.47000
C         -6.07800       -9.97250        3.27370
N         -6.30470       -9.29760        4.39890
S         -5.39770       -7.97900        4.42400
N         -4.63530       -8.19820        3.02490
C         -6.68260      -11.19270        2.89210
C         -6.06480      -11.81600        1.78040
N         -6.34830      -13.03570        1.32750
S         -5.40700      -13.36290        0.06650
N         -4.61280      -11.97320        0.00700
C         -5.04980      -11.16980        0.97500
C         -7.74950      -11.81530        3.57090
C         -8.71230      -11.17310        4.31080
C         -9.07050       -9.74860        4.15920
O         -8.64350       -8.94890        3.35400
C        -10.19780       -9.52610        5.09750
C        -10.55420      -10.74460        5.70190
C        -11.60520      -10.78950        6.60350
C        -12.28110       -9.61360        6.89600
C        -11.92080       -8.41370        6.30360
Br       -12.87070       -6.84270        6.75450
C        -10.86980       -8.35030        5.38320
Cl       -10.42040       -6.86920        4.64990
C         -9.64770      -11.78730        5.21940
C         -9.65510      -13.09610        5.63420
C         -8.72330      -14.07870        5.23960
N         -7.99790      -14.93440        4.99310
C        -10.59540      -13.63760        6.53340
N        -11.33420      -14.14240        7.25360
H          4.28450        9.97190       -0.27310
H          6.36890       13.58600        3.30940
H          6.89270       13.46330        5.70270
H          1.31880        9.01930       -0.08400
H          0.25130       11.20480        0.21050
H          1.37500       14.20860       -1.01650
H         -0.12180       13.44560       -0.46820
H          0.13170       13.78510       -2.18580
H          2.39340       12.71290       -3.15640
H          3.48620       10.53700       -3.44230
H          5.22950        7.09410       -2.87530
H          5.59470        6.38790       -5.19490
H          4.79460        6.08110       -7.43980
H          3.06720        6.29060       -7.77960
H          4.16190        7.66020       -7.90340
H          1.74460        7.88280       -6.26360
H          1.37320        8.59100       -3.94080
H          3.43150        1.44520        3.23190
H          1.51810        0.16410        4.08850
H         -0.87270       -0.49650        3.67490
H         -1.99470        0.69260        2.98780
H         -1.37030        0.90090        4.62180
H         -1.15510        2.73790        1.98640
H          0.74970        4.02580        1.13300
H          5.81990        3.80560        0.83310
H          7.69240        4.55890        2.23300
H          7.50450        6.27660        5.08300
H          8.60730        5.09320        4.37680
H          7.67630        4.69180        5.82860
H          5.09230        4.75030        5.60780
H          3.21410        4.01640        4.21140
H          5.47240        2.21350       -2.48860
H          6.94170        3.14190       -4.23910
H          5.95520        3.95990       -6.35200
H          3.51480        3.93220       -6.65540
H          1.10850        2.74360       -4.06590
H          1.31070        4.07870       -5.20270
H          1.49250        1.11400       -5.93420
H          0.11110        2.16720       -6.25280
H          1.65090        2.45530       -7.06460
H         -1.42380      -10.42300       -1.99190
H         -1.39910      -11.58430       -3.32150
H         -2.07510      -13.39600       -1.75470
H         -2.17100      -12.23090       -0.43740
H         -0.60540      -12.60000       -1.17840
H         -3.45020      -12.67450       -4.07440
H         -5.88180      -12.51810       -4.39600
H         -7.19110      -10.86710       -3.09970
H         -6.04300       -9.38510       -1.50220
H          0.19400       -2.50290        1.03120
H          0.48410       -0.83840        0.56200
H         -2.01060       -2.37820       -0.31770
H         -1.94330       -1.25290        1.04790
H         -1.65750       -0.67470       -0.59430
H         -1.12050       -3.89730        1.16450
H         -1.38790       -5.61950        1.36570
H          0.80650       -4.91970        2.35400
H          1.36750       -4.43280        0.74730
H          0.99340       -6.12170        1.07580
H         -7.80450      -12.88930        3.44470
H        -11.90850      -11.70740        7.07830
H        -13.10130       -9.62620        7.59730
