
  xtb     02072214283D
 energy: -437.392032756846 gnorm: 0.000313878254 xtb: 6.4.1 (unknown)
258283  0     0  0            999 V2000
   -3.0239    5.4612   -6.1803 C   0  0  0  0  0  0  0  0  0  0  0  0
   -3.4505    4.6607   -7.2252 C   0  0  0  0  0  0  0  0  0  0  0  0
   -2.6577    3.5547   -7.7711 C   0  0  0  0  0  0  0  0  0  0  0  0
   -1.5489    3.1987   -7.4223 O   0  0  0  0  0  0  0  0  0  0  0  0
   -3.4279    3.0578   -8.9385 C   0  0  0  0  0  0  0  0  0  0  0  0
   -4.5886    3.8347   -9.0959 C   0  0  0  0  0  0  0  0  0  0  0  0
   -5.4663    3.5681  -10.1319 C   0  0  0  0  0  0  0  0  0  0  0  0
   -5.1803    2.5152  -10.9903 C   0  0  0  0  0  0  0  0  0  0  0  0
   -4.0446    1.7410  -10.8188 C   0  0  0  0  0  0  0  0  0  0  0  0
   -3.7258    0.2998  -12.0008 Br  0  0  0  0  0  0  0  0  0  0  0  0
   -3.1395    2.0045   -9.7858 C   0  0  0  0  0  0  0  0  0  0  0  0
   -1.7406    1.0389   -9.5544 Cl  0  0  0  0  0  0  0  0  0  0  0  0
   -4.6310    4.8246   -8.0189 C   0  0  0  0  0  0  0  0  0  0  0  0
   -5.6993    5.6384   -7.7233 C   0  0  0  0  0  0  0  0  0  0  0  0
   -6.8903    5.6776   -8.4698 C   0  0  0  0  0  0  0  0  0  0  0  0
   -7.8878    5.7379   -9.0373 N   0  0  0  0  0  0  0  0  0  0  0  0
   -5.7579    6.4764   -6.5927 C   0  0  0  0  0  0  0  0  0  0  0  0
   -5.8799    7.1588   -5.6767 N   0  0  0  0  0  0  0  0  0  0  0  0
   -2.1528    5.0876   -5.1595 C   0  0  0  0  0  0  0  0  0  0  0  0
   -1.7888    3.8211   -4.6463 C   0  0  0  0  0  0  0  0  0  0  0  0
   -2.3010    2.5998   -5.0009 N   0  0  0  0  0  0  0  0  0  0  0  0
   -1.4637    1.4680   -4.9322 C   0  0  0  0  0  0  0  0  0  0  0  0
   -1.9708    0.2378   -4.5255 C   0  0  0  0  0  0  0  0  0  0  0  0
   -1.1474   -0.8687   -4.4762 C   0  0  0  0  0  0  0  0  0  0  0  0
    0.2017   -0.7797   -4.7998 C   0  0  0  0  0  0  0  0  0  0  0  0
    1.0771   -1.9898   -4.6976 C   0  0  0  0  0  0  0  0  0  0  0  0
    0.6963    0.4502   -5.2146 C   0  0  0  0  0  0  0  0  0  0  0  0
   -0.1224    1.5596   -5.2943 C   0  0  0  0  0  0  0  0  0  0  0  0
   -3.6284    2.4565   -5.4228 C   0  0  0  0  0  0  0  0  0  0  0  0
   -4.6326    3.2660   -4.8892 C   0  0  0  0  0  0  0  0  0  0  0  0
   -5.9252    3.1725   -5.3563 C   0  0  0  0  0  0  0  0  0  0  0  0
   -6.2725    2.2486   -6.3400 C   0  0  0  0  0  0  0  0  0  0  0  0
   -7.6796    2.1790   -6.8400 C   0  0  0  0  0  0  0  0  0  0  0  0
   -5.2809    1.4098   -6.8289 C   0  0  0  0  0  0  0  0  0  0  0  0
   -3.9735    1.5135   -6.3900 C   0  0  0  0  0  0  0  0  0  0  0  0
   -0.8594    3.9670   -3.5951 C   0  0  0  0  0  0  0  0  0  0  0  0
   -0.0604    2.8326   -2.5647 S   0  0  0  0  0  0  0  0  0  0  0  0
    0.7035    4.1475   -1.6880 C   0  0  0  0  0  0  0  0  0  0  0  0
    0.3902    5.3974   -2.2014 C   0  0  0  0  0  0  0  0  0  0  0  0
    0.9664    6.5848   -1.7893 N   0  0  0  0  0  0  0  0  0  0  0  0
    0.2080    7.7651   -1.8117 C   0  0  0  0  0  0  0  0  0  0  0  0
   -1.1453    7.7402   -1.4807 C   0  0  0  0  0  0  0  0  0  0  0  0
   -1.8919    8.8998   -1.5251 C   0  0  0  0  0  0  0  0  0  0  0  0
   -1.3142   10.1119   -1.8846 C   0  0  0  0  0  0  0  0  0  0  0  0
   -2.1440   11.3575   -1.9349 C   0  0  0  0  0  0  0  0  0  0  0  0
    0.0392   10.1300   -2.1972 C   0  0  0  0  0  0  0  0  0  0  0  0
    0.7956    8.9749   -2.1680 C   0  0  0  0  0  0  0  0  0  0  0  0
    2.2944    6.5899   -1.3306 C   0  0  0  0  0  0  0  0  0  0  0  0
    2.6644    7.3767   -0.2434 C   0  0  0  0  0  0  0  0  0  0  0  0
    3.9477    7.3066    0.2596 C   0  0  0  0  0  0  0  0  0  0  0  0
    4.8950    6.4570   -0.2995 C   0  0  0  0  0  0  0  0  0  0  0  0
    6.2616    6.3350    0.3012 C   0  0  0  0  0  0  0  0  0  0  0  0
    4.5314    5.7106   -1.4128 C   0  0  0  0  0  0  0  0  0  0  0  0
    3.2534    5.7783   -1.9308 C   0  0  0  0  0  0  0  0  0  0  0  0
   -0.5349    5.2781   -3.2672 C   0  0  0  0  0  0  0  0  0  0  0  0
   -1.3866    6.4064   -4.2541 S   0  0  0  0  0  0  0  0  0  0  0  0
    1.6008    3.7841   -0.6346 C   0  0  0  0  0  0  0  0  0  0  0  0
    1.7167    4.2542    0.6530 C   0  0  0  0  0  0  0  0  0  0  0  0
    0.7967    5.2387    1.2993 C   0  0  0  0  0  0  0  0  0  0  0  0
   -0.2856    4.4949    2.0864 C   0  0  0  0  0  0  0  0  0  0  0  0
    2.6879    3.5255    1.3677 C   0  0  0  0  0  0  0  0  0  0  0  0
    3.1624    3.5131    3.0543 S   0  0  0  0  0  0  0  0  0  0  0  0
    4.0579    2.0497    2.7778 C   0  0  0  0  0  0  0  0  0  0  0  0
    4.5780    0.9661    3.5105 C   0  0  0  0  0  0  0  0  0  0  0  0
    4.5711    0.7299    4.9090 C   0  0  0  0  0  0  0  0  0  0  0  0
    4.4763    1.7220    5.7879 N   0  0  0  0  0  0  0  0  0  0  0  0
    4.3404    1.4279    7.0713 C   0  0  0  0  0  0  0  0  0  0  0  0
    4.4606    2.5555    7.9714 C   0  0  0  0  0  0  0  0  0  0  0  0
    5.2659    2.4431    9.5086 S   0  0  0  0  0  0  0  0  0  0  0  0
    5.0836    4.1382    9.8012 C   0  0  0  0  0  0  0  0  0  0  0  0
    5.6067    4.7875   11.0354 C   0  0  0  0  0  0  0  0  0  0  0  0
    7.1360    4.7896   11.0605 C   0  0  0  0  0  0  0  0  0  0  0  0
    4.4479    4.7177    8.7419 C   0  0  0  0  0  0  0  0  0  0  0  0
    4.1015    3.8447    7.6950 C   0  0  0  0  0  0  0  0  0  0  0  0
    4.1682    6.0340    8.7048 F   0  0  0  0  0  0  0  0  0  0  0  0
    4.1427    0.0778    7.4802 C   0  0  0  0  0  0  0  0  0  0  0  0
    3.6832   -0.3273    8.7905 C   0  0  0  0  0  0  0  0  0  0  0  0
    3.9241   -1.5347    9.3855 C   0  0  0  0  0  0  0  0  0  0  0  0
    3.2625   -1.6491   10.6206 C   0  0  0  0  0  0  0  0  0  0  0  0
    3.3742   -2.7414   11.3998 F   0  0  0  0  0  0  0  0  0  0  0  0
    2.5034   -0.5730   10.9795 C   0  0  0  0  0  0  0  0  0  0  0  0
    1.6670   -0.3958   12.1991 C   0  0  0  0  0  0  0  0  0  0  0  0
    0.1757   -0.3900   11.8598 C   0  0  0  0  0  0  0  0  0  0  0  0
    2.6021    0.6392    9.7499 S   0  0  0  0  0  0  0  0  0  0  0  0
    4.3400   -0.9124    6.6232 N   0  0  0  0  0  0  0  0  0  0  0  0
    4.6196   -0.6204    5.3564 C   0  0  0  0  0  0  0  0  0  0  0  0
    4.8442   -1.6383    4.3976 C   0  0  0  0  0  0  0  0  0  0  0  0
    4.6220   -3.0290    4.4819 C   0  0  0  0  0  0  0  0  0  0  0  0
    3.7765   -4.1381    5.5191 S   0  0  0  0  0  0  0  0  0  0  0  0
    3.5165   -5.1998    4.1436 C   0  0  0  0  0  0  0  0  0  0  0  0
    2.4441   -6.0764    3.8628 C   0  0  0  0  0  0  0  0  0  0  0  0
    1.6246   -6.7225    4.9261 C   0  0  0  0  0  0  0  0  0  0  0  0
    2.4790   -7.7278    5.7013 C   0  0  0  0  0  0  0  0  0  0  0  0
    2.3004   -6.2682    2.5042 C   0  0  0  0  0  0  0  0  0  0  0  0
    3.6693   -5.5844    1.5834 S   0  0  0  0  0  0  0  0  0  0  0  0
    4.2143   -4.7791    3.0110 C   0  0  0  0  0  0  0  0  0  0  0  0
    4.8443   -3.5467    3.2058 C   0  0  0  0  0  0  0  0  0  0  0  0
    5.2451   -2.5582    2.3426 N   0  0  0  0  0  0  0  0  0  0  0  0
    6.0474   -2.9062    1.1872 C   0  0  0  0  0  0  0  0  0  0  0  0
    7.4387   -2.2852    1.2687 C   0  0  0  0  0  0  0  0  0  0  0  0
    5.1449   -1.3590    3.0343 C   0  0  0  0  0  0  0  0  0  0  0  0
    4.9059   -0.0473    2.5641 C   0  0  0  0  0  0  0  0  0  0  0  0
    4.6478    0.4378    1.2973 N   0  0  0  0  0  0  0  0  0  0  0  0
    4.0684    1.6666    1.4361 C   0  0  0  0  0  0  0  0  0  0  0  0
    3.2899    2.5068    0.6319 C   0  0  0  0  0  0  0  0  0  0  0  0
    2.6921    2.4518   -0.9807 S   0  0  0  0  0  0  0  0  0  0  0  0
    4.6977   -0.1803   -0.0060 C   0  0  0  0  0  0  0  0  0  0  0  0
    3.4882   -1.0741   -0.2730 C   0  0  0  0  0  0  0  0  0  0  0  0
    1.1068   -6.3107    1.7119 C   0  0  0  0  0  0  0  0  0  0  0  0
    0.0212   -5.4677    1.9280 C   0  0  0  0  0  0  0  0  0  0  0  0
   -0.2742   -4.8023    3.1266 N   0  0  0  0  0  0  0  0  0  0  0  0
   -1.0748   -5.4326    4.0791 C   0  0  0  0  0  0  0  0  0  0  0  0
   -1.1447   -4.9376    5.3825 C   0  0  0  0  0  0  0  0  0  0  0  0
   -1.9007   -5.5879    6.3347 C   0  0  0  0  0  0  0  0  0  0  0  0
   -2.5983   -6.7531    6.0336 C   0  0  0  0  0  0  0  0  0  0  0  0
   -3.4269   -7.4380    7.0772 C   0  0  0  0  0  0  0  0  0  0  0  0
   -2.5150   -7.2474    4.7400 C   0  0  0  0  0  0  0  0  0  0  0  0
   -1.7693   -6.6009    3.7725 C   0  0  0  0  0  0  0  0  0  0  0  0
   -0.1119   -3.4013    3.1131 C   0  0  0  0  0  0  0  0  0  0  0  0
    1.0862   -2.8529    2.6631 C   0  0  0  0  0  0  0  0  0  0  0  0
    1.2864   -1.4882    2.7068 C   0  0  0  0  0  0  0  0  0  0  0  0
    0.2985   -0.6294    3.1725 C   0  0  0  0  0  0  0  0  0  0  0  0
    0.5375    0.8460    3.2186 C   0  0  0  0  0  0  0  0  0  0  0  0
   -0.9142   -1.1804    3.5667 C   0  0  0  0  0  0  0  0  0  0  0  0
   -1.1235   -2.5454    3.5385 C   0  0  0  0  0  0  0  0  0  0  0  0
   -0.6693   -5.2153    0.7283 C   0  0  0  0  0  0  0  0  0  0  0  0
   -1.9290   -4.1126    0.3250 S   0  0  0  0  0  0  0  0  0  0  0  0
   -1.7790   -4.5374   -1.3857 C   0  0  0  0  0  0  0  0  0  0  0  0
   -0.8213   -5.5563   -1.5944 C   0  0  0  0  0  0  0  0  0  0  0  0
   -0.4567   -6.0677   -2.8048 N   0  0  0  0  0  0  0  0  0  0  0  0
   -1.3885   -6.2574   -3.8380 C   0  0  0  0  0  0  0  0  0  0  0  0
   -1.0536   -5.9461   -5.1524 C   0  0  0  0  0  0  0  0  0  0  0  0
   -1.9778   -6.1301   -6.1619 C   0  0  0  0  0  0  0  0  0  0  0  0
   -3.2483   -6.6259   -5.8920 C   0  0  0  0  0  0  0  0  0  0  0  0
   -4.2624   -6.7838   -6.9797 C   0  0  0  0  0  0  0  0  0  0  0  0
   -3.5676   -6.9488   -4.5769 C   0  0  0  0  0  0  0  0  0  0  0  0
   -2.6532   -6.7721   -3.5586 C   0  0  0  0  0  0  0  0  0  0  0  0
    0.8963   -6.3953   -3.0357 C   0  0  0  0  0  0  0  0  0  0  0  0
    1.9050   -5.5333   -2.6122 C   0  0  0  0  0  0  0  0  0  0  0  0
    3.2256   -5.8657   -2.8332 C   0  0  0  0  0  0  0  0  0  0  0  0
    3.5721   -7.0451   -3.4843 C   0  0  0  0  0  0  0  0  0  0  0  0
    5.0120   -7.3966   -3.6960 C   0  0  0  0  0  0  0  0  0  0  0  0
    2.5550   -7.8856   -3.9188 C   0  0  0  0  0  0  0  0  0  0  0  0
    1.2277   -7.5713   -3.6981 C   0  0  0  0  0  0  0  0  0  0  0  0
   -0.1720   -5.8792   -0.3839 C   0  0  0  0  0  0  0  0  0  0  0  0
    1.1706   -6.8876    0.0574 S   0  0  0  0  0  0  0  0  0  0  0  0
   -2.5338   -3.8420   -2.3309 C   0  0  0  0  0  0  0  0  0  0  0  0
   -3.0460   -2.5658   -2.2214 C   0  0  0  0  0  0  0  0  0  0  0  0
   -4.1974   -2.1791   -3.0583 C   0  0  0  0  0  0  0  0  0  0  0  0
   -4.6957   -2.8210   -3.9570 O   0  0  0  0  0  0  0  0  0  0  0  0
   -4.6240   -0.8535   -2.5400 C   0  0  0  0  0  0  0  0  0  0  0  0
   -3.7122   -0.4297   -1.5545 C   0  0  0  0  0  0  0  0  0  0  0  0
   -3.9044    0.7724   -0.8982 C   0  0  0  0  0  0  0  0  0  0  0  0
   -5.0270    1.5268   -1.2127 C   0  0  0  0  0  0  0  0  0  0  0  0
   -5.9247    1.1048   -2.1793 C   0  0  0  0  0  0  0  0  0  0  0  0
   -7.4680    2.1375   -2.5143 Br  0  0  0  0  0  0  0  0  0  0  0  0
   -5.7254   -0.0889   -2.8826 C   0  0  0  0  0  0  0  0  0  0  0  0
   -6.8036   -0.5794   -4.1186 Cl  0  0  0  0  0  0  0  0  0  0  0  0
   -2.6498   -1.4308   -1.4396 C   0  0  0  0  0  0  0  0  0  0  0  0
   -1.3960   -1.1767   -0.9265 C   0  0  0  0  0  0  0  0  0  0  0  0
   -1.0127    0.0340   -0.3246 C   0  0  0  0  0  0  0  0  0  0  0  0
   -0.6311    1.0044    0.1596 N   0  0  0  0  0  0  0  0  0  0  0  0
   -0.2970   -2.0353   -1.0946 C   0  0  0  0  0  0  0  0  0  0  0  0
    0.6518   -2.6622   -1.2682 N   0  0  0  0  0  0  0  0  0  0  0  0
   -3.3705    6.4870   -6.1455 H   0  0  0  0  0  0  0  0  0  0  0  0
   -6.3566    4.1542  -10.2877 H   0  0  0  0  0  0  0  0  0  0  0  0
   -5.8523    2.2877  -11.8034 H   0  0  0  0  0  0  0  0  0  0  0  0
   -3.0148    0.1525   -4.2627 H   0  0  0  0  0  0  0  0  0  0  0  0
   -1.5567   -1.8250   -4.1850 H   0  0  0  0  0  0  0  0  0  0  0  0
    0.6195   -2.8352   -5.2090 H   0  0  0  0  0  0  0  0  0  0  0  0
    2.0561   -1.8028   -5.1307 H   0  0  0  0  0  0  0  0  0  0  0  0
    1.2058   -2.2671   -3.6508 H   0  0  0  0  0  0  0  0  0  0  0  0
    1.7352    0.5408   -5.4964 H   0  0  0  0  0  0  0  0  0  0  0  0
    0.2605    2.4960   -5.6680 H   0  0  0  0  0  0  0  0  0  0  0  0
   -4.3937    3.9781   -4.1132 H   0  0  0  0  0  0  0  0  0  0  0  0
   -6.6834    3.8266   -4.9523 H   0  0  0  0  0  0  0  0  0  0  0  0
   -7.9305    3.0857   -7.3910 H   0  0  0  0  0  0  0  0  0  0  0  0
   -7.8189    1.3257   -7.4986 H   0  0  0  0  0  0  0  0  0  0  0  0
   -8.3735    2.1003   -6.0046 H   0  0  0  0  0  0  0  0  0  0  0  0
   -5.5259    0.6724   -7.5798 H   0  0  0  0  0  0  0  0  0  0  0  0
   -3.2124    0.8662   -6.7987 H   0  0  0  0  0  0  0  0  0  0  0  0
   -1.6063    6.8098   -1.1808 H   0  0  0  0  0  0  0  0  0  0  0  0
   -2.9413    8.8655   -1.2716 H   0  0  0  0  0  0  0  0  0  0  0  0
   -2.6610   11.5110   -0.9888 H   0  0  0  0  0  0  0  0  0  0  0  0
   -1.5283   12.2288   -2.1422 H   0  0  0  0  0  0  0  0  0  0  0  0
   -2.8995   11.2733   -2.7155 H   0  0  0  0  0  0  0  0  0  0  0  0
    0.5098   11.0609   -2.4787 H   0  0  0  0  0  0  0  0  0  0  0  0
    1.8444    9.0013   -2.4242 H   0  0  0  0  0  0  0  0  0  0  0  0
    1.9366    8.0311    0.2132 H   0  0  0  0  0  0  0  0  0  0  0  0
    4.2143    7.9102    1.1150 H   0  0  0  0  0  0  0  0  0  0  0  0
    6.9734    5.9480   -0.4240 H   0  0  0  0  0  0  0  0  0  0  0  0
    6.6138    7.2983    0.6634 H   0  0  0  0  0  0  0  0  0  0  0  0
    6.2328    5.6494    1.1492 H   0  0  0  0  0  0  0  0  0  0  0  0
    5.2574    5.0625   -1.8827 H   0  0  0  0  0  0  0  0  0  0  0  0
    2.9922    5.1935   -2.8006 H   0  0  0  0  0  0  0  0  0  0  0  0
    1.3714    5.8716    1.9779 H   0  0  0  0  0  0  0  0  0  0  0  0
    0.3258    5.8687    0.5470 H   0  0  0  0  0  0  0  0  0  0  0  0
    0.1608    3.9230    2.8955 H   0  0  0  0  0  0  0  0  0  0  0  0
   -0.8206    3.8088    1.4334 H   0  0  0  0  0  0  0  0  0  0  0  0
   -0.9931    5.2036    2.5095 H   0  0  0  0  0  0  0  0  0  0  0  0
    5.2339    5.8134   11.0678 H   0  0  0  0  0  0  0  0  0  0  0  0
    5.2333    4.2558   11.9142 H   0  0  0  0  0  0  0  0  0  0  0  0
    7.4953    5.2678   11.9679 H   0  0  0  0  0  0  0  0  0  0  0  0
    7.5138    3.7700   11.0289 H   0  0  0  0  0  0  0  0  0  0  0  0
    7.5280    5.3315   10.2030 H   0  0  0  0  0  0  0  0  0  0  0  0
    3.6063    4.1438    6.7908 H   0  0  0  0  0  0  0  0  0  0  0  0
    4.5504   -2.2939    8.9579 H   0  0  0  0  0  0  0  0  0  0  0  0
    1.8875   -1.2137   12.8882 H   0  0  0  0  0  0  0  0  0  0  0  0
    1.9282    0.5466   12.6869 H   0  0  0  0  0  0  0  0  0  0  0  0
   -0.4136   -0.2594   12.7636 H   0  0  0  0  0  0  0  0  0  0  0  0
   -0.1097   -1.3287   11.3908 H   0  0  0  0  0  0  0  0  0  0  0  0
   -0.0503    0.4231   11.1737 H   0  0  0  0  0  0  0  0  0  0  0  0
    0.7693   -7.2312    4.4823 H   0  0  0  0  0  0  0  0  0  0  0  0
    1.2592   -5.9600    5.6170 H   0  0  0  0  0  0  0  0  0  0  0  0
    1.8802   -8.1993    6.4758 H   0  0  0  0  0  0  0  0  0  0  0  0
    3.3227   -7.2271    6.1701 H   0  0  0  0  0  0  0  0  0  0  0  0
    2.8579   -8.5007    5.0359 H   0  0  0  0  0  0  0  0  0  0  0  0
    6.1342   -3.9961    1.1934 H   0  0  0  0  0  0  0  0  0  0  0  0
    5.5466   -2.6338    0.2572 H   0  0  0  0  0  0  0  0  0  0  0  0
    7.9516   -2.6293    2.1641 H   0  0  0  0  0  0  0  0  0  0  0  0
    7.3813   -1.1996    1.3089 H   0  0  0  0  0  0  0  0  0  0  0  0
    8.0247   -2.5737    0.4000 H   0  0  0  0  0  0  0  0  0  0  0  0
    5.6374   -0.7194   -0.1198 H   0  0  0  0  0  0  0  0  0  0  0  0
    4.6983    0.6357   -0.7346 H   0  0  0  0  0  0  0  0  0  0  0  0
    2.5739   -0.4873   -0.2282 H   0  0  0  0  0  0  0  0  0  0  0  0
    3.4107   -1.8762    0.4561 H   0  0  0  0  0  0  0  0  0  0  0  0
    3.5590   -1.5096   -1.2656 H   0  0  0  0  0  0  0  0  0  0  0  0
   -0.5966   -4.0442    5.6422 H   0  0  0  0  0  0  0  0  0  0  0  0
   -1.9423   -5.1888    7.3380 H   0  0  0  0  0  0  0  0  0  0  0  0
   -4.3784   -6.9196    7.2011 H   0  0  0  0  0  0  0  0  0  0  0  0
   -2.9174   -7.4325    8.0386 H   0  0  0  0  0  0  0  0  0  0  0  0
   -3.6358   -8.4669    6.7947 H   0  0  0  0  0  0  0  0  0  0  0  0
   -3.0456   -8.1517    4.4779 H   0  0  0  0  0  0  0  0  0  0  0  0
   -1.7247   -7.0062    2.7717 H   0  0  0  0  0  0  0  0  0  0  0  0
    1.8638   -3.5007    2.2900 H   0  0  0  0  0  0  0  0  0  0  0  0
    2.2331   -1.0769    2.3906 H   0  0  0  0  0  0  0  0  0  0  0  0
    1.5388    1.0598    3.5867 H   0  0  0  0  0  0  0  0  0  0  0  0
    0.4451    1.2638    2.2156 H   0  0  0  0  0  0  0  0  0  0  0  0
   -0.1881    1.3377    3.8617 H   0  0  0  0  0  0  0  0  0  0  0  0
   -1.7096   -0.5315    3.9044 H   0  0  0  0  0  0  0  0  0  0  0  0
   -2.0729   -2.9555    3.8500 H   0  0  0  0  0  0  0  0  0  0  0  0
   -0.0716   -5.5533   -5.3714 H   0  0  0  0  0  0  0  0  0  0  0  0
   -1.7107   -5.8739   -7.1766 H   0  0  0  0  0  0  0  0  0  0  0  0
   -4.9297   -5.9216   -6.9832 H   0  0  0  0  0  0  0  0  0  0  0  0
   -3.7850   -6.8474   -7.9542 H   0  0  0  0  0  0  0  0  0  0  0  0
   -4.8676   -7.6736   -6.8204 H   0  0  0  0  0  0  0  0  0  0  0  0
   -4.5464   -7.3435   -4.3485 H   0  0  0  0  0  0  0  0  0  0  0  0
   -2.9101   -7.0283   -2.5408 H   0  0  0  0  0  0  0  0  0  0  0  0
    1.6473   -4.6076   -2.1202 H   0  0  0  0  0  0  0  0  0  0  0  0
    4.0031   -5.1950   -2.4981 H   0  0  0  0  0  0  0  0  0  0  0  0
    5.1141   -8.2264   -4.3903 H   0  0  0  0  0  0  0  0  0  0  0  0
    5.4678   -7.6836   -2.7483 H   0  0  0  0  0  0  0  0  0  0  0  0
    5.5631   -6.5422   -4.0846 H   0  0  0  0  0  0  0  0  0  0  0  0
    2.8022   -8.8042   -4.4304 H   0  0  0  0  0  0  0  0  0  0  0  0
    0.4447   -8.2356   -4.0328 H   0  0  0  0  0  0  0  0  0  0  0  0
   -2.8165   -4.3643   -3.2391 H   0  0  0  0  0  0  0  0  0  0  0  0
   -3.2211    1.1170   -0.1395 H   0  0  0  0  0  0  0  0  0  0  0  0
   -5.2153    2.4540   -0.6935 H   0  0  0  0  0  0  0  0  0  0  0  0
  1  2  2  0  0  0  0
  2  3  1  0  0  0  0
  3  4  2  0  0  0  0
  3  5  1  0  0  0  0
  5  6  2  0  0  0  0
  6  7  1  0  0  0  0
  7  8  2  0  0  0  0
  8  9  1  0  0  0  0
  9 10  1  0  0  0  0
  9 11  2  0  0  0  0
 11 12  1  0  0  0  0
  6 13  1  0  0  0  0
 13 14  2  0  0  0  0
 14 15  1  0  0  0  0
 15 16  3  0  0  0  0
 14 17  1  0  0  0  0
 17 18  3  0  0  0  0
  1 19  1  0  0  0  0
 19 20  2  0  0  0  0
 20 21  1  0  0  0  0
 21 22  1  0  0  0  0
 22 23  2  0  0  0  0
 23 24  1  0  0  0  0
 24 25  2  0  0  0  0
 25 26  1  0  0  0  0
 25 27  1  0  0  0  0
 27 28  2  0  0  0  0
 21 29  1  0  0  0  0
 29 30  2  0  0  0  0
 30 31  1  0  0  0  0
 31 32  2  0  0  0  0
 32 33  1  0  0  0  0
 32 34  1  0  0  0  0
 34 35  2  0  0  0  0
 20 36  1  0  0  0  0
 36 37  1  0  0  0  0
 37 38  1  0  0  0  0
 38 39  2  0  0  0  0
 39 40  1  0  0  0  0
 40 41  1  0  0  0  0
 41 42  2  0  0  0  0
 42 43  1  0  0  0  0
 43 44  2  0  0  0  0
 44 45  1  0  0  0  0
 44 46  1  0  0  0  0
 46 47  2  0  0  0  0
 40 48  1  0  0  0  0
 48 49  2  0  0  0  0
 49 50  1  0  0  0  0
 50 51  2  0  0  0  0
 51 52  1  0  0  0  0
 51 53  1  0  0  0  0
 53 54  2  0  0  0  0
 39 55  1  0  0  0  0
 55 56  1  0  0  0  0
 38 57  1  0  0  0  0
 57 58  2  0  0  0  0
 58 59  1  0  0  0  0
 59 60  1  0  0  0  0
 58 61  1  0  0  0  0
 61 62  1  0  0  0  0
 62 63  1  0  0  0  0
 63 64  1  0  0  0  0
 64 65  2  0  0  0  0
 65 66  1  0  0  0  0
 66 67  2  0  0  0  0
 67 68  1  0  0  0  0
 68 69  1  0  0  0  0
 69 70  1  0  0  0  0
 70 71  1  0  0  0  0
 71 72  1  0  0  0  0
 70 73  2  0  0  0  0
 73 74  1  0  0  0  0
 73 75  1  0  0  0  0
 67 76  1  0  0  0  0
 76 77  1  0  0  0  0
 77 78  2  0  0  0  0
 78 79  1  0  0  0  0
 79 80  1  0  0  0  0
 79 81  2  0  0  0  0
 81 82  1  0  0  0  0
 82 83  1  0  0  0  0
 81 84  1  0  0  0  0
 76 85  2  0  0  0  0
 85 86  1  0  0  0  0
 86 87  2  0  0  0  0
 87 88  1  0  0  0  0
 88 89  1  0  0  0  0
 89 90  1  0  0  0  0
 90 91  1  0  0  0  0
 91 92  1  0  0  0  0
 92 93  1  0  0  0  0
 91 94  2  0  0  0  0
 94 95  1  0  0  0  0
 95 96  1  0  0  0  0
 96 97  1  0  0  0  0
 97 98  1  0  0  0  0
 98 99  1  0  0  0  0
 99100  1  0  0  0  0
 98101  1  0  0  0  0
101102  2  0  0  0  0
102103  1  0  0  0  0
103104  1  0  0  0  0
104105  1  0  0  0  0
105106  1  0  0  0  0
103107  1  0  0  0  0
107108  1  0  0  0  0
 94109  1  0  0  0  0
109110  2  0  0  0  0
110111  1  0  0  0  0
111112  1  0  0  0  0
112113  2  0  0  0  0
113114  1  0  0  0  0
114115  2  0  0  0  0
115116  1  0  0  0  0
115117  1  0  0  0  0
117118  2  0  0  0  0
111119  1  0  0  0  0
119120  2  0  0  0  0
120121  1  0  0  0  0
121122  2  0  0  0  0
122123  1  0  0  0  0
122124  1  0  0  0  0
124125  2  0  0  0  0
110126  1  0  0  0  0
126127  1  0  0  0  0
127128  1  0  0  0  0
128129  2  0  0  0  0
129130  1  0  0  0  0
130131  1  0  0  0  0
131132  2  0  0  0  0
132133  1  0  0  0  0
133134  2  0  0  0  0
134135  1  0  0  0  0
134136  1  0  0  0  0
136137  2  0  0  0  0
130138  1  0  0  0  0
138139  2  0  0  0  0
139140  1  0  0  0  0
140141  2  0  0  0  0
141142  1  0  0  0  0
141143  1  0  0  0  0
143144  2  0  0  0  0
129145  1  0  0  0  0
145146  1  0  0  0  0
128147  1  0  0  0  0
147148  2  0  0  0  0
148149  1  0  0  0  0
149150  2  0  0  0  0
149151  1  0  0  0  0
151152  2  0  0  0  0
152153  1  0  0  0  0
153154  2  0  0  0  0
154155  1  0  0  0  0
155156  1  0  0  0  0
155157  2  0  0  0  0
157158  1  0  0  0  0
152159  1  0  0  0  0
159160  2  0  0  0  0
160161  1  0  0  0  0
161162  3  0  0  0  0
160163  1  0  0  0  0
163164  3  0  0  0  0
 13  2  1  0  0  0  0
 56 19  1  0  0  0  0
106 57  1  0  0  0  0
146109  1  0  0  0  0
159148  1  0  0  0  0
 11  5  1  0  0  0  0
 28 22  1  0  0  0  0
 35 29  1  0  0  0  0
 55 36  2  0  0  0  0
105 61  2  0  0  0  0
118112  1  0  0  0  0
125119  1  0  0  0  0
145126  2  0  0  0  0
157151  1  0  0  0  0
 47 41  1  0  0  0  0
 54 48  1  0  0  0  0
104 63  2  0  0  0  0
137131  1  0  0  0  0
144138  1  0  0  0  0
102 64  1  0  0  0  0
 86 65  1  0  0  0  0
101 87  1  0  0  0  0
 74 68  2  0  0  0  0
 84 77  1  0  0  0  0
 97 88  2  0  0  0  0
 96 90  2  0  0  0  0
  1165  1  0  0  0  0
  7166  1  0  0  0  0
  8167  1  0  0  0  0
 23168  1  0  0  0  0
 24169  1  0  0  0  0
 26170  1  0  0  0  0
 26171  1  0  0  0  0
 26172  1  0  0  0  0
 27173  1  0  0  0  0
 28174  1  0  0  0  0
 30175  1  0  0  0  0
 31176  1  0  0  0  0
 33177  1  0  0  0  0
 33178  1  0  0  0  0
 33179  1  0  0  0  0
 34180  1  0  0  0  0
 35181  1  0  0  0  0
 42182  1  0  0  0  0
 43183  1  0  0  0  0
 45184  1  0  0  0  0
 45185  1  0  0  0  0
 45186  1  0  0  0  0
 46187  1  0  0  0  0
 47188  1  0  0  0  0
 49189  1  0  0  0  0
 50190  1  0  0  0  0
 52191  1  0  0  0  0
 52192  1  0  0  0  0
 52193  1  0  0  0  0
 53194  1  0  0  0  0
 54195  1  0  0  0  0
 59196  1  0  0  0  0
 59197  1  0  0  0  0
 60198  1  0  0  0  0
 60199  1  0  0  0  0
 60200  1  0  0  0  0
 71201  1  0  0  0  0
 71202  1  0  0  0  0
 72203  1  0  0  0  0
 72204  1  0  0  0  0
 72205  1  0  0  0  0
 74206  1  0  0  0  0
 78207  1  0  0  0  0
 82208  1  0  0  0  0
 82209  1  0  0  0  0
 83210  1  0  0  0  0
 83211  1  0  0  0  0
 83212  1  0  0  0  0
 92213  1  0  0  0  0
 92214  1  0  0  0  0
 93215  1  0  0  0  0
 93216  1  0  0  0  0
 93217  1  0  0  0  0
 99218  1  0  0  0  0
 99219  1  0  0  0  0
100220  1  0  0  0  0
100221  1  0  0  0  0
100222  1  0  0  0  0
107223  1  0  0  0  0
107224  1  0  0  0  0
108225  1  0  0  0  0
108226  1  0  0  0  0
108227  1  0  0  0  0
113228  1  0  0  0  0
114229  1  0  0  0  0
116230  1  0  0  0  0
116231  1  0  0  0  0
116232  1  0  0  0  0
117233  1  0  0  0  0
118234  1  0  0  0  0
120235  1  0  0  0  0
121236  1  0  0  0  0
123237  1  0  0  0  0
123238  1  0  0  0  0
123239  1  0  0  0  0
124240  1  0  0  0  0
125241  1  0  0  0  0
132242  1  0  0  0  0
133243  1  0  0  0  0
135244  1  0  0  0  0
135245  1  0  0  0  0
135246  1  0  0  0  0
136247  1  0  0  0  0
137248  1  0  0  0  0
139249  1  0  0  0  0
140250  1  0  0  0  0
142251  1  0  0  0  0
142252  1  0  0  0  0
142253  1  0  0  0  0
143254  1  0  0  0  0
144255  1  0  0  0  0
147256  1  0  0  0  0
153257  1  0  0  0  0
154258  1  0  0  0  0
M  END
