
  xtb     02072219343D
 energy: -349.917422522976 gnorm: 0.000713913727 xtb: 6.4.1 (unknown)
195217  0     0  0            999 V2000
    4.3327    9.3340    0.6001 C   0  0  0  0  0  0  0  0  0  0  0  0
    4.8583    9.9236    1.7366 C   0  0  0  0  0  0  0  0  0  0  0  0
    4.9491    9.3125    3.0584 C   0  0  0  0  0  0  0  0  0  0  0  0
    4.6185    8.1889    3.3938 O   0  0  0  0  0  0  0  0  0  0  0  0
    5.5051   10.3547    3.9503 C   0  0  0  0  0  0  0  0  0  0  0  0
    5.7058   11.5352    3.2129 C   0  0  0  0  0  0  0  0  0  0  0  0
    6.2061   12.6635    3.8408 C   0  0  0  0  0  0  0  0  0  0  0  0
    6.5031   12.5944    5.1951 C   0  0  0  0  0  0  0  0  0  0  0  0
    6.3150   11.4245    5.9132 C   0  0  0  0  0  0  0  0  0  0  0  0
    6.7547   11.3891    7.7518 Br  0  0  0  0  0  0  0  0  0  0  0  0
    5.8087   10.2745    5.2977 C   0  0  0  0  0  0  0  0  0  0  0  0
    5.5813    8.8210    6.1743 Cl  0  0  0  0  0  0  0  0  0  0  0  0
    5.3375   11.2781    1.8188 C   0  0  0  0  0  0  0  0  0  0  0  0
    5.4765   12.1848    0.7928 C   0  0  0  0  0  0  0  0  0  0  0  0
    5.2870   11.9107   -0.5740 C   0  0  0  0  0  0  0  0  0  0  0  0
    5.2006   11.7680   -1.7120 N   0  0  0  0  0  0  0  0  0  0  0  0
    5.8705   13.5254    0.9699 C   0  0  0  0  0  0  0  0  0  0  0  0
    6.1648   14.6333    1.0440 N   0  0  0  0  0  0  0  0  0  0  0  0
    3.8771    8.0414    0.3839 C   0  0  0  0  0  0  0  0  0  0  0  0
    3.4244    7.5811   -0.8877 C   0  0  0  0  0  0  0  0  0  0  0  0
    3.1089    8.3821   -1.9464 N   0  0  0  0  0  0  0  0  0  0  0  0
    2.4888    9.6362   -1.7727 C   0  0  0  0  0  0  0  0  0  0  0  0
    1.5634    9.8330   -0.7509 C   0  0  0  0  0  0  0  0  0  0  0  0
    0.9638   11.0659   -0.5897 C   0  0  0  0  0  0  0  0  0  0  0  0
    1.2531   12.1226   -1.4453 C   0  0  0  0  0  0  0  0  0  0  0  0
    0.6173   13.4659   -1.2650 C   0  0  0  0  0  0  0  0  0  0  0  0
    2.1558   11.9061   -2.4801 C   0  0  0  0  0  0  0  0  0  0  0  0
    2.7741   10.6830   -2.6460 C   0  0  0  0  0  0  0  0  0  0  0  0
    3.2838    7.9028   -3.2593 C   0  0  0  0  0  0  0  0  0  0  0  0
    4.4628    7.2581   -3.6182 C   0  0  0  0  0  0  0  0  0  0  0  0
    4.6651    6.8662   -4.9271 C   0  0  0  0  0  0  0  0  0  0  0  0
    3.7038    7.1000   -5.9016 C   0  0  0  0  0  0  0  0  0  0  0  0
    3.9475    6.7531   -7.3374 C   0  0  0  0  0  0  0  0  0  0  0  0
    2.5119    7.7097   -5.5231 C   0  0  0  0  0  0  0  0  0  0  0  0
    2.2981    8.1089   -4.2206 C   0  0  0  0  0  0  0  0  0  0  0  0
    3.2964    6.1828   -0.8937 C   0  0  0  0  0  0  0  0  0  0  0  0
    2.8432    4.9985   -2.0782 S   0  0  0  0  0  0  0  0  0  0  0  0
    2.8934    3.7225   -0.8591 C   0  0  0  0  0  0  0  0  0  0  0  0
    3.2134    4.2170    0.3998 C   0  0  0  0  0  0  0  0  0  0  0  0
    3.3220    3.4969    1.5866 N   0  0  0  0  0  0  0  0  0  0  0  0
    2.2232    2.8103    2.1079 C   0  0  0  0  0  0  0  0  0  0  0  0
    2.4243    1.7253    2.9621 C   0  0  0  0  0  0  0  0  0  0  0  0
    1.3471    1.0095    3.4374 C   0  0  0  0  0  0  0  0  0  0  0  0
    0.0433    1.3490    3.0865 C   0  0  0  0  0  0  0  0  0  0  0  0
   -1.1171    0.5625    3.6166 C   0  0  0  0  0  0  0  0  0  0  0  0
   -0.1514    2.4453    2.2588 C   0  0  0  0  0  0  0  0  0  0  0  0
    0.9192    3.1735    1.7747 C   0  0  0  0  0  0  0  0  0  0  0  0
    4.3927    3.8604    2.4283 C   0  0  0  0  0  0  0  0  0  0  0  0
    5.6641    4.0103    1.8831 C   0  0  0  0  0  0  0  0  0  0  0  0
    6.7135    4.4357    2.6740 C   0  0  0  0  0  0  0  0  0  0  0  0
    6.5269    4.7118    4.0217 C   0  0  0  0  0  0  0  0  0  0  0  0
    7.6488    5.2162    4.8751 C   0  0  0  0  0  0  0  0  0  0  0  0
    5.2578    4.5359    4.5621 C   0  0  0  0  0  0  0  0  0  0  0  0
    4.1994    4.1197    3.7821 C   0  0  0  0  0  0  0  0  0  0  0  0
    3.4911    5.6029    0.3522 C   0  0  0  0  0  0  0  0  0  0  0  0
    3.9433    6.7349    1.5720 S   0  0  0  0  0  0  0  0  0  0  0  0
    2.6109    2.3930   -1.2932 C   0  0  0  0  0  0  0  0  0  0  0  0
    2.8701    1.8758   -2.5512 C   0  0  0  0  0  0  0  0  0  0  0  0
    3.6731    2.5384   -3.5953 C   0  0  0  0  0  0  0  0  0  0  0  0
    5.0512    2.5937   -3.4088 C   0  0  0  0  0  0  0  0  0  0  0  0
    5.8729    3.1108   -4.3901 C   0  0  0  0  0  0  0  0  0  0  0  0
    5.3168    3.5758   -5.5695 C   0  0  0  0  0  0  0  0  0  0  0  0
    3.9468    3.5490   -5.7438 C   0  0  0  0  0  0  0  0  0  0  0  0
    3.1041    3.0360   -4.7666 C   0  0  0  0  0  0  0  0  0  0  0  0
    1.6168    3.0521   -4.9812 C   0  0  0  0  0  0  0  0  0  0  0  0
    1.1915    2.1398   -6.1314 C   0  0  0  0  0  0  0  0  0  0  0  0
    2.4031    0.5565   -2.6788 C   0  0  0  0  0  0  0  0  0  0  0  0
    2.4382   -0.5975   -3.9920 S   0  0  0  0  0  0  0  0  0  0  0  0
    1.5745   -1.7202   -2.9937 C   0  0  0  0  0  0  0  0  0  0  0  0
    0.9812   -2.9861   -3.0813 C   0  0  0  0  0  0  0  0  0  0  0  0
    0.8632   -3.8655   -4.1794 C   0  0  0  0  0  0  0  0  0  0  0  0
    0.0705   -5.0489   -4.0337 C   0  0  0  0  0  0  0  0  0  0  0  0
    0.0040   -5.7557   -5.1509 N   0  0  0  0  0  0  0  0  0  0  0  0
    0.8708   -4.9966   -6.2885 S   0  0  0  0  0  0  0  0  0  0  0  0
    1.3607   -3.7356   -5.3994 N   0  0  0  0  0  0  0  0  0  0  0  0
   -0.5001   -5.3350   -2.7742 C   0  0  0  0  0  0  0  0  0  0  0  0
   -1.2758   -6.4210   -2.3546 C   0  0  0  0  0  0  0  0  0  0  0  0
   -2.0069   -7.8430   -3.0147 S   0  0  0  0  0  0  0  0  0  0  0  0
   -2.6419   -8.2152   -1.4232 C   0  0  0  0  0  0  0  0  0  0  0  0
   -3.4784   -9.2359   -0.9655 C   0  0  0  0  0  0  0  0  0  0  0  0
   -4.1020  -10.2018   -1.8800 C   0  0  0  0  0  0  0  0  0  0  0  0
   -3.3549  -11.1279   -2.6101 C   0  0  0  0  0  0  0  0  0  0  0  0
   -1.8854  -11.3312   -2.3772 C   0  0  0  0  0  0  0  0  0  0  0  0
   -1.6668  -12.4637   -1.3719 C   0  0  0  0  0  0  0  0  0  0  0  0
   -4.0206  -11.9521   -3.5082 C   0  0  0  0  0  0  0  0  0  0  0  0
   -5.3879  -11.8665   -3.6905 C   0  0  0  0  0  0  0  0  0  0  0  0
   -6.1224  -10.9435   -2.9651 C   0  0  0  0  0  0  0  0  0  0  0  0
   -5.4797  -10.1138   -2.0686 C   0  0  0  0  0  0  0  0  0  0  0  0
   -3.7733   -9.0778    0.3928 C   0  0  0  0  0  0  0  0  0  0  0  0
   -3.0224   -7.6394    1.0767 S   0  0  0  0  0  0  0  0  0  0  0  0
   -2.2901   -7.2711   -0.4454 C   0  0  0  0  0  0  0  0  0  0  0  0
   -1.5133   -6.2458   -0.9846 C   0  0  0  0  0  0  0  0  0  0  0  0
   -0.9296   -5.0848   -0.5522 N   0  0  0  0  0  0  0  0  0  0  0  0
   -0.3065   -4.4897   -1.6379 C   0  0  0  0  0  0  0  0  0  0  0  0
    0.3763   -3.2580   -1.8165 C   0  0  0  0  0  0  0  0  0  0  0  0
    0.6046   -2.1644   -0.9928 N   0  0  0  0  0  0  0  0  0  0  0  0
    1.3062   -1.2376   -1.7102 C   0  0  0  0  0  0  0  0  0  0  0  0
    1.7828    0.0656   -1.5289 C   0  0  0  0  0  0  0  0  0  0  0  0
    1.7912    1.2316   -0.2577 S   0  0  0  0  0  0  0  0  0  0  0  0
   -0.0065   -1.7659    0.2550 C   0  0  0  0  0  0  0  0  0  0  0  0
   -1.5019   -1.5067    0.0883 C   0  0  0  0  0  0  0  0  0  0  0  0
   -0.7555   -4.8800    0.8685 C   0  0  0  0  0  0  0  0  0  0  0  0
    0.6967   -5.0972    1.2877 C   0  0  0  0  0  0  0  0  0  0  0  0
   -4.5994   -9.8529    1.2372 C   0  0  0  0  0  0  0  0  0  0  0  0
   -5.0641   -9.3311    2.4700 C   0  0  0  0  0  0  0  0  0  0  0  0
   -6.0780   -9.9725    3.2737 C   0  0  0  0  0  0  0  0  0  0  0  0
   -6.3047   -9.2976    4.3989 N   0  0  0  0  0  0  0  0  0  0  0  0
   -5.3977   -7.9790    4.4240 S   0  0  0  0  0  4  0  0  0  0  0  0
   -4.6353   -8.1982    3.0249 N   0  0  0  0  0  0  0  0  0  0  0  0
   -6.6826  -11.1927    2.8921 C   0  0  0  0  0  0  0  0  0  0  0  0
   -6.0648  -11.8160    1.7804 C   0  0  0  0  0  0  0  0  0  0  0  0
   -6.3483  -13.0357    1.3275 N   0  0  0  0  0  0  0  0  0  0  0  0
   -5.4070  -13.3629    0.0665 S   0  0  0  0  0  0  0  0  0  0  0  0
   -4.6128  -11.9732    0.0070 N   0  0  0  0  0  0  0  0  0  0  0  0
   -5.0498  -11.1698    0.9750 C   0  0  0  0  0  0  0  0  0  0  0  0
   -7.7495  -11.8153    3.5709 C   0  0  0  0  0  0  0  0  0  0  0  0
   -8.7123  -11.1731    4.3108 C   0  0  0  0  0  0  0  0  0  0  0  0
   -9.0705   -9.7486    4.1592 C   0  0  0  0  0  0  0  0  0  0  0  0
   -8.6435   -8.9489    3.3540 O   0  0  0  0  0  0  0  0  0  0  0  0
  -10.1978   -9.5261    5.0975 C   0  0  0  0  0  0  0  0  0  0  0  0
  -10.5542  -10.7446    5.7019 C   0  0  0  0  0  0  0  0  0  0  0  0
  -11.6052  -10.7895    6.6035 C   0  0  0  0  0  0  0  0  0  0  0  0
  -12.2811   -9.6136    6.8960 C   0  0  0  0  0  0  0  0  0  0  0  0
  -11.9208   -8.4137    6.3036 C   0  0  0  0  0  0  0  0  0  0  0  0
  -12.8707   -6.8427    6.7545 Br  0  0  0  0  0  0  0  0  0  0  0  0
  -10.8698   -8.3503    5.3832 C   0  0  0  0  0  0  0  0  0  0  0  0
  -10.4204   -6.8692    4.6499 Cl  0  0  0  0  0  0  0  0  0  0  0  0
   -9.6477  -11.7873    5.2194 C   0  0  0  0  0  0  0  0  0  0  0  0
   -9.6551  -13.0961    5.6342 C   0  0  0  0  0  0  0  0  0  0  0  0
   -8.7233  -14.0787    5.2396 C   0  0  0  0  0  0  0  0  0  0  0  0
   -7.9979  -14.9344    4.9931 N   0  0  0  0  0  0  0  0  0  0  0  0
  -10.5954  -13.6376    6.5334 C   0  0  0  0  0  0  0  0  0  0  0  0
  -11.3342  -14.1424    7.2536 N   0  0  0  0  0  0  0  0  0  0  0  0
    4.2845    9.9719   -0.2731 H   0  0  0  0  0  0  0  0  0  0  0  0
    6.3689   13.5860    3.3094 H   0  0  0  0  0  0  0  0  0  0  0  0
    6.8927   13.4633    5.7027 H   0  0  0  0  0  0  0  0  0  0  0  0
    1.3188    9.0193   -0.0840 H   0  0  0  0  0  0  0  0  0  0  0  0
    0.2513   11.2048    0.2105 H   0  0  0  0  0  0  0  0  0  0  0  0
    1.3750   14.2086   -1.0165 H   0  0  0  0  0  0  0  0  0  0  0  0
   -0.1218   13.4456   -0.4682 H   0  0  0  0  0  0  0  0  0  0  0  0
    0.1317   13.7851   -2.1858 H   0  0  0  0  0  0  0  0  0  0  0  0
    2.3934   12.7129   -3.1564 H   0  0  0  0  0  0  0  0  0  0  0  0
    3.4862   10.5370   -3.4423 H   0  0  0  0  0  0  0  0  0  0  0  0
    5.2295    7.0941   -2.8753 H   0  0  0  0  0  0  0  0  0  0  0  0
    5.5947    6.3879   -5.1949 H   0  0  0  0  0  0  0  0  0  0  0  0
    4.7946    6.0811   -7.4398 H   0  0  0  0  0  0  0  0  0  0  0  0
    3.0672    6.2906   -7.7796 H   0  0  0  0  0  0  0  0  0  0  0  0
    4.1619    7.6602   -7.9034 H   0  0  0  0  0  0  0  0  0  0  0  0
    1.7446    7.8828   -6.2636 H   0  0  0  0  0  0  0  0  0  0  0  0
    1.3732    8.5910   -3.9408 H   0  0  0  0  0  0  0  0  0  0  0  0
    3.4315    1.4452    3.2319 H   0  0  0  0  0  0  0  0  0  0  0  0
    1.5181    0.1641    4.0885 H   0  0  0  0  0  0  0  0  0  0  0  0
   -0.8727   -0.4965    3.6749 H   0  0  0  0  0  0  0  0  0  0  0  0
   -1.9947    0.6926    2.9878 H   0  0  0  0  0  0  0  0  0  0  0  0
   -1.3703    0.9009    4.6218 H   0  0  0  0  0  0  0  0  0  0  0  0
   -1.1551    2.7379    1.9864 H   0  0  0  0  0  0  0  0  0  0  0  0
    0.7497    4.0258    1.1330 H   0  0  0  0  0  0  0  0  0  0  0  0
    5.8199    3.8056    0.8331 H   0  0  0  0  0  0  0  0  0  0  0  0
    7.6924    4.5589    2.2330 H   0  0  0  0  0  0  0  0  0  0  0  0
    7.5045    6.2766    5.0830 H   0  0  0  0  0  0  0  0  0  0  0  0
    8.6073    5.0932    4.3768 H   0  0  0  0  0  0  0  0  0  0  0  0
    7.6763    4.6918    5.8286 H   0  0  0  0  0  0  0  0  0  0  0  0
    5.0923    4.7503    5.6078 H   0  0  0  0  0  0  0  0  0  0  0  0
    3.2141    4.0164    4.2114 H   0  0  0  0  0  0  0  0  0  0  0  0
    5.4724    2.2135   -2.4886 H   0  0  0  0  0  0  0  0  0  0  0  0
    6.9417    3.1419   -4.2391 H   0  0  0  0  0  0  0  0  0  0  0  0
    5.9552    3.9599   -6.3520 H   0  0  0  0  0  0  0  0  0  0  0  0
    3.5148    3.9322   -6.6554 H   0  0  0  0  0  0  0  0  0  0  0  0
    1.1085    2.7436   -4.0659 H   0  0  0  0  0  0  0  0  0  0  0  0
    1.3107    4.0787   -5.2027 H   0  0  0  0  0  0  0  0  0  0  0  0
    1.4925    1.1140   -5.9342 H   0  0  0  0  0  0  0  0  0  0  0  0
    0.1111    2.1672   -6.2528 H   0  0  0  0  0  0  0  0  0  0  0  0
    1.6509    2.4553   -7.0646 H   0  0  0  0  0  0  0  0  0  0  0  0
   -1.4238  -10.4230   -1.9919 H   0  0  0  0  0  0  0  0  0  0  0  0
   -1.3991  -11.5843   -3.3215 H   0  0  0  0  0  0  0  0  0  0  0  0
   -2.0751  -13.3960   -1.7547 H   0  0  0  0  0  0  0  0  0  0  0  0
   -2.1710  -12.2309   -0.4374 H   0  0  0  0  0  0  0  0  0  0  0  0
   -0.6054  -12.6000   -1.1784 H   0  0  0  0  0  0  0  0  0  0  0  0
   -3.4502  -12.6745   -4.0744 H   0  0  0  0  0  0  0  0  0  0  0  0
   -5.8818  -12.5181   -4.3960 H   0  0  0  0  0  0  0  0  0  0  0  0
   -7.1911  -10.8671   -3.0997 H   0  0  0  0  0  0  0  0  0  0  0  0
   -6.0430   -9.3851   -1.5022 H   0  0  0  0  0  0  0  0  0  0  0  0
    0.1940   -2.5029    1.0312 H   0  0  0  0  0  0  0  0  0  0  0  0
    0.4841   -0.8384    0.5620 H   0  0  0  0  0  0  0  0  0  0  0  0
   -2.0106   -2.3782   -0.3177 H   0  0  0  0  0  0  0  0  0  0  0  0
   -1.9433   -1.2529    1.0479 H   0  0  0  0  0  0  0  0  0  0  0  0
   -1.6575   -0.6747   -0.5943 H   0  0  0  0  0  0  0  0  0  0  0  0
   -1.1205   -3.8973    1.1645 H   0  0  0  0  0  0  0  0  0  0  0  0
   -1.3879   -5.6195    1.3657 H   0  0  0  0  0  0  0  0  0  0  0  0
    0.8065   -4.9197    2.3540 H   0  0  0  0  0  0  0  0  0  0  0  0
    1.3675   -4.4328    0.7473 H   0  0  0  0  0  0  0  0  0  0  0  0
    0.9934   -6.1217    1.0758 H   0  0  0  0  0  0  0  0  0  0  0  0
   -7.8045  -12.8893    3.4447 H   0  0  0  0  0  0  0  0  0  0  0  0
  -11.9085  -11.7074    7.0783 H   0  0  0  0  0  0  0  0  0  0  0  0
  -13.1013   -9.6262    7.5973 H   0  0  0  0  0  0  0  0  0  0  0  0
  1  2  2  0  0  0  0
  2  3  1  0  0  0  0
  3  4  2  0  0  0  0
  3  5  1  0  0  0  0
  5  6  2  0  0  0  0
  6  7  1  0  0  0  0
  7  8  2  0  0  0  0
  8  9  1  0  0  0  0
  9 10  1  0  0  0  0
  9 11  2  0  0  0  0
 11 12  1  0  0  0  0
  6 13  1  0  0  0  0
 13 14  2  0  0  0  0
 14 15  1  0  0  0  0
 15 16  3  0  0  0  0
 14 17  1  0  0  0  0
 17 18  3  0  0  0  0
  1 19  1  0  0  0  0
 19 20  2  0  0  0  0
 20 21  1  0  0  0  0
 21 22  1  0  0  0  0
 22 23  2  0  0  0  0
 23 24  1  0  0  0  0
 24 25  2  0  0  0  0
 25 26  1  0  0  0  0
 25 27  1  0  0  0  0
 27 28  2  0  0  0  0
 21 29  1  0  0  0  0
 29 30  2  0  0  0  0
 30 31  1  0  0  0  0
 31 32  2  0  0  0  0
 32 33  1  0  0  0  0
 32 34  1  0  0  0  0
 34 35  2  0  0  0  0
 20 36  1  0  0  0  0
 36 37  1  0  0  0  0
 37 38  1  0  0  0  0
 38 39  2  0  0  0  0
 39 40  1  0  0  0  0
 40 41  1  0  0  0  0
 41 42  2  0  0  0  0
 42 43  1  0  0  0  0
 43 44  2  0  0  0  0
 44 45  1  0  0  0  0
 44 46  1  0  0  0  0
 46 47  2  0  0  0  0
 40 48  1  0  0  0  0
 48 49  2  0  0  0  0
 49 50  1  0  0  0  0
 50 51  2  0  0  0  0
 51 52  1  0  0  0  0
 51 53  1  0  0  0  0
 53 54  2  0  0  0  0
 39 55  1  0  0  0  0
 55 56  1  0  0  0  0
 38 57  1  0  0  0  0
 57 58  2  0  0  0  0
 58 59  1  0  0  0  0
 59 60  2  0  0  0  0
 60 61  1  0  0  0  0
 61 62  2  0  0  0  0
 62 63  1  0  0  0  0
 63 64  2  0  0  0  0
 64 65  1  0  0  0  0
 65 66  1  0  0  0  0
 58 67  1  0  0  0  0
 67 68  1  0  0  0  0
 68 69  1  0  0  0  0
 69 70  1  0  0  0  0
 70 71  1  0  0  0  0
 71 72  1  0  0  0  0
 72 73  2  0  0  0  0
 73 74  1  0  0  0  0
 74 75  1  0  0  0  0
 72 76  1  0  0  0  0
 76 77  1  0  0  0  0
 77 78  1  0  0  0  0
 78 79  1  0  0  0  0
 79 80  1  0  0  0  0
 80 81  1  0  0  0  0
 81 82  2  0  0  0  0
 82 83  1  0  0  0  0
 83 84  1  0  0  0  0
 82 85  1  0  0  0  0
 85 86  2  0  0  0  0
 86 87  1  0  0  0  0
 87 88  2  0  0  0  0
 80 89  2  0  0  0  0
 89 90  1  0  0  0  0
 90 91  1  0  0  0  0
 91 92  1  0  0  0  0
 92 93  1  0  0  0  0
 93 94  1  0  0  0  0
 94 95  1  0  0  0  0
 95 96  1  0  0  0  0
 96 97  1  0  0  0  0
 97 98  1  0  0  0  0
 98 99  1  0  0  0  0
 96100  1  0  0  0  0
100101  1  0  0  0  0
 93102  1  0  0  0  0
102103  1  0  0  0  0
 89104  1  0  0  0  0
104105  2  0  0  0  0
105106  1  0  0  0  0
106107  1  0  0  0  0
107108  2  0  0  0  0
108109  2  0  0  0  0
106110  2  0  0  0  0
110111  1  0  0  0  0
111112  2  0  0  0  0
112113  1  0  0  0  0
113114  1  0  0  0  0
114115  2  0  0  0  0
110116  1  0  0  0  0
116117  2  0  0  0  0
117118  1  0  0  0  0
118119  2  0  0  0  0
118120  1  0  0  0  0
120121  2  0  0  0  0
121122  1  0  0  0  0
122123  2  0  0  0  0
123124  1  0  0  0  0
124125  1  0  0  0  0
124126  2  0  0  0  0
126127  1  0  0  0  0
121128  1  0  0  0  0
128129  2  0  0  0  0
129130  1  0  0  0  0
130131  3  0  0  0  0
129132  1  0  0  0  0
132133  3  0  0  0  0
 13  2  1  0  0  0  0
 56 19  1  0  0  0  0
 99 57  1  0  0  0  0
115104  1  0  0  0  0
128117  1  0  0  0  0
 11  5  1  0  0  0  0
 28 22  1  0  0  0  0
 35 29  1  0  0  0  0
 55 36  2  0  0  0  0
 64 59  1  0  0  0  0
 98 67  2  0  0  0  0
109105  1  0  0  0  0
115111  1  0  0  0  0
126120  1  0  0  0  0
 47 41  1  0  0  0  0
 54 48  1  0  0  0  0
 97 69  2  0  0  0  0
 95 70  2  0  0  0  0
 75 71  2  0  0  0  0
 94 76  2  0  0  0  0
 92 77  2  0  0  0  0
 91 79  2  0  0  0  0
 88 81  1  0  0  0  0
  1134  1  0  0  0  0
  7135  1  0  0  0  0
  8136  1  0  0  0  0
 23137  1  0  0  0  0
 24138  1  0  0  0  0
 26139  1  0  0  0  0
 26140  1  0  0  0  0
 26141  1  0  0  0  0
 27142  1  0  0  0  0
 28143  1  0  0  0  0
 30144  1  0  0  0  0
 31145  1  0  0  0  0
 33146  1  0  0  0  0
 33147  1  0  0  0  0
 33148  1  0  0  0  0
 34149  1  0  0  0  0
 35150  1  0  0  0  0
 42151  1  0  0  0  0
 43152  1  0  0  0  0
 45153  1  0  0  0  0
 45154  1  0  0  0  0
 45155  1  0  0  0  0
 46156  1  0  0  0  0
 47157  1  0  0  0  0
 49158  1  0  0  0  0
 50159  1  0  0  0  0
 52160  1  0  0  0  0
 52161  1  0  0  0  0
 52162  1  0  0  0  0
 53163  1  0  0  0  0
 54164  1  0  0  0  0
 60165  1  0  0  0  0
 61166  1  0  0  0  0
 62167  1  0  0  0  0
 63168  1  0  0  0  0
 65169  1  0  0  0  0
 65170  1  0  0  0  0
 66171  1  0  0  0  0
 66172  1  0  0  0  0
 66173  1  0  0  0  0
 83174  1  0  0  0  0
 83175  1  0  0  0  0
 84176  1  0  0  0  0
 84177  1  0  0  0  0
 84178  1  0  0  0  0
 85179  1  0  0  0  0
 86180  1  0  0  0  0
 87181  1  0  0  0  0
 88182  1  0  0  0  0
100183  1  0  0  0  0
100184  1  0  0  0  0
101185  1  0  0  0  0
101186  1  0  0  0  0
101187  1  0  0  0  0
102188  1  0  0  0  0
102189  1  0  0  0  0
103190  1  0  0  0  0
103191  1  0  0  0  0
103192  1  0  0  0  0
116193  1  0  0  0  0
122194  1  0  0  0  0
123195  1  0  0  0  0
M  END
