
  xtb     02062221303D
 energy: -385.368439002450 gnorm: 0.000256381912 xtb: 6.4.1 (unknown)
235258  0     0  0            999 V2000
    1.2181  -10.0286    4.9476 C   0  0  0  0  0  0  0  0  0  0  0  0
    2.1096  -11.0842    5.0429 C   0  0  0  0  0  0  0  0  0  0  0  0
    2.3057  -12.0759    3.9828 C   0  0  0  0  0  0  0  0  0  0  0  0
    1.7353  -12.1337    2.9102 O   0  0  0  0  0  0  0  0  0  0  0  0
    3.2478  -13.0739    4.5487 C   0  0  0  0  0  0  0  0  0  0  0  0
    3.5726  -12.7119    5.8676 C   0  0  0  0  0  0  0  0  0  0  0  0
    4.4370  -13.4959    6.6105 C   0  0  0  0  0  0  0  0  0  0  0  0
    4.9830  -14.6267    6.0183 C   0  0  0  0  0  0  0  0  0  0  0  0
    4.6753  -14.9686    4.7119 C   0  0  0  0  0  0  0  0  0  0  0  0
    5.4801  -16.5003    3.9465 Br  0  0  0  0  0  0  0  0  0  0  0  0
    3.7908  -14.1959    3.9517 C   0  0  0  0  0  0  0  0  0  0  0  0
    3.4198  -14.6045    2.3286 Cl  0  0  0  0  0  0  0  0  0  0  0  0
    2.8899  -11.4566    6.1825 C   0  0  0  0  0  0  0  0  0  0  0  0
    3.1138  -10.6828    7.2975 C   0  0  0  0  0  0  0  0  0  0  0  0
    2.5582   -9.4028    7.4878 C   0  0  0  0  0  0  0  0  0  0  0  0
    2.1682   -8.3408    7.6886 N   0  0  0  0  0  0  0  0  0  0  0  0
    3.9955  -11.0314    8.3356 C   0  0  0  0  0  0  0  0  0  0  0  0
    4.7198  -11.2565    9.1990 N   0  0  0  0  0  0  0  0  0  0  0  0
    0.8008   -9.4064    3.7763 C   0  0  0  0  0  0  0  0  0  0  0  0
    1.3716   -9.3522    2.4811 C   0  0  0  0  0  0  0  0  0  0  0  0
    2.6101   -9.7834    2.1140 N   0  0  0  0  0  0  0  0  0  0  0  0
    2.8525  -10.0891    0.7546 C   0  0  0  0  0  0  0  0  0  0  0  0
    2.0085  -10.9574    0.0724 C   0  0  0  0  0  0  0  0  0  0  0  0
    2.2668  -11.2647   -1.2489 C   0  0  0  0  0  0  0  0  0  0  0  0
    3.3504  -10.7084   -1.9174 C   0  0  0  0  0  0  0  0  0  0  0  0
    3.6078  -11.0170   -3.3598 C   0  0  0  0  0  0  0  0  0  0  0  0
    4.1894   -9.8450   -1.2205 C   0  0  0  0  0  0  0  0  0  0  0  0
    3.9520   -9.5387    0.1043 C   0  0  0  0  0  0  0  0  0  0  0  0
    3.6847   -9.8783    3.0069 C   0  0  0  0  0  0  0  0  0  0  0  0
    3.8611   -8.9469    4.0304 C   0  0  0  0  0  0  0  0  0  0  0  0
    4.9015   -9.0866    4.9232 C   0  0  0  0  0  0  0  0  0  0  0  0
    5.7991  -10.1484    4.8268 C   0  0  0  0  0  0  0  0  0  0  0  0
    6.8870  -10.3109    5.8404 C   0  0  0  0  0  0  0  0  0  0  0  0
    5.6485  -11.0403    3.7739 C   0  0  0  0  0  0  0  0  0  0  0  0
    4.6090  -10.9124    2.8712 C   0  0  0  0  0  0  0  0  0  0  0  0
    0.5378   -8.6153    1.6084 C   0  0  0  0  0  0  0  0  0  0  0  0
    0.6544   -8.1647   -0.0598 S   0  0  0  0  0  0  0  0  0  0  0  0
   -0.7596   -7.1350    0.0914 C   0  0  0  0  0  0  0  0  0  0  0  0
   -1.3037   -7.1724    1.3652 C   0  0  0  0  0  0  0  0  0  0  0  0
   -2.4157   -6.4564    1.7605 N   0  0  0  0  0  0  0  0  0  0  0  0
   -3.4477   -6.1860    0.8465 C   0  0  0  0  0  0  0  0  0  0  0  0
   -3.9220   -7.1795   -0.0024 C   0  0  0  0  0  0  0  0  0  0  0  0
   -4.9114   -6.8907   -0.9218 C   0  0  0  0  0  0  0  0  0  0  0  0
   -5.4336   -5.6090   -1.0355 C   0  0  0  0  0  0  0  0  0  0  0  0
   -6.4515   -5.2737   -2.0815 C   0  0  0  0  0  0  0  0  0  0  0  0
   -4.9727   -4.6286   -0.1631 C   0  0  0  0  0  0  0  0  0  0  0  0
   -4.0031   -4.9109    0.7766 C   0  0  0  0  0  0  0  0  0  0  0  0
   -2.4691   -5.9181    3.0558 C   0  0  0  0  0  0  0  0  0  0  0  0
   -1.3244   -5.4012    3.6583 C   0  0  0  0  0  0  0  0  0  0  0  0
   -1.3841   -4.8988    4.9421 C   0  0  0  0  0  0  0  0  0  0  0  0
   -2.5796   -4.8820    5.6515 C   0  0  0  0  0  0  0  0  0  0  0  0
   -2.6201   -4.3478    7.0500 C   0  0  0  0  0  0  0  0  0  0  0  0
   -3.7207   -5.3773    5.0330 C   0  0  0  0  0  0  0  0  0  0  0  0
   -3.6726   -5.8940    3.7532 C   0  0  0  0  0  0  0  0  0  0  0  0
   -0.5665   -8.0325    2.2142 C   0  0  0  0  0  0  0  0  0  0  0  0
   -0.6720   -8.4258    3.8879 S   0  0  0  0  0  0  0  0  0  0  0  0
   -1.1281   -6.1424   -0.8933 C   0  0  0  0  0  0  0  0  0  0  0  0
   -1.7838   -6.1890   -2.1033 C   0  0  0  0  0  0  0  0  0  0  0  0
   -2.1868   -7.4048   -2.8085 C   0  0  0  0  0  0  0  0  0  0  0  0
   -3.3619   -7.4209   -3.5589 C   0  0  0  0  0  0  0  0  0  0  0  0
   -3.7533   -8.5724   -4.2130 C   0  0  0  0  0  0  0  0  0  0  0  0
   -2.9879   -9.7222   -4.1277 C   0  0  0  0  0  0  0  0  0  0  0  0
   -1.8034   -9.7207   -3.4036 C   0  0  0  0  0  0  0  0  0  0  0  0
   -0.9817  -10.9690   -3.2610 C   0  0  0  0  0  0  0  0  0  0  0  0
   -1.3452  -11.6842   -1.9580 C   0  0  0  0  0  0  0  0  0  0  0  0
   -1.4104   -8.5577   -2.7592 C   0  0  0  0  0  0  0  0  0  0  0  0
   -2.0669   -4.8792   -2.5736 C   0  0  0  0  0  0  0  0  0  0  0  0
   -2.9058   -4.2563   -3.9776 S   0  0  0  0  0  0  0  0  0  0  0  0
   -2.5752   -2.6365   -3.4574 C   0  0  0  0  0  0  0  0  0  0  0  0
   -2.8275   -1.3016   -3.8420 C   0  0  0  0  0  0  0  0  0  0  0  0
   -3.6531   -0.6947   -4.8169 C   0  0  0  0  0  0  0  0  0  0  0  0
   -3.8312    0.7398   -4.8046 C   0  0  0  0  0  0  0  0  0  0  0  0
   -4.6978    1.1439   -5.7192 N   0  0  0  0  0  0  0  0  0  0  0  0
   -5.2385   -0.1485   -6.5302 S   0  0  0  0  0  0  0  0  0  0  0  0
   -4.3909   -1.2824   -5.7448 N   0  0  0  0  0  0  0  0  0  0  0  0
   -3.0557    1.5301   -3.9246 C   0  0  0  0  0  0  0  0  0  0  0  0
   -2.8797    2.9186   -3.7378 C   0  0  0  0  0  0  0  0  0  0  0  0
   -3.5618    4.4271   -4.2510 S   0  0  0  0  0  0  0  0  0  0  0  0
   -2.4093    5.2867   -3.2539 C   0  0  0  0  0  0  0  0  0  0  0  0
   -2.1990    6.6616   -2.9672 C   0  0  0  0  0  0  0  0  0  0  0  0
   -3.0171    7.7327   -3.5344 C   0  0  0  0  0  0  0  0  0  0  0  0
   -3.5438    7.6009   -4.8186 C   0  0  0  0  0  0  0  0  0  0  0  0
   -4.3133    8.6111   -5.3611 C   0  0  0  0  0  0  0  0  0  0  0  0
   -4.5682    9.7636   -4.6385 C   0  0  0  0  0  0  0  0  0  0  0  0
   -4.0704    9.9051   -3.3503 C   0  0  0  0  0  0  0  0  0  0  0  0
   -4.3007   11.1640   -2.5654 C   0  0  0  0  0  0  0  0  0  0  0  0
   -3.1146   12.1137   -2.7452 C   0  0  0  0  0  0  0  0  0  0  0  0
   -3.3054    8.8834   -2.8087 C   0  0  0  0  0  0  0  0  0  0  0  0
   -1.1246    6.8259   -2.1230 C   0  0  0  0  0  0  0  0  0  0  0  0
   -0.3957    5.2930   -1.6405 S   0  0  0  0  0  0  0  0  0  0  0  0
   -1.5382    4.4284   -2.5921 C   0  0  0  0  0  0  0  0  0  0  0  0
   -1.8180    3.0808   -2.8457 C   0  0  0  0  0  0  0  0  0  0  0  0
   -1.3497    1.8595   -2.4306 N   0  0  0  0  0  0  0  0  0  0  0  0
   -2.1267    0.9048   -3.0583 C   0  0  0  0  0  0  0  0  0  0  0  0
   -2.1560   -0.4938   -2.8927 C   0  0  0  0  0  0  0  0  0  0  0  0
   -1.5796   -1.2883   -1.9200 N   0  0  0  0  0  0  0  0  0  0  0  0
   -1.8442   -2.5889   -2.2691 C   0  0  0  0  0  0  0  0  0  0  0  0
   -1.5804   -3.8640   -1.7566 C   0  0  0  0  0  0  0  0  0  0  0  0
   -0.8067   -4.4921   -0.3553 S   0  0  0  0  0  0  0  0  0  0  0  0
   -1.3960   -0.9310   -0.5282 C   0  0  0  0  0  0  0  0  0  0  0  0
   -2.6440   -1.2644    0.2879 C   0  0  0  0  0  0  0  0  0  0  0  0
    0.0332    1.6980   -2.0303 C   0  0  0  0  0  0  0  0  0  0  0  0
    0.9803    2.1474   -3.1423 C   0  0  0  0  0  0  0  0  0  0  0  0
   -0.3980    7.9784   -1.6370 C   0  0  0  0  0  0  0  0  0  0  0  0
    0.9166    8.2452   -1.9724 C   0  0  0  0  0  0  0  0  0  0  0  0
    1.6125    7.5969   -2.9768 N   0  0  0  0  0  0  0  0  0  0  0  0
    2.9605    7.2666   -2.7871 C   0  0  0  0  0  0  0  0  0  0  0  0
    3.4377    6.9092   -1.5289 C   0  0  0  0  0  0  0  0  0  0  0  0
    4.7734    6.6039   -1.3536 C   0  0  0  0  0  0  0  0  0  0  0  0
    5.6617    6.6306   -2.4203 C   0  0  0  0  0  0  0  0  0  0  0  0
    7.1141    6.3192   -2.2254 C   0  0  0  0  0  0  0  0  0  0  0  0
    5.1726    6.9717   -3.6770 C   0  0  0  0  0  0  0  0  0  0  0  0
    3.8436    7.2902   -3.8642 C   0  0  0  0  0  0  0  0  0  0  0  0
    0.9362    7.1687   -4.1318 C   0  0  0  0  0  0  0  0  0  0  0  0
    0.0451    8.0152   -4.7813 C   0  0  0  0  0  0  0  0  0  0  0  0
   -0.6417    7.5751   -5.8957 C   0  0  0  0  0  0  0  0  0  0  0  0
   -0.4767    6.2827   -6.3758 C   0  0  0  0  0  0  0  0  0  0  0  0
   -1.2677    5.7796   -7.5439 C   0  0  0  0  0  0  0  0  0  0  0  0
    0.4335    5.4502   -5.7327 C   0  0  0  0  0  0  0  0  0  0  0  0
    1.1428    5.8858   -4.6328 C   0  0  0  0  0  0  0  0  0  0  0  0
    1.4592    9.2671   -1.1548 C   0  0  0  0  0  0  0  0  0  0  0  0
    3.0177    9.9951   -1.0297 S   0  0  0  0  0  0  0  0  0  0  0  0
    2.4642   10.9860    0.3286 C   0  0  0  0  0  0  0  0  0  0  0  0
    1.1509   10.6769    0.7083 C   0  0  0  0  0  0  0  0  0  0  0  0
    0.5494   11.0512    1.8813 N   0  0  0  0  0  0  0  0  0  0  0  0
   -0.8545   11.1346    1.9368 C   0  0  0  0  0  0  0  0  0  0  0  0
   -1.5548   11.7800    0.9230 C   0  0  0  0  0  0  0  0  0  0  0  0
   -2.9309   11.8669    0.9866 C   0  0  0  0  0  0  0  0  0  0  0  0
   -3.6385   11.3098    2.0447 C   0  0  0  0  0  0  0  0  0  0  0  0
   -5.1339   11.3817    2.0882 C   0  0  0  0  0  0  0  0  0  0  0  0
   -2.9272   10.6694    3.0528 C   0  0  0  0  0  0  0  0  0  0  0  0
   -1.5504   10.5816    3.0071 C   0  0  0  0  0  0  0  0  0  0  0  0
    1.2958   11.2271    3.0605 C   0  0  0  0  0  0  0  0  0  0  0  0
    0.9312   12.2059    3.9812 C   0  0  0  0  0  0  0  0  0  0  0  0
    1.6777   12.3914    5.1280 C   0  0  0  0  0  0  0  0  0  0  0  0
    2.7999   11.6149    5.3905 C   0  0  0  0  0  0  0  0  0  0  0  0
    3.6385   11.8616    6.6048 C   0  0  0  0  0  0  0  0  0  0  0  0
    3.1361   10.6175    4.4822 C   0  0  0  0  0  0  0  0  0  0  0  0
    2.3950   10.4173    3.3355 C   0  0  0  0  0  0  0  0  0  0  0  0
    0.5835    9.7386   -0.1894 C   0  0  0  0  0  0  0  0  0  0  0  0
   -0.9636    8.9765   -0.3058 S   0  0  0  0  0  0  0  0  0  0  0  0
    3.3669   11.9306    0.8538 C   0  0  0  0  0  0  0  0  0  0  0  0
    3.0344   13.0890    1.5066 C   0  0  0  0  0  0  0  0  0  0  0  0
    1.7319   13.6194    1.5280 C   0  0  0  0  0  0  0  0  0  0  0  0
    0.6923   14.1031    1.4574 N   0  0  0  0  0  0  0  0  0  0  0  0
    4.0241   13.8904    2.1053 C   0  0  0  0  0  0  0  0  0  0  0  0
    4.8269   14.5266    2.6233 N   0  0  0  0  0  0  0  0  0  0  0  0
    0.7704   -9.6531    5.8599 H   0  0  0  0  0  0  0  0  0  0  0  0
    4.6925  -13.2527    7.6284 H   0  0  0  0  0  0  0  0  0  0  0  0
    5.6632  -15.2505    6.5775 H   0  0  0  0  0  0  0  0  0  0  0  0
    1.1831  -11.4100    0.5992 H   0  0  0  0  0  0  0  0  0  0  0  0
    1.6226  -11.9598   -1.7653 H   0  0  0  0  0  0  0  0  0  0  0  0
    3.0717  -11.9104   -3.6696 H   0  0  0  0  0  0  0  0  0  0  0  0
    3.2746  -10.1858   -3.9823 H   0  0  0  0  0  0  0  0  0  0  0  0
    4.6707  -11.1622   -3.5406 H   0  0  0  0  0  0  0  0  0  0  0  0
    5.0400   -9.4081   -1.7230 H   0  0  0  0  0  0  0  0  0  0  0  0
    4.6110   -8.8714    0.6408 H   0  0  0  0  0  0  0  0  0  0  0  0
    3.1786   -8.1158    4.1267 H   0  0  0  0  0  0  0  0  0  0  0  0
    5.0176   -8.3631    5.7170 H   0  0  0  0  0  0  0  0  0  0  0  0
    7.5405  -11.1398    5.5820 H   0  0  0  0  0  0  0  0  0  0  0  0
    6.4606  -10.5008    6.8256 H   0  0  0  0  0  0  0  0  0  0  0  0
    7.4822   -9.4019    5.9105 H   0  0  0  0  0  0  0  0  0  0  0  0
    6.3444  -11.8594    3.6639 H   0  0  0  0  0  0  0  0  0  0  0  0
    4.4980  -11.6204    2.0638 H   0  0  0  0  0  0  0  0  0  0  0  0
   -3.5083   -8.1756    0.0552 H   0  0  0  0  0  0  0  0  0  0  0  0
   -5.2754   -7.6775   -1.5656 H   0  0  0  0  0  0  0  0  0  0  0  0
   -6.8316   -6.1743   -2.5569 H   0  0  0  0  0  0  0  0  0  0  0  0
   -7.2858   -4.7253   -1.6478 H   0  0  0  0  0  0  0  0  0  0  0  0
   -6.0033   -4.6420   -2.8495 H   0  0  0  0  0  0  0  0  0  0  0  0
   -5.3760   -3.6279   -0.2279 H   0  0  0  0  0  0  0  0  0  0  0  0
   -3.6563   -4.1482    1.4589 H   0  0  0  0  0  0  0  0  0  0  0  0
   -0.3927   -5.3874    3.1109 H   0  0  0  0  0  0  0  0  0  0  0  0
   -0.4880   -4.5084    5.4021 H   0  0  0  0  0  0  0  0  0  0  0  0
   -2.0481   -4.9952    7.7140 H   0  0  0  0  0  0  0  0  0  0  0  0
   -3.6415   -4.2929    7.4176 H   0  0  0  0  0  0  0  0  0  0  0  0
   -2.1773   -3.3539    7.0942 H   0  0  0  0  0  0  0  0  0  0  0  0
   -4.6617   -5.3704    5.5639 H   0  0  0  0  0  0  0  0  0  0  0  0
   -4.5645   -6.2857    3.2867 H   0  0  0  0  0  0  0  0  0  0  0  0
   -3.9766   -6.5376   -3.6172 H   0  0  0  0  0  0  0  0  0  0  0  0
   -4.6661   -8.5743   -4.7907 H   0  0  0  0  0  0  0  0  0  0  0  0
   -3.3056  -10.6224   -4.6341 H   0  0  0  0  0  0  0  0  0  0  0  0
   -1.1670  -11.6359   -4.1052 H   0  0  0  0  0  0  0  0  0  0  0  0
    0.0793  -10.7113   -3.2485 H   0  0  0  0  0  0  0  0  0  0  0  0
   -0.7923  -12.6157   -1.8605 H   0  0  0  0  0  0  0  0  0  0  0  0
   -1.1138  -11.0512   -1.1042 H   0  0  0  0  0  0  0  0  0  0  0  0
   -2.4086  -11.9133   -1.9379 H   0  0  0  0  0  0  0  0  0  0  0  0
   -0.4696   -8.5469   -2.2315 H   0  0  0  0  0  0  0  0  0  0  0  0
   -3.3383    6.7149   -5.3968 H   0  0  0  0  0  0  0  0  0  0  0  0
   -4.7159    8.4995   -6.3574 H   0  0  0  0  0  0  0  0  0  0  0  0
   -5.1658   10.5527   -5.0718 H   0  0  0  0  0  0  0  0  0  0  0  0
   -5.2140   11.6550   -2.9068 H   0  0  0  0  0  0  0  0  0  0  0  0
   -4.4123   10.9212   -1.5067 H   0  0  0  0  0  0  0  0  0  0  0  0
   -2.9752   12.3482   -3.7984 H   0  0  0  0  0  0  0  0  0  0  0  0
   -3.2779   13.0434   -2.2051 H   0  0  0  0  0  0  0  0  0  0  0  0
   -2.2034   11.6505   -2.3731 H   0  0  0  0  0  0  0  0  0  0  0  0
   -2.9528    8.9782   -1.7936 H   0  0  0  0  0  0  0  0  0  0  0  0
   -0.5376   -1.4890   -0.1415 H   0  0  0  0  0  0  0  0  0  0  0  0
   -1.2028    0.1368   -0.4479 H   0  0  0  0  0  0  0  0  0  0  0  0
   -2.4851   -0.9974    1.3290 H   0  0  0  0  0  0  0  0  0  0  0  0
   -3.4985   -0.7076   -0.0914 H   0  0  0  0  0  0  0  0  0  0  0  0
   -2.8658   -2.3261    0.2291 H   0  0  0  0  0  0  0  0  0  0  0  0
    0.2082    2.2959   -1.1300 H   0  0  0  0  0  0  0  0  0  0  0  0
    0.2239    0.6475   -1.8162 H   0  0  0  0  0  0  0  0  0  0  0  0
    0.8013    1.5653   -4.0440 H   0  0  0  0  0  0  0  0  0  0  0  0
    2.0100    2.0003   -2.8283 H   0  0  0  0  0  0  0  0  0  0  0  0
    0.8326    3.1989   -3.3711 H   0  0  0  0  0  0  0  0  0  0  0  0
    2.7551    6.8575   -0.6928 H   0  0  0  0  0  0  0  0  0  0  0  0
    5.1284    6.3306   -0.3702 H   0  0  0  0  0  0  0  0  0  0  0  0
    7.5125    5.7787   -3.0814 H   0  0  0  0  0  0  0  0  0  0  0  0
    7.6827    7.2438   -2.1199 H   0  0  0  0  0  0  0  0  0  0  0  0
    7.2678    5.7237   -1.3287 H   0  0  0  0  0  0  0  0  0  0  0  0
    5.8471    6.9967   -4.5207 H   0  0  0  0  0  0  0  0  0  0  0  0
    3.4781    7.5612   -4.8437 H   0  0  0  0  0  0  0  0  0  0  0  0
   -0.1133    9.0154   -4.4054 H   0  0  0  0  0  0  0  0  0  0  0  0
   -1.3225    8.2498   -6.3933 H   0  0  0  0  0  0  0  0  0  0  0  0
   -1.8258    6.5866   -8.0114 H   0  0  0  0  0  0  0  0  0  0  0  0
   -1.9738    5.0155   -7.2168 H   0  0  0  0  0  0  0  0  0  0  0  0
   -0.6131    5.3281   -8.2876 H   0  0  0  0  0  0  0  0  0  0  0  0
    0.5815    4.4433   -6.0967 H   0  0  0  0  0  0  0  0  0  0  0  0
    1.8541    5.2364   -4.1427 H   0  0  0  0  0  0  0  0  0  0  0  0
   -1.0125   12.2364    0.1088 H   0  0  0  0  0  0  0  0  0  0  0  0
   -3.4637   12.3907    0.2080 H   0  0  0  0  0  0  0  0  0  0  0  0
   -5.4916   11.4146    3.1146 H   0  0  0  0  0  0  0  0  0  0  0  0
   -5.5627   10.4993    1.6112 H   0  0  0  0  0  0  0  0  0  0  0  0
   -5.4959   12.2600    1.5591 H   0  0  0  0  0  0  0  0  0  0  0  0
   -3.4586   10.2319    3.8856 H   0  0  0  0  0  0  0  0  0  0  0  0
   -1.0070   10.0834    3.7967 H   0  0  0  0  0  0  0  0  0  0  0  0
    0.0714   12.8273    3.7822 H   0  0  0  0  0  0  0  0  0  0  0  0
    1.3899   13.1644    5.8249 H   0  0  0  0  0  0  0  0  0  0  0  0
    3.0319   12.2316    7.4279 H   0  0  0  0  0  0  0  0  0  0  0  0
    4.1484   10.9536    6.9179 H   0  0  0  0  0  0  0  0  0  0  0  0
    4.3950   12.6141    6.3795 H   0  0  0  0  0  0  0  0  0  0  0  0
    3.9897    9.9844    4.6768 H   0  0  0  0  0  0  0  0  0  0  0  0
    2.6667    9.6277    2.6498 H   0  0  0  0  0  0  0  0  0  0  0  0
    4.4197   11.7419    0.6794 H   0  0  0  0  0  0  0  0  0  0  0  0
  1  2  2  0  0  0  0
  2  3  1  0  0  0  0
  3  4  2  0  0  0  0
  3  5  1  0  0  0  0
  5  6  2  0  0  0  0
  6  7  1  0  0  0  0
  7  8  2  0  0  0  0
  8  9  1  0  0  0  0
  9 10  1  0  0  0  0
  9 11  2  0  0  0  0
 11 12  1  0  0  0  0
  6 13  1  0  0  0  0
 13 14  2  0  0  0  0
 14 15  1  0  0  0  0
 15 16  3  0  0  0  0
 14 17  1  0  0  0  0
 17 18  3  0  0  0  0
  1 19  1  0  0  0  0
 19 20  2  0  0  0  0
 20 21  1  0  0  0  0
 21 22  1  0  0  0  0
 22 23  2  0  0  0  0
 23 24  1  0  0  0  0
 24 25  2  0  0  0  0
 25 26  1  0  0  0  0
 25 27  1  0  0  0  0
 27 28  2  0  0  0  0
 21 29  1  0  0  0  0
 29 30  2  0  0  0  0
 30 31  1  0  0  0  0
 31 32  2  0  0  0  0
 32 33  1  0  0  0  0
 32 34  1  0  0  0  0
 34 35  2  0  0  0  0
 20 36  1  0  0  0  0
 36 37  1  0  0  0  0
 37 38  1  0  0  0  0
 38 39  2  0  0  0  0
 39 40  1  0  0  0  0
 40 41  1  0  0  0  0
 41 42  2  0  0  0  0
 42 43  1  0  0  0  0
 43 44  2  0  0  0  0
 44 45  1  0  0  0  0
 44 46  1  0  0  0  0
 46 47  2  0  0  0  0
 40 48  1  0  0  0  0
 48 49  2  0  0  0  0
 49 50  1  0  0  0  0
 50 51  2  0  0  0  0
 51 52  1  0  0  0  0
 51 53  1  0  0  0  0
 53 54  2  0  0  0  0
 39 55  1  0  0  0  0
 55 56  1  0  0  0  0
 38 57  1  0  0  0  0
 57 58  2  0  0  0  0
 58 59  1  0  0  0  0
 59 60  2  0  0  0  0
 60 61  1  0  0  0  0
 61 62  2  0  0  0  0
 62 63  1  0  0  0  0
 63 64  1  0  0  0  0
 64 65  1  0  0  0  0
 63 66  2  0  0  0  0
 58 67  1  0  0  0  0
 67 68  1  0  0  0  0
 68 69  1  0  0  0  0
 69 70  1  0  0  0  0
 70 71  1  0  0  0  0
 71 72  1  0  0  0  0
 72 73  2  0  0  0  0
 73 74  1  0  0  0  0
 74 75  1  0  0  0  0
 72 76  1  0  0  0  0
 76 77  1  0  0  0  0
 77 78  1  0  0  0  0
 78 79  1  0  0  0  0
 79 80  1  0  0  0  0
 80 81  1  0  0  0  0
 81 82  2  0  0  0  0
 82 83  1  0  0  0  0
 83 84  2  0  0  0  0
 84 85  1  0  0  0  0
 85 86  1  0  0  0  0
 86 87  1  0  0  0  0
 85 88  2  0  0  0  0
 80 89  2  0  0  0  0
 89 90  1  0  0  0  0
 90 91  1  0  0  0  0
 91 92  1  0  0  0  0
 92 93  1  0  0  0  0
 93 94  1  0  0  0  0
 94 95  1  0  0  0  0
 95 96  1  0  0  0  0
 96 97  1  0  0  0  0
 97 98  1  0  0  0  0
 98 99  1  0  0  0  0
 96100  1  0  0  0  0
100101  1  0  0  0  0
 93102  1  0  0  0  0
102103  1  0  0  0  0
 89104  1  0  0  0  0
104105  2  0  0  0  0
105106  1  0  0  0  0
106107  1  0  0  0  0
107108  2  0  0  0  0
108109  1  0  0  0  0
109110  2  0  0  0  0
110111  1  0  0  0  0
110112  1  0  0  0  0
112113  2  0  0  0  0
106114  1  0  0  0  0
114115  2  0  0  0  0
115116  1  0  0  0  0
116117  2  0  0  0  0
117118  1  0  0  0  0
117119  1  0  0  0  0
119120  2  0  0  0  0
105121  1  0  0  0  0
121122  1  0  0  0  0
122123  1  0  0  0  0
123124  2  0  0  0  0
124125  1  0  0  0  0
125126  1  0  0  0  0
126127  2  0  0  0  0
127128  1  0  0  0  0
128129  2  0  0  0  0
129130  1  0  0  0  0
129131  1  0  0  0  0
131132  2  0  0  0  0
125133  1  0  0  0  0
133134  2  0  0  0  0
134135  1  0  0  0  0
135136  2  0  0  0  0
136137  1  0  0  0  0
136138  1  0  0  0  0
138139  2  0  0  0  0
124140  1  0  0  0  0
140141  1  0  0  0  0
123142  1  0  0  0  0
142143  2  0  0  0  0
143144  1  0  0  0  0
144145  3  0  0  0  0
143146  1  0  0  0  0
146147  3  0  0  0  0
 13  2  1  0  0  0  0
 56 19  1  0  0  0  0
 99 57  1  0  0  0  0
141104  1  0  0  0  0
 11  5  1  0  0  0  0
 28 22  1  0  0  0  0
 35 29  1  0  0  0  0
 55 36  2  0  0  0  0
 66 59  1  0  0  0  0
 98 67  2  0  0  0  0
113107  1  0  0  0  0
120114  1  0  0  0  0
140121  2  0  0  0  0
 47 41  1  0  0  0  0
 54 48  1  0  0  0  0
 97 69  2  0  0  0  0
132126  1  0  0  0  0
139133  1  0  0  0  0
 95 70  2  0  0  0  0
 75 71  2  0  0  0  0
 94 76  2  0  0  0  0
 92 77  2  0  0  0  0
 91 79  2  0  0  0  0
 88 81  1  0  0  0  0
  1148  1  0  0  0  0
  7149  1  0  0  0  0
  8150  1  0  0  0  0
 23151  1  0  0  0  0
 24152  1  0  0  0  0
 26153  1  0  0  0  0
 26154  1  0  0  0  0
 26155  1  0  0  0  0
 27156  1  0  0  0  0
 28157  1  0  0  0  0
 30158  1  0  0  0  0
 31159  1  0  0  0  0
 33160  1  0  0  0  0
 33161  1  0  0  0  0
 33162  1  0  0  0  0
 34163  1  0  0  0  0
 35164  1  0  0  0  0
 42165  1  0  0  0  0
 43166  1  0  0  0  0
 45167  1  0  0  0  0
 45168  1  0  0  0  0
 45169  1  0  0  0  0
 46170  1  0  0  0  0
 47171  1  0  0  0  0
 49172  1  0  0  0  0
 50173  1  0  0  0  0
 52174  1  0  0  0  0
 52175  1  0  0  0  0
 52176  1  0  0  0  0
 53177  1  0  0  0  0
 54178  1  0  0  0  0
 60179  1  0  0  0  0
 61180  1  0  0  0  0
 62181  1  0  0  0  0
 64182  1  0  0  0  0
 64183  1  0  0  0  0
 65184  1  0  0  0  0
 65185  1  0  0  0  0
 65186  1  0  0  0  0
 66187  1  0  0  0  0
 82188  1  0  0  0  0
 83189  1  0  0  0  0
 84190  1  0  0  0  0
 86191  1  0  0  0  0
 86192  1  0  0  0  0
 87193  1  0  0  0  0
 87194  1  0  0  0  0
 87195  1  0  0  0  0
 88196  1  0  0  0  0
100197  1  0  0  0  0
100198  1  0  0  0  0
101199  1  0  0  0  0
101200  1  0  0  0  0
101201  1  0  0  0  0
102202  1  0  0  0  0
102203  1  0  0  0  0
103204  1  0  0  0  0
103205  1  0  0  0  0
103206  1  0  0  0  0
108207  1  0  0  0  0
109208  1  0  0  0  0
111209  1  0  0  0  0
111210  1  0  0  0  0
111211  1  0  0  0  0
112212  1  0  0  0  0
113213  1  0  0  0  0
115214  1  0  0  0  0
116215  1  0  0  0  0
118216  1  0  0  0  0
118217  1  0  0  0  0
118218  1  0  0  0  0
119219  1  0  0  0  0
120220  1  0  0  0  0
127221  1  0  0  0  0
128222  1  0  0  0  0
130223  1  0  0  0  0
130224  1  0  0  0  0
130225  1  0  0  0  0
131226  1  0  0  0  0
132227  1  0  0  0  0
134228  1  0  0  0  0
135229  1  0  0  0  0
137230  1  0  0  0  0
137231  1  0  0  0  0
137232  1  0  0  0  0
138233  1  0  0  0  0
139234  1  0  0  0  0
142235  1  0  0  0  0
M  END
