
  xtb     02082200313D
 energy: -417.458513046611 gnorm: 0.000538768047 xtb: 6.4.1 (unknown)
252277  0     0  0            999 V2000
    1.0571   -4.9913   11.4700 C   0  0  0  0  0  0  0  0  0  0  0  0
    1.2549   -5.8770   12.5134 C   0  0  0  0  0  0  0  0  0  0  0  0
    0.9314   -7.3002   12.5036 C   0  0  0  0  0  0  0  0  0  0  0  0
    0.5233   -7.9734   11.5744 O   0  0  0  0  0  0  0  0  0  0  0  0
    1.1676   -7.7757   13.8869 C   0  0  0  0  0  0  0  0  0  0  0  0
    1.6062   -6.6989   14.6786 C   0  0  0  0  0  0  0  0  0  0  0  0
    1.8863   -6.8968   16.0201 C   0  0  0  0  0  0  0  0  0  0  0  0
    1.7233   -8.1681   16.5532 C   0  0  0  0  0  0  0  0  0  0  0  0
    1.2966   -9.2261   15.7674 C   0  0  0  0  0  0  0  0  0  0  0  0
    1.1000  -10.9362   16.5500 Br  0  0  0  0  0  0  0  0  0  0  0  0
    1.0108   -9.0472   14.4094 C   0  0  0  0  0  0  0  0  0  0  0  0
    0.4963  -10.3531   13.4299 Cl  0  0  0  0  0  0  0  0  0  0  0  0
    1.6967   -5.5081   13.8314 C   0  0  0  0  0  0  0  0  0  0  0  0
    2.1592   -4.2800   14.2468 C   0  0  0  0  0  0  0  0  0  0  0  0
    2.3921   -3.1700   13.4137 C   0  0  0  0  0  0  0  0  0  0  0  0
    2.6481   -2.2279   12.8055 N   0  0  0  0  0  0  0  0  0  0  0  0
    2.5024   -3.9727   15.5774 C   0  0  0  0  0  0  0  0  0  0  0  0
    2.7797   -3.6524   16.6454 N   0  0  0  0  0  0  0  0  0  0  0  0
    0.6597   -5.2142   10.1595 C   0  0  0  0  0  0  0  0  0  0  0  0
    0.4776   -4.1645    9.2160 C   0  0  0  0  0  0  0  0  0  0  0  0
    0.4805   -2.8261    9.4941 N   0  0  0  0  0  0  0  0  0  0  0  0
    0.9243   -1.9392    8.4913 C   0  0  0  0  0  0  0  0  0  0  0  0
    0.1916   -0.8006    8.1732 C   0  0  0  0  0  0  0  0  0  0  0  0
    0.6309    0.0442    7.1736 C   0  0  0  0  0  0  0  0  0  0  0  0
    1.7993   -0.2223    6.4691 C   0  0  0  0  0  0  0  0  0  0  0  0
    2.2735    0.7010    5.3900 C   0  0  0  0  0  0  0  0  0  0  0  0
    2.5320   -1.3543    6.8058 C   0  0  0  0  0  0  0  0  0  0  0  0
    2.1070   -2.2044    7.8064 C   0  0  0  0  0  0  0  0  0  0  0  0
   -0.0562   -2.2850   10.6769 C   0  0  0  0  0  0  0  0  0  0  0  0
   -1.1795   -2.8509   11.2749 C   0  0  0  0  0  0  0  0  0  0  0  0
   -1.6905   -2.3069   12.4361 C   0  0  0  0  0  0  0  0  0  0  0  0
   -1.1141   -1.1834   13.0180 C   0  0  0  0  0  0  0  0  0  0  0  0
   -1.6520   -0.6039   14.2893 C   0  0  0  0  0  0  0  0  0  0  0  0
   -0.0113   -0.6096   12.3961 C   0  0  0  0  0  0  0  0  0  0  0  0
    0.5201   -1.1503   11.2426 C   0  0  0  0  0  0  0  0  0  0  0  0
    0.2970   -4.6852    7.9266 C   0  0  0  0  0  0  0  0  0  0  0  0
    0.0543   -3.9707    6.3686 S   0  0  0  0  0  0  0  0  0  0  0  0
   -0.0785   -5.5696    5.6370 C   0  0  0  0  0  0  0  0  0  0  0  0
    0.1123   -6.5951    6.5550 C   0  0  0  0  0  0  0  0  0  0  0  0
    0.1939   -7.9483    6.2811 N   0  0  0  0  0  0  0  0  0  0  0  0
   -0.2503   -8.8188    7.3009 C   0  0  0  0  0  0  0  0  0  0  0  0
    0.5475   -9.8572    7.7672 C   0  0  0  0  0  0  0  0  0  0  0  0
    0.1001  -10.6657    8.7941 C   0  0  0  0  0  0  0  0  0  0  0  0
   -1.1396  -10.4587    9.3836 C   0  0  0  0  0  0  0  0  0  0  0  0
   -1.6207  -11.3149   10.5133 C   0  0  0  0  0  0  0  0  0  0  0  0
   -1.9297   -9.4175    8.9109 C   0  0  0  0  0  0  0  0  0  0  0  0
   -1.4962   -8.6053    7.8839 C   0  0  0  0  0  0  0  0  0  0  0  0
    0.8851   -8.4476    5.1749 C   0  0  0  0  0  0  0  0  0  0  0  0
    0.6444   -9.7492    4.7353 C   0  0  0  0  0  0  0  0  0  0  0  0
    1.3139  -10.2535    3.6398 C   0  0  0  0  0  0  0  0  0  0  0  0
    2.2298   -9.4816    2.9345 C   0  0  0  0  0  0  0  0  0  0  0  0
    2.9139  -10.0206    1.7152 C   0  0  0  0  0  0  0  0  0  0  0  0
    2.4779   -8.1926    3.3859 C   0  0  0  0  0  0  0  0  0  0  0  0
    1.8301   -7.6829    4.4943 C   0  0  0  0  0  0  0  0  0  0  0  0
    0.2914   -6.0737    7.8621 C   0  0  0  0  0  0  0  0  0  0  0  0
    0.4846   -6.8082    9.4127 S   0  0  0  0  0  0  0  0  0  0  0  0
   -0.3335   -5.5946    4.2326 C   0  0  0  0  0  0  0  0  0  0  0  0
   -1.1067   -6.4365    3.4603 C   0  0  0  0  0  0  0  0  0  0  0  0
   -1.9172   -7.5770    3.9081 C   0  0  0  0  0  0  0  0  0  0  0  0
   -1.7104   -8.7937    3.2646 C   0  0  0  0  0  0  0  0  0  0  0  0
   -2.4414   -9.9129    3.6104 C   0  0  0  0  0  0  0  0  0  0  0  0
   -3.3991   -9.8221    4.6043 C   0  0  0  0  0  0  0  0  0  0  0  0
   -3.6433   -8.6037    5.2100 C   0  0  0  0  0  0  0  0  0  0  0  0
   -2.9245   -7.4643    4.8712 C   0  0  0  0  0  0  0  0  0  0  0  0
   -3.3308   -6.1399    5.4573 C   0  0  0  0  0  0  0  0  0  0  0  0
   -4.0993   -5.3133    4.4244 C   0  0  0  0  0  0  0  0  0  0  0  0
   -1.0896   -6.0387    2.1060 C   0  0  0  0  0  0  0  0  0  0  0  0
   -1.9189   -6.6525    0.6951 S   0  0  0  0  0  0  0  0  0  0  0  0
   -1.2886   -5.3257   -0.2250 C   0  0  0  0  0  0  0  0  0  0  0  0
   -1.4384   -4.7456   -1.4969 C   0  0  0  0  0  0  0  0  0  0  0  0
   -2.3028   -5.0445   -2.5742 C   0  0  0  0  0  0  0  0  0  0  0  0
   -2.4493   -4.0889   -3.6402 C   0  0  0  0  0  0  0  0  0  0  0  0
   -3.3598   -4.4588   -4.5267 N   0  0  0  0  0  0  0  0  0  0  0  0
   -3.9723   -5.8866   -4.0712 S   0  0  0  0  0  0  0  0  0  0  0  0
   -3.1050   -6.0870   -2.7187 N   0  0  0  0  0  0  0  0  0  0  0  0
   -1.6307   -2.9380   -3.6492 C   0  0  0  0  0  0  0  0  0  0  0  0
   -1.5325   -1.8420   -4.5271 C   0  0  0  0  0  0  0  0  0  0  0  0
   -2.3307   -1.1937   -5.9222 S   0  0  0  0  0  0  0  0  0  0  0  0
   -1.2626    0.1917   -5.8675 C   0  0  0  0  0  0  0  0  0  0  0  0
   -1.1674    1.3661   -6.6342 C   0  0  0  0  0  0  0  0  0  0  0  0
   -2.0066    1.7199   -7.7896 C   0  0  0  0  0  0  0  0  0  0  0  0
   -3.3691    2.0021   -7.6578 C   0  0  0  0  0  0  0  0  0  0  0  0
   -4.0698    1.9432   -6.3298 C   0  0  0  0  0  0  0  0  0  0  0  0
   -3.6332    3.0746   -5.3989 C   0  0  0  0  0  0  0  0  0  0  0  0
   -4.0731    2.3852   -8.7916 C   0  0  0  0  0  0  0  0  0  0  0  0
   -3.4600    2.4808  -10.0268 C   0  0  0  0  0  0  0  0  0  0  0  0
   -2.1151    2.1807  -10.1539 C   0  0  0  0  0  0  0  0  0  0  0  0
   -1.3954    1.8034   -9.0378 C   0  0  0  0  0  0  0  0  0  0  0  0
   -0.1285    2.1719   -6.2011 C   0  0  0  0  0  0  0  0  0  0  0  0
    0.7163    1.4910   -4.8153 S   0  0  0  0  0  0  0  0  0  0  0  0
   -0.3179    0.1112   -4.8422 C   0  0  0  0  0  0  0  0  0  0  0  0
   -0.4788   -1.0458   -4.0733 C   0  0  0  0  0  0  0  0  0  0  0  0
    0.0821   -1.5958   -2.9478 N   0  0  0  0  0  0  0  0  0  0  0  0
   -0.6447   -2.7372   -2.6471 C   0  0  0  0  0  0  0  0  0  0  0  0
   -0.6456   -3.5659   -1.5003 C   0  0  0  0  0  0  0  0  0  0  0  0
   -0.0579   -3.4206   -0.2581 N   0  0  0  0  0  0  0  0  0  0  0  0
   -0.4576   -4.4790    0.5143 C   0  0  0  0  0  0  0  0  0  0  0  0
   -0.3505   -4.8838    1.8504 C   0  0  0  0  0  0  0  0  0  0  0  0
    0.3868   -4.2894    3.2926 S   0  0  0  0  0  0  0  0  0  0  0  0
    0.5148   -2.2448    0.3588 C   0  0  0  0  0  0  0  0  0  0  0  0
    1.9827   -2.4466    0.7340 C   0  0  0  0  0  0  0  0  0  0  0  0
    1.4788   -1.3510   -2.6572 C   0  0  0  0  0  0  0  0  0  0  0  0
    2.3694   -1.7420   -3.8366 C   0  0  0  0  0  0  0  0  0  0  0  0
    0.1857    3.4900   -6.6385 C   0  0  0  0  0  0  0  0  0  0  0  0
    1.3800    4.1831   -6.4736 C   0  0  0  0  0  0  0  0  0  0  0  0
    2.5735    3.6326   -6.0294 N   0  0  0  0  0  0  0  0  0  0  0  0
    3.0059    2.3896   -6.5034 C   0  0  0  0  0  0  0  0  0  0  0  0
    3.8133    1.5776   -5.7092 C   0  0  0  0  0  0  0  0  0  0  0  0
    4.2110    0.3348   -6.1611 C   0  0  0  0  0  0  0  0  0  0  0  0
    3.8061   -0.1449   -7.3995 C   0  0  0  0  0  0  0  0  0  0  0  0
    4.2153   -1.5020   -7.8842 C   0  0  0  0  0  0  0  0  0  0  0  0
    3.0065    0.6737   -8.1901 C   0  0  0  0  0  0  0  0  0  0  0  0
    2.6171    1.9246   -7.7589 C   0  0  0  0  0  0  0  0  0  0  0  0
    3.4037    4.4288   -5.2244 C   0  0  0  0  0  0  0  0  0  0  0  0
    2.8448    5.2103   -4.2164 C   0  0  0  0  0  0  0  0  0  0  0  0
    3.6481    6.0187   -3.4376 C   0  0  0  0  0  0  0  0  0  0  0  0
    5.0230    6.0640   -3.6323 C   0  0  0  0  0  0  0  0  0  0  0  0
    5.8866    6.9611   -2.8000 C   0  0  0  0  0  0  0  0  0  0  0  0
    5.5730    5.2753   -4.6361 C   0  0  0  0  0  0  0  0  0  0  0  0
    4.7800    4.4704   -5.4288 C   0  0  0  0  0  0  0  0  0  0  0  0
    1.2402    5.5332   -6.8669 C   0  0  0  0  0  0  0  0  0  0  0  0
    2.3130    6.8869   -6.9127 S   0  0  0  0  0  0  0  0  0  0  0  0
    1.0189    7.9113   -7.5454 C   0  0  0  0  0  0  0  0  0  0  0  0
   -0.1444    7.1805   -7.8246 C   0  0  0  0  0  0  0  0  0  0  0  0
   -1.2275    7.6180   -8.5484 N   0  0  0  0  0  0  0  0  0  0  0  0
   -2.4838    7.0174   -8.3047 C   0  0  0  0  0  0  0  0  0  0  0  0
   -2.9796    6.9487   -7.0067 C   0  0  0  0  0  0  0  0  0  0  0  0
   -4.2229    6.3987   -6.7735 C   0  0  0  0  0  0  0  0  0  0  0  0
   -4.9907    5.8932   -7.8178 C   0  0  0  0  0  0  0  0  0  0  0  0
   -6.3446    5.3165   -7.5430 C   0  0  0  0  0  0  0  0  0  0  0  0
   -4.4786    5.9546   -9.1068 C   0  0  0  0  0  0  0  0  0  0  0  0
   -3.2406    6.5144   -9.3558 C   0  0  0  0  0  0  0  0  0  0  0  0
   -1.1218    8.5600   -9.5848 C   0  0  0  0  0  0  0  0  0  0  0  0
   -2.1858    9.4233   -9.8428 C   0  0  0  0  0  0  0  0  0  0  0  0
   -2.0718   10.4039  -10.8085 C   0  0  0  0  0  0  0  0  0  0  0  0
   -0.9062   10.5473  -11.5512 C   0  0  0  0  0  0  0  0  0  0  0  0
   -0.7696   11.6189  -12.5887 C   0  0  0  0  0  0  0  0  0  0  0  0
    0.1335    9.6534  -11.3195 C   0  0  0  0  0  0  0  0  0  0  0  0
    0.0318    8.6700  -10.3565 C   0  0  0  0  0  0  0  0  0  0  0  0
   -0.0128    5.8482   -7.3730 C   0  0  0  0  0  0  0  0  0  0  0  0
   -1.0676    4.4786   -7.3765 S   0  0  0  0  0  0  0  0  0  0  0  0
    1.2529    9.2937   -7.6836 C   0  0  0  0  0  0  0  0  0  0  0  0
    0.3047   10.2649   -7.5775 C   0  0  0  0  0  0  0  0  0  0  0  0
   -1.3135   10.0288   -6.9456 S   0  0  0  0  0  0  0  0  0  0  0  0
   -1.7493   11.6616   -7.3719 C   0  0  0  0  0  0  0  0  0  0  0  0
   -3.0523   12.0874   -7.2997 C   0  0  0  0  0  0  0  0  0  0  0  0
   -4.0416   11.1815   -6.8716 C   0  0  0  0  0  0  0  0  0  0  0  0
   -4.8395   10.4258   -6.5402 N   0  0  0  0  0  0  0  0  0  0  0  0
   -3.5123   13.3531   -7.6981 C   0  0  0  0  0  0  0  0  0  0  0  0
   -3.9654   14.3552   -8.0302 N   0  0  0  0  0  0  0  0  0  0  0  0
   -0.6795   12.3622   -7.8233 N   0  0  0  0  0  0  0  0  0  0  0  0
   -0.7409   13.7460   -8.1541 C   0  0  0  0  0  0  0  0  0  0  0  0
   -0.5816   14.1333   -9.4747 C   0  0  0  0  0  0  0  0  0  0  0  0
   -0.6251   15.4786   -9.7923 C   0  0  0  0  0  0  0  0  0  0  0  0
   -0.8236   16.4222   -8.7989 C   0  0  0  0  0  0  0  0  0  0  0  0
   -0.9687   16.0265   -7.4801 C   0  0  0  0  0  0  0  0  0  0  0  0
   -0.9227   14.6851   -7.1494 C   0  0  0  0  0  0  0  0  0  0  0  0
    0.5133   11.6481   -7.9678 C   0  0  0  0  0  0  0  0  0  0  0  0
    1.5350   12.1380   -8.3909 O   0  0  0  0  0  0  0  0  0  0  0  0
    1.2404   -3.9508   11.7051 H   0  0  0  0  0  0  0  0  0  0  0  0
    2.2232   -6.0949   16.6553 H   0  0  0  0  0  0  0  0  0  0  0  0
    1.9336   -8.3423   17.5972 H   0  0  0  0  0  0  0  0  0  0  0  0
   -0.7244   -0.5902    8.7051 H   0  0  0  0  0  0  0  0  0  0  0  0
    0.0497    0.9212    6.9287 H   0  0  0  0  0  0  0  0  0  0  0  0
    2.8092    0.1514    4.6195 H   0  0  0  0  0  0  0  0  0  0  0  0
    2.9534    1.4441    5.8079 H   0  0  0  0  0  0  0  0  0  0  0  0
    1.4381    1.2275    4.9348 H   0  0  0  0  0  0  0  0  0  0  0  0
    3.4493   -1.5724    6.2787 H   0  0  0  0  0  0  0  0  0  0  0  0
    2.6877   -3.0776    8.0661 H   0  0  0  0  0  0  0  0  0  0  0  0
   -1.6440   -3.7188   10.8299 H   0  0  0  0  0  0  0  0  0  0  0  0
   -2.5591   -2.7592   12.8927 H   0  0  0  0  0  0  0  0  0  0  0  0
   -1.7852    0.4722   14.1938 H   0  0  0  0  0  0  0  0  0  0  0  0
   -2.6055   -1.0545   14.5529 H   0  0  0  0  0  0  0  0  0  0  0  0
   -0.9504   -0.7792   15.1050 H   0  0  0  0  0  0  0  0  0  0  0  0
    0.4510    0.2631   12.8315 H   0  0  0  0  0  0  0  0  0  0  0  0
    1.3885   -0.7061   10.7826 H   0  0  0  0  0  0  0  0  0  0  0  0
    1.5225  -10.0191    7.3313 H   0  0  0  0  0  0  0  0  0  0  0  0
    0.7358  -11.4622    9.1530 H   0  0  0  0  0  0  0  0  0  0  0  0
   -0.9225  -12.1223   10.7186 H   0  0  0  0  0  0  0  0  0  0  0  0
   -1.7280  -10.7111   11.4136 H   0  0  0  0  0  0  0  0  0  0  0  0
   -2.5952  -11.7440   10.2837 H   0  0  0  0  0  0  0  0  0  0  0  0
   -2.8964   -9.2389    9.3592 H   0  0  0  0  0  0  0  0  0  0  0  0
   -2.1129   -7.7939    7.5287 H   0  0  0  0  0  0  0  0  0  0  0  0
   -0.0775  -10.3604    5.2547 H   0  0  0  0  0  0  0  0  0  0  0  0
    1.1108  -11.2648    3.3182 H   0  0  0  0  0  0  0  0  0  0  0  0
    3.8746   -9.5345    1.5613 H   0  0  0  0  0  0  0  0  0  0  0  0
    3.0707  -11.0934    1.8020 H   0  0  0  0  0  0  0  0  0  0  0  0
    2.2996   -9.8418    0.8315 H   0  0  0  0  0  0  0  0  0  0  0  0
    3.2002   -7.5759    2.8696 H   0  0  0  0  0  0  0  0  0  0  0  0
    2.0791   -6.6916    4.8416 H   0  0  0  0  0  0  0  0  0  0  0  0
   -0.9567   -8.8560    2.4941 H   0  0  0  0  0  0  0  0  0  0  0  0
   -2.2614  -10.8503    3.1064 H   0  0  0  0  0  0  0  0  0  0  0  0
   -3.9701  -10.6918    4.8936 H   0  0  0  0  0  0  0  0  0  0  0  0
   -4.4198   -8.5298    5.9585 H   0  0  0  0  0  0  0  0  0  0  0  0
   -3.9743   -6.3109    6.3233 H   0  0  0  0  0  0  0  0  0  0  0  0
   -2.4625   -5.5728    5.7926 H   0  0  0  0  0  0  0  0  0  0  0  0
   -4.4206   -4.3694    4.8589 H   0  0  0  0  0  0  0  0  0  0  0  0
   -4.9769   -5.8574    4.0824 H   0  0  0  0  0  0  0  0  0  0  0  0
   -3.4729   -5.1009    3.5612 H   0  0  0  0  0  0  0  0  0  0  0  0
   -3.8760    0.9842   -5.8468 H   0  0  0  0  0  0  0  0  0  0  0  0
   -5.1460    2.0165   -6.4982 H   0  0  0  0  0  0  0  0  0  0  0  0
   -2.5884    2.9654   -5.1204 H   0  0  0  0  0  0  0  0  0  0  0  0
   -3.7542    4.0362   -5.8920 H   0  0  0  0  0  0  0  0  0  0  0  0
   -4.2313    3.0642   -4.4903 H   0  0  0  0  0  0  0  0  0  0  0  0
   -5.1246    2.6144   -8.7002 H   0  0  0  0  0  0  0  0  0  0  0  0
   -4.0313    2.7850  -10.8912 H   0  0  0  0  0  0  0  0  0  0  0  0
   -1.6287    2.2431  -11.1159 H   0  0  0  0  0  0  0  0  0  0  0  0
   -0.3434    1.5683   -9.1196 H   0  0  0  0  0  0  0  0  0  0  0  0
   -0.0496   -2.0412    1.2763 H   0  0  0  0  0  0  0  0  0  0  0  0
    0.3818   -1.3932   -0.3084 H   0  0  0  0  0  0  0  0  0  0  0  0
    2.3956   -1.5137    1.1073 H   0  0  0  0  0  0  0  0  0  0  0  0
    2.5749   -2.7766   -0.1166 H   0  0  0  0  0  0  0  0  0  0  0  0
    2.0682   -3.1980    1.5139 H   0  0  0  0  0  0  0  0  0  0  0  0
    1.6097   -0.2873   -2.4326 H   0  0  0  0  0  0  0  0  0  0  0  0
    1.7682   -1.9457   -1.7971 H   0  0  0  0  0  0  0  0  0  0  0  0
    2.1710   -1.1187   -4.7042 H   0  0  0  0  0  0  0  0  0  0  0  0
    3.4121   -1.6180   -3.5577 H   0  0  0  0  0  0  0  0  0  0  0  0
    2.1998   -2.7825   -4.1062 H   0  0  0  0  0  0  0  0  0  0  0  0
    4.1153    1.9232   -4.7319 H   0  0  0  0  0  0  0  0  0  0  0  0
    4.8396   -0.2786   -5.5316 H   0  0  0  0  0  0  0  0  0  0  0  0
    3.3384   -2.0975   -8.1351 H   0  0  0  0  0  0  0  0  0  0  0  0
    4.8254   -1.4161   -8.7829 H   0  0  0  0  0  0  0  0  0  0  0  0
    4.7890   -2.0293   -7.1262 H   0  0  0  0  0  0  0  0  0  0  0  0
    2.6906    0.3256   -9.1632 H   0  0  0  0  0  0  0  0  0  0  0  0
    2.0100    2.5510   -8.3961 H   0  0  0  0  0  0  0  0  0  0  0  0
    1.7781    5.1759   -4.0472 H   0  0  0  0  0  0  0  0  0  0  0  0
    3.1994    6.6215   -2.6613 H   0  0  0  0  0  0  0  0  0  0  0  0
    5.4697    7.0865   -1.8033 H   0  0  0  0  0  0  0  0  0  0  0  0
    6.8944    6.5616   -2.7147 H   0  0  0  0  0  0  0  0  0  0  0  0
    5.9528    7.9463   -3.2630 H   0  0  0  0  0  0  0  0  0  0  0  0
    6.6394    5.3000   -4.8081 H   0  0  0  0  0  0  0  0  0  0  0  0
    5.2210    3.8756   -6.2150 H   0  0  0  0  0  0  0  0  0  0  0  0
   -2.3942    7.3475   -6.1914 H   0  0  0  0  0  0  0  0  0  0  0  0
   -4.6139    6.3801   -5.7669 H   0  0  0  0  0  0  0  0  0  0  0  0
   -7.0177    6.0987   -7.1933 H   0  0  0  0  0  0  0  0  0  0  0  0
   -6.2861    4.5577   -6.7645 H   0  0  0  0  0  0  0  0  0  0  0  0
   -6.7699    4.8722   -8.4393 H   0  0  0  0  0  0  0  0  0  0  0  0
   -5.0570    5.5647   -9.9314 H   0  0  0  0  0  0  0  0  0  0  0  0
   -2.8548    6.5672  -10.3633 H   0  0  0  0  0  0  0  0  0  0  0  0
   -3.0945    9.3352   -9.2642 H   0  0  0  0  0  0  0  0  0  0  0  0
   -2.9005   11.0777  -10.9749 H   0  0  0  0  0  0  0  0  0  0  0  0
   -1.5617   12.3581  -12.4935 H   0  0  0  0  0  0  0  0  0  0  0  0
    0.1955   12.1160  -12.5019 H   0  0  0  0  0  0  0  0  0  0  0  0
   -0.8278   11.1836  -13.5866 H   0  0  0  0  0  0  0  0  0  0  0  0
    1.0406    9.7321  -11.9002 H   0  0  0  0  0  0  0  0  0  0  0  0
    0.8524    7.9865  -10.1992 H   0  0  0  0  0  0  0  0  0  0  0  0
    2.2673    9.6283   -7.8637 H   0  0  0  0  0  0  0  0  0  0  0  0
   -0.4269   13.3829  -10.2341 H   0  0  0  0  0  0  0  0  0  0  0  0
   -0.5075   15.7887  -10.8194 H   0  0  0  0  0  0  0  0  0  0  0  0
   -0.8641   17.4705   -9.0525 H   0  0  0  0  0  0  0  0  0  0  0  0
   -1.1186   16.7621   -6.7051 H   0  0  0  0  0  0  0  0  0  0  0  0
   -1.0318   14.3650   -6.1233 H   0  0  0  0  0  0  0  0  0  0  0  0
  1  2  2  0  0  0  0
  2  3  1  0  0  0  0
  3  4  2  0  0  0  0
  3  5  1  0  0  0  0
  5  6  2  0  0  0  0
  6  7  1  0  0  0  0
  7  8  2  0  0  0  0
  8  9  1  0  0  0  0
  9 10  1  0  0  0  0
  9 11  2  0  0  0  0
 11 12  1  0  0  0  0
  6 13  1  0  0  0  0
 13 14  2  0  0  0  0
 14 15  1  0  0  0  0
 15 16  3  0  0  0  0
 14 17  1  0  0  0  0
 17 18  3  0  0  0  0
  1 19  1  0  0  0  0
 19 20  2  0  0  0  0
 20 21  1  0  0  0  0
 21 22  1  0  0  0  0
 22 23  2  0  0  0  0
 23 24  1  0  0  0  0
 24 25  2  0  0  0  0
 25 26  1  0  0  0  0
 25 27  1  0  0  0  0
 27 28  2  0  0  0  0
 21 29  1  0  0  0  0
 29 30  2  0  0  0  0
 30 31  1  0  0  0  0
 31 32  2  0  0  0  0
 32 33  1  0  0  0  0
 32 34  1  0  0  0  0
 34 35  2  0  0  0  0
 20 36  1  0  0  0  0
 36 37  1  0  0  0  0
 37 38  1  0  0  0  0
 38 39  2  0  0  0  0
 39 40  1  0  0  0  0
 40 41  1  0  0  0  0
 41 42  2  0  0  0  0
 42 43  1  0  0  0  0
 43 44  2  0  0  0  0
 44 45  1  0  0  0  0
 44 46  1  0  0  0  0
 46 47  2  0  0  0  0
 40 48  1  0  0  0  0
 48 49  2  0  0  0  0
 49 50  1  0  0  0  0
 50 51  2  0  0  0  0
 51 52  1  0  0  0  0
 51 53  1  0  0  0  0
 53 54  2  0  0  0  0
 39 55  1  0  0  0  0
 55 56  1  0  0  0  0
 38 57  1  0  0  0  0
 57 58  2  0  0  0  0
 58 59  1  0  0  0  0
 59 60  2  0  0  0  0
 60 61  1  0  0  0  0
 61 62  2  0  0  0  0
 62 63  1  0  0  0  0
 63 64  2  0  0  0  0
 64 65  1  0  0  0  0
 65 66  1  0  0  0  0
 58 67  1  0  0  0  0
 67 68  1  0  0  0  0
 68 69  1  0  0  0  0
 69 70  1  0  0  0  0
 70 71  1  0  0  0  0
 71 72  1  0  0  0  0
 72 73  2  0  0  0  0
 73 74  1  0  0  0  0
 74 75  1  0  0  0  0
 72 76  1  0  0  0  0
 76 77  1  0  0  0  0
 77 78  1  0  0  0  0
 78 79  1  0  0  0  0
 79 80  1  0  0  0  0
 80 81  1  0  0  0  0
 81 82  2  0  0  0  0
 82 83  1  0  0  0  0
 83 84  1  0  0  0  0
 82 85  1  0  0  0  0
 85 86  2  0  0  0  0
 86 87  1  0  0  0  0
 87 88  2  0  0  0  0
 80 89  2  0  0  0  0
 89 90  1  0  0  0  0
 90 91  1  0  0  0  0
 91 92  1  0  0  0  0
 92 93  1  0  0  0  0
 93 94  1  0  0  0  0
 94 95  1  0  0  0  0
 95 96  1  0  0  0  0
 96 97  1  0  0  0  0
 97 98  1  0  0  0  0
 98 99  1  0  0  0  0
 96100  1  0  0  0  0
100101  1  0  0  0  0
 93102  1  0  0  0  0
102103  1  0  0  0  0
 89104  1  0  0  0  0
104105  2  0  0  0  0
105106  1  0  0  0  0
106107  1  0  0  0  0
107108  2  0  0  0  0
108109  1  0  0  0  0
109110  2  0  0  0  0
110111  1  0  0  0  0
110112  1  0  0  0  0
112113  2  0  0  0  0
106114  1  0  0  0  0
114115  2  0  0  0  0
115116  1  0  0  0  0
116117  2  0  0  0  0
117118  1  0  0  0  0
117119  1  0  0  0  0
119120  2  0  0  0  0
105121  1  0  0  0  0
121122  1  0  0  0  0
122123  1  0  0  0  0
123124  2  0  0  0  0
124125  1  0  0  0  0
125126  1  0  0  0  0
126127  2  0  0  0  0
127128  1  0  0  0  0
128129  2  0  0  0  0
129130  1  0  0  0  0
129131  1  0  0  0  0
131132  2  0  0  0  0
125133  1  0  0  0  0
133134  2  0  0  0  0
134135  1  0  0  0  0
135136  2  0  0  0  0
136137  1  0  0  0  0
136138  1  0  0  0  0
138139  2  0  0  0  0
124140  1  0  0  0  0
140141  1  0  0  0  0
123142  1  0  0  0  0
142143  2  0  0  0  0
143144  1  0  0  0  0
144145  1  0  0  0  0
145146  2  0  0  0  0
146147  1  0  0  0  0
147148  3  0  0  0  0
146149  1  0  0  0  0
149150  3  0  0  0  0
145151  1  0  0  0  0
151152  1  0  0  0  0
152153  2  0  0  0  0
153154  1  0  0  0  0
154155  2  0  0  0  0
155156  1  0  0  0  0
156157  2  0  0  0  0
151158  1  0  0  0  0
158159  2  0  0  0  0
 13  2  1  0  0  0  0
 56 19  1  0  0  0  0
 99 57  1  0  0  0  0
141104  1  0  0  0  0
158143  1  0  0  0  0
 11  5  1  0  0  0  0
 28 22  1  0  0  0  0
 35 29  1  0  0  0  0
 55 36  2  0  0  0  0
 64 59  1  0  0  0  0
 98 67  2  0  0  0  0
113107  1  0  0  0  0
120114  1  0  0  0  0
140121  2  0  0  0  0
157152  1  0  0  0  0
 47 41  1  0  0  0  0
 54 48  1  0  0  0  0
 97 69  2  0  0  0  0
132126  1  0  0  0  0
139133  1  0  0  0  0
 95 70  2  0  0  0  0
 75 71  2  0  0  0  0
 94 76  2  0  0  0  0
 92 77  2  0  0  0  0
 91 79  2  0  0  0  0
 88 81  1  0  0  0  0
  1160  1  0  0  0  0
  7161  1  0  0  0  0
  8162  1  0  0  0  0
 23163  1  0  0  0  0
 24164  1  0  0  0  0
 26165  1  0  0  0  0
 26166  1  0  0  0  0
 26167  1  0  0  0  0
 27168  1  0  0  0  0
 28169  1  0  0  0  0
 30170  1  0  0  0  0
 31171  1  0  0  0  0
 33172  1  0  0  0  0
 33173  1  0  0  0  0
 33174  1  0  0  0  0
 34175  1  0  0  0  0
 35176  1  0  0  0  0
 42177  1  0  0  0  0
 43178  1  0  0  0  0
 45179  1  0  0  0  0
 45180  1  0  0  0  0
 45181  1  0  0  0  0
 46182  1  0  0  0  0
 47183  1  0  0  0  0
 49184  1  0  0  0  0
 50185  1  0  0  0  0
 52186  1  0  0  0  0
 52187  1  0  0  0  0
 52188  1  0  0  0  0
 53189  1  0  0  0  0
 54190  1  0  0  0  0
 60191  1  0  0  0  0
 61192  1  0  0  0  0
 62193  1  0  0  0  0
 63194  1  0  0  0  0
 65195  1  0  0  0  0
 65196  1  0  0  0  0
 66197  1  0  0  0  0
 66198  1  0  0  0  0
 66199  1  0  0  0  0
 83200  1  0  0  0  0
 83201  1  0  0  0  0
 84202  1  0  0  0  0
 84203  1  0  0  0  0
 84204  1  0  0  0  0
 85205  1  0  0  0  0
 86206  1  0  0  0  0
 87207  1  0  0  0  0
 88208  1  0  0  0  0
100209  1  0  0  0  0
100210  1  0  0  0  0
101211  1  0  0  0  0
101212  1  0  0  0  0
101213  1  0  0  0  0
102214  1  0  0  0  0
102215  1  0  0  0  0
103216  1  0  0  0  0
103217  1  0  0  0  0
103218  1  0  0  0  0
108219  1  0  0  0  0
109220  1  0  0  0  0
111221  1  0  0  0  0
111222  1  0  0  0  0
111223  1  0  0  0  0
112224  1  0  0  0  0
113225  1  0  0  0  0
115226  1  0  0  0  0
116227  1  0  0  0  0
118228  1  0  0  0  0
118229  1  0  0  0  0
118230  1  0  0  0  0
119231  1  0  0  0  0
120232  1  0  0  0  0
127233  1  0  0  0  0
128234  1  0  0  0  0
130235  1  0  0  0  0
130236  1  0  0  0  0
130237  1  0  0  0  0
131238  1  0  0  0  0
132239  1  0  0  0  0
134240  1  0  0  0  0
135241  1  0  0  0  0
137242  1  0  0  0  0
137243  1  0  0  0  0
137244  1  0  0  0  0
138245  1  0  0  0  0
139246  1  0  0  0  0
142247  1  0  0  0  0
153248  1  0  0  0  0
154249  1  0  0  0  0
155250  1  0  0  0  0
156251  1  0  0  0  0
157252  1  0  0  0  0
M  END
