
  xtb     02052223193D
 energy: -424.201912662395 gnorm: 0.000235166681 xtb: 6.4.1 (unknown)
255280  0     0  0            999 V2000
    6.7232   10.3224   -0.7615 C   0  0  0  0  0  0  0  0  0  0  0  0
    6.7472   10.6734    0.5780 C   0  0  0  0  0  0  0  0  0  0  0  0
    6.5600    9.7681    1.7057 C   0  0  0  0  0  0  0  0  0  0  0  0
    6.3019    8.5776    1.6838 O   0  0  0  0  0  0  0  0  0  0  0  0
    6.7784   10.5858    2.9216 C   0  0  0  0  0  0  0  0  0  0  0  0
    7.0924   11.9030    2.5424 C   0  0  0  0  0  0  0  0  0  0  0  0
    7.3430   12.8588    3.5125 C   0  0  0  0  0  0  0  0  0  0  0  0
    7.2746   12.4853    4.8479 C   0  0  0  0  0  0  0  0  0  0  0  0
    6.9603   11.1871    5.2149 C   0  0  0  0  0  0  0  0  0  0  0  0
    6.8729   10.7428    7.0511 Br  0  0  0  0  0  0  0  0  0  0  0  0
    6.7058   10.2067    4.2499 C   0  0  0  0  0  0  0  0  0  0  0  0
    6.3176    8.5991    4.6956 Cl  0  0  0  0  0  0  0  0  0  0  0  0
    7.0569   11.9844    1.0801 C   0  0  0  0  0  0  0  0  0  0  0  0
    7.2596   13.1370    0.3545 C   0  0  0  0  0  0  0  0  0  0  0  0
    7.0859   13.2721   -1.0352 C   0  0  0  0  0  0  0  0  0  0  0  0
    6.9301   13.4846   -2.1550 N   0  0  0  0  0  0  0  0  0  0  0  0
    7.6432   14.3688    0.9184 C   0  0  0  0  0  0  0  0  0  0  0  0
    7.9758   15.3970    1.3088 N   0  0  0  0  0  0  0  0  0  0  0  0
    6.4025    9.1202   -1.3714 C   0  0  0  0  0  0  0  0  0  0  0  0
    6.4099    8.9370   -2.7861 C   0  0  0  0  0  0  0  0  0  0  0  0
    6.9906    9.7726   -3.6914 N   0  0  0  0  0  0  0  0  0  0  0  0
    6.5413    9.7376   -5.0308 C   0  0  0  0  0  0  0  0  0  0  0  0
    5.1883    9.8887   -5.3177 C   0  0  0  0  0  0  0  0  0  0  0  0
    4.7505    9.8251   -6.6255 C   0  0  0  0  0  0  0  0  0  0  0  0
    5.6428    9.6137   -7.6705 C   0  0  0  0  0  0  0  0  0  0  0  0
    5.1523    9.5020   -9.0806 C   0  0  0  0  0  0  0  0  0  0  0  0
    6.9945    9.4867   -7.3725 C   0  0  0  0  0  0  0  0  0  0  0  0
    7.4461    9.5491   -6.0694 C   0  0  0  0  0  0  0  0  0  0  0  0
    8.1484   10.5274   -3.4142 C   0  0  0  0  0  0  0  0  0  0  0  0
    8.3015   11.7830   -3.9953 C   0  0  0  0  0  0  0  0  0  0  0  0
    9.4343   12.5286   -3.7363 C   0  0  0  0  0  0  0  0  0  0  0  0
   10.4314   12.0517   -2.8938 C   0  0  0  0  0  0  0  0  0  0  0  0
   11.6309   12.8936   -2.5878 C   0  0  0  0  0  0  0  0  0  0  0  0
   10.2785   10.7861   -2.3384 C   0  0  0  0  0  0  0  0  0  0  0  0
    9.1582   10.0230   -2.5990 C   0  0  0  0  0  0  0  0  0  0  0  0
    5.7455    7.7502   -3.1337 C   0  0  0  0  0  0  0  0  0  0  0  0
    5.3771    6.9673   -4.6377 S   0  0  0  0  0  0  0  0  0  0  0  0
    4.6614    5.6158   -3.7803 C   0  0  0  0  0  0  0  0  0  0  0  0
    4.7825    5.7372   -2.3985 C   0  0  0  0  0  0  0  0  0  0  0  0
    4.4553    4.7707   -1.4623 N   0  0  0  0  0  0  0  0  0  0  0  0
    4.0380    5.2106   -0.1904 C   0  0  0  0  0  0  0  0  0  0  0  0
    4.5744    4.6530    0.9656 C   0  0  0  0  0  0  0  0  0  0  0  0
    4.1951    5.1327    2.2026 C   0  0  0  0  0  0  0  0  0  0  0  0
    3.2825    6.1747    2.3213 C   0  0  0  0  0  0  0  0  0  0  0  0
    2.9226    6.7266    3.6654 C   0  0  0  0  0  0  0  0  0  0  0  0
    2.7379    6.7110    1.1619 C   0  0  0  0  0  0  0  0  0  0  0  0
    3.1033    6.2354   -0.0819 C   0  0  0  0  0  0  0  0  0  0  0  0
    4.6422    3.4056   -1.7045 C   0  0  0  0  0  0  0  0  0  0  0  0
    5.6532    2.9444   -2.5469 C   0  0  0  0  0  0  0  0  0  0  0  0
    5.7438    1.6011   -2.8528 C   0  0  0  0  0  0  0  0  0  0  0  0
    4.8495    0.6759   -2.3279 C   0  0  0  0  0  0  0  0  0  0  0  0
    4.9365   -0.7711   -2.7054 C   0  0  0  0  0  0  0  0  0  0  0  0
    3.8876    1.1333   -1.4359 C   0  0  0  0  0  0  0  0  0  0  0  0
    3.7785    2.4748   -1.1268 C   0  0  0  0  0  0  0  0  0  0  0  0
    5.3597    6.9789   -2.0442 C   0  0  0  0  0  0  0  0  0  0  0  0
    5.7524    7.7062   -0.5293 S   0  0  0  0  0  0  0  0  0  0  0  0
    4.0656    4.5039   -4.4554 C   0  0  0  0  0  0  0  0  0  0  0  0
    4.5928    3.6904   -5.4390 C   0  0  0  0  0  0  0  0  0  0  0  0
    5.7743    4.0058   -6.2448 C   0  0  0  0  0  0  0  0  0  0  0  0
    5.8236    5.1819   -6.9878 C   0  0  0  0  0  0  0  0  0  0  0  0
    6.9434    5.4733   -7.7437 C   0  0  0  0  0  0  0  0  0  0  0  0
    8.0103    4.5930   -7.7758 C   0  0  0  0  0  0  0  0  0  0  0  0
    7.9638    3.3991   -7.0662 C   0  0  0  0  0  0  0  0  0  0  0  0
    9.1246    2.4464   -7.0771 C   0  0  0  0  0  0  0  0  0  0  0  0
   10.0382    2.7014   -5.8765 C   0  0  0  0  0  0  0  0  0  0  0  0
    6.8406    3.1167   -6.3039 C   0  0  0  0  0  0  0  0  0  0  0  0
    3.8808    2.4759   -5.5270 C   0  0  0  0  0  0  0  0  0  0  0  0
    4.2096    0.9765   -6.3614 S   0  0  0  0  0  0  0  0  0  0  0  0
    2.8825    0.2422   -5.5233 C   0  0  0  0  0  0  0  0  0  0  0  0
    2.3498   -1.0378   -5.2896 C   0  0  0  0  0  0  0  0  0  0  0  0
    2.8010   -2.3270   -5.6509 C   0  0  0  0  0  0  0  0  0  0  0  0
    2.2299   -3.4773   -4.9999 C   0  0  0  0  0  0  0  0  0  0  0  0
    2.8193   -4.6054   -5.3626 N   0  0  0  0  0  0  0  0  0  0  0  0
    3.9841   -4.2585   -6.4326 S   0  0  0  0  0  0  0  0  0  0  0  0
    3.7879   -2.6510   -6.4712 N   0  0  0  0  0  0  0  0  0  0  0  0
    1.1412   -3.2983   -4.1183 C   0  0  0  0  0  0  0  0  0  0  0  0
    0.3681   -4.1963   -3.3556 C   0  0  0  0  0  0  0  0  0  0  0  0
    0.3221   -5.8762   -2.9361 S   0  0  0  0  0  0  0  0  0  0  0  0
   -1.0617   -5.5722   -1.9106 C   0  0  0  0  0  0  0  0  0  0  0  0
   -1.8109   -6.3939   -1.0295 C   0  0  0  0  0  0  0  0  0  0  0  0
   -1.5607   -7.8281   -0.8858 C   0  0  0  0  0  0  0  0  0  0  0  0
   -1.1861   -8.5705   -2.0051 C   0  0  0  0  0  0  0  0  0  0  0  0
   -0.9534   -9.9269   -1.8932 C   0  0  0  0  0  0  0  0  0  0  0  0
   -1.0897  -10.5613   -0.6710 C   0  0  0  0  0  0  0  0  0  0  0  0
   -1.4431   -9.8358    0.4587 C   0  0  0  0  0  0  0  0  0  0  0  0
   -1.6366  -10.5176    1.7818 C   0  0  0  0  0  0  0  0  0  0  0  0
   -3.1088  -10.8933    1.9628 C   0  0  0  0  0  0  0  0  0  0  0  0
   -1.6698   -8.4726    0.3409 C   0  0  0  0  0  0  0  0  0  0  0  0
   -2.8026   -5.6704   -0.4084 C   0  0  0  0  0  0  0  0  0  0  0  0
   -2.8090   -3.9718   -0.8940 S   0  0  0  0  0  0  0  0  0  0  0  0
   -1.4641   -4.2411   -1.9335 C   0  0  0  0  0  0  0  0  0  0  0  0
   -0.6437   -3.4521   -2.7495 C   0  0  0  0  0  0  0  0  0  0  0  0
   -0.5282   -2.1266   -3.0863 N   0  0  0  0  0  0  0  0  0  0  0  0
    0.5908   -2.0093   -3.8944 C   0  0  0  0  0  0  0  0  0  0  0  0
    1.2890   -0.8693   -4.3592 C   0  0  0  0  0  0  0  0  0  0  0  0
    1.2115    0.4633   -4.0084 N   0  0  0  0  0  0  0  0  0  0  0  0
    2.1877    1.1297   -4.6973 C   0  0  0  0  0  0  0  0  0  0  0  0
    2.7741    2.4003   -4.6831 C   0  0  0  0  0  0  0  0  0  0  0  0
    2.5756    3.8545   -3.7774 S   0  0  0  0  0  0  0  0  0  0  0  0
    0.5638    1.0882   -2.8772 C   0  0  0  0  0  0  0  0  0  0  0  0
   -0.4876    2.1090   -3.3102 C   0  0  0  0  0  0  0  0  0  0  0  0
   -1.7111   -1.2923   -3.1043 C   0  0  0  0  0  0  0  0  0  0  0  0
   -2.7830   -1.8770   -4.0237 C   0  0  0  0  0  0  0  0  0  0  0  0
   -3.8768   -6.0146    0.4929 C   0  0  0  0  0  0  0  0  0  0  0  0
   -5.2172   -5.8308    0.1955 C   0  0  0  0  0  0  0  0  0  0  0  0
   -5.6998   -5.5426   -1.0661 N   0  0  0  0  0  0  0  0  0  0  0  0
   -5.0463   -6.0490   -2.2015 C   0  0  0  0  0  0  0  0  0  0  0  0
   -4.6165   -7.3709   -2.2392 C   0  0  0  0  0  0  0  0  0  0  0  0
   -3.9377   -7.8483   -3.3428 C   0  0  0  0  0  0  0  0  0  0  0  0
   -3.6533   -7.0225   -4.4224 C   0  0  0  0  0  0  0  0  0  0  0  0
   -2.8553   -7.5172   -5.5894 C   0  0  0  0  0  0  0  0  0  0  0  0
   -4.1102   -5.7092   -4.3874 C   0  0  0  0  0  0  0  0  0  0  0  0
   -4.8076   -5.2260   -3.2994 C   0  0  0  0  0  0  0  0  0  0  0  0
   -6.7906   -4.6721   -1.2105 C   0  0  0  0  0  0  0  0  0  0  0  0
   -7.7447   -4.9041   -2.1961 C   0  0  0  0  0  0  0  0  0  0  0  0
   -8.8269   -4.0559   -2.3253 C   0  0  0  0  0  0  0  0  0  0  0  0
   -8.9918   -2.9670   -1.4786 C   0  0  0  0  0  0  0  0  0  0  0  0
  -10.1800   -2.0626   -1.5939 C   0  0  0  0  0  0  0  0  0  0  0  0
   -8.0267   -2.7358   -0.5050 C   0  0  0  0  0  0  0  0  0  0  0  0
   -6.9344   -3.5686   -0.3726 C   0  0  0  0  0  0  0  0  0  0  0  0
   -6.0244   -5.9773    1.3493 C   0  0  0  0  0  0  0  0  0  0  0  0
   -7.7105   -5.7944    1.6540 S   0  0  0  0  0  0  0  0  0  0  0  0
   -7.4547   -6.0822    3.3845 C   0  0  0  0  0  0  0  0  0  0  0  0
   -6.0832   -6.2383    3.6948 C   0  0  0  0  0  0  0  0  0  0  0  0
   -5.5207   -6.2243    4.9346 N   0  0  0  0  0  0  0  0  0  0  0  0
   -4.2513   -6.8186    5.1208 C   0  0  0  0  0  0  0  0  0  0  0  0
   -3.2346   -6.1011    5.7414 C   0  0  0  0  0  0  0  0  0  0  0  0
   -1.9970   -6.6848    5.9272 C   0  0  0  0  0  0  0  0  0  0  0  0
   -1.7526   -7.9899    5.5149 C   0  0  0  0  0  0  0  0  0  0  0  0
   -0.4019   -8.6105    5.6960 C   0  0  0  0  0  0  0  0  0  0  0  0
   -2.7856   -8.7018    4.9162 C   0  0  0  0  0  0  0  0  0  0  0  0
   -4.0233   -8.1266    4.7089 C   0  0  0  0  0  0  0  0  0  0  0  0
   -6.1066   -5.5865    6.0362 C   0  0  0  0  0  0  0  0  0  0  0  0
   -6.7824   -4.3743    5.8967 C   0  0  0  0  0  0  0  0  0  0  0  0
   -7.3790   -3.7839    6.9900 C   0  0  0  0  0  0  0  0  0  0  0  0
   -7.3225   -4.3749    8.2507 C   0  0  0  0  0  0  0  0  0  0  0  0
   -8.0239   -3.7448    9.4121 C   0  0  0  0  0  0  0  0  0  0  0  0
   -6.6082   -5.5570    8.3897 C   0  0  0  0  0  0  0  0  0  0  0  0
   -6.0028   -6.1590    7.3021 C   0  0  0  0  0  0  0  0  0  0  0  0
   -5.3093   -6.2352    2.5104 C   0  0  0  0  0  0  0  0  0  0  0  0
   -3.6134   -6.3729    2.1911 S   0  0  0  0  0  0  0  0  0  0  0  0
   -8.5863   -6.0595    4.1944 C   0  0  0  0  0  0  0  0  0  0  0  0
   -8.6916   -6.5936    5.4664 C   0  0  0  0  0  0  0  0  0  0  0  0
   -7.8996   -7.7350    5.9428 C   0  0  0  0  0  0  0  0  0  0  0  0
   -7.0510   -8.3546    5.3294 O   0  0  0  0  0  0  0  0  0  0  0  0
   -8.4416   -8.0586    7.2847 C   0  0  0  0  0  0  0  0  0  0  0  0
   -8.0471   -9.0367    8.1674 C   0  0  0  0  0  0  0  0  0  0  0  0
   -8.7093   -9.1274    9.3952 C   0  0  0  0  0  0  0  0  0  0  0  0
   -8.2589  -10.1660   10.3551 C   0  0  0  0  0  0  0  0  0  0  0  0
   -7.3007  -10.8785   10.1832 O   0  0  0  0  0  0  0  0  0  0  0  0
   -9.0352  -10.2306   11.4468 O   0  0  0  0  0  0  0  0  0  0  0  0
   -8.6650  -11.2040   12.4114 C   0  0  0  0  0  0  0  0  0  0  0  0
   -9.7528   -8.2553    9.6965 C   0  0  0  0  0  0  0  0  0  0  0  0
  -10.1515   -7.2738    8.8003 C   0  0  0  0  0  0  0  0  0  0  0  0
   -9.4867   -7.1688    7.5900 C   0  0  0  0  0  0  0  0  0  0  0  0
   -9.6394   -6.2321    6.4767 C   0  0  0  0  0  0  0  0  0  0  0  0
  -10.4185   -5.0984    6.4826 C   0  0  0  0  0  0  0  0  0  0  0  0
  -10.4162   -4.1395    5.4514 C   0  0  0  0  0  0  0  0  0  0  0  0
  -10.4366   -3.3019    4.6649 N   0  0  0  0  0  0  0  0  0  0  0  0
  -11.2400   -4.7101    7.5552 C   0  0  0  0  0  0  0  0  0  0  0  0
  -11.9119   -4.3321    8.4078 N   0  0  0  0  0  0  0  0  0  0  0  0
    6.9808   11.1153   -1.4516 H   0  0  0  0  0  0  0  0  0  0  0  0
    7.5878   13.8765    3.2592 H   0  0  0  0  0  0  0  0  0  0  0  0
    7.4664   13.2157    5.6188 H   0  0  0  0  0  0  0  0  0  0  0  0
    4.4891   10.0573   -4.5120 H   0  0  0  0  0  0  0  0  0  0  0  0
    3.6983    9.9422   -6.8392 H   0  0  0  0  0  0  0  0  0  0  0  0
    5.9419    9.7408   -9.7887 H   0  0  0  0  0  0  0  0  0  0  0  0
    4.8182    8.4823   -9.2762 H   0  0  0  0  0  0  0  0  0  0  0  0
    4.3096   10.1677   -9.2522 H   0  0  0  0  0  0  0  0  0  0  0  0
    7.7050    9.3307   -8.1712 H   0  0  0  0  0  0  0  0  0  0  0  0
    8.4974    9.4413   -5.8472 H   0  0  0  0  0  0  0  0  0  0  0  0
    7.5257   12.1734   -4.6347 H   0  0  0  0  0  0  0  0  0  0  0  0
    9.5356   13.5069   -4.1808 H   0  0  0  0  0  0  0  0  0  0  0  0
   11.3441   13.7322   -1.9532 H   0  0  0  0  0  0  0  0  0  0  0  0
   12.3933   12.3163   -2.0708 H   0  0  0  0  0  0  0  0  0  0  0  0
   12.0570   13.3019   -3.5024 H   0  0  0  0  0  0  0  0  0  0  0  0
   11.0512   10.3864   -1.6976 H   0  0  0  0  0  0  0  0  0  0  0  0
    9.0588    9.0380   -2.1670 H   0  0  0  0  0  0  0  0  0  0  0  0
    5.2980    3.8550    0.8856 H   0  0  0  0  0  0  0  0  0  0  0  0
    4.6294    4.7022    3.0932 H   0  0  0  0  0  0  0  0  0  0  0  0
    1.9315    7.1745    3.6530 H   0  0  0  0  0  0  0  0  0  0  0  0
    2.9532    5.9514    4.4280 H   0  0  0  0  0  0  0  0  0  0  0  0
    3.6382    7.5004    3.9440 H   0  0  0  0  0  0  0  0  0  0  0  0
    2.0195    7.5152    1.2321 H   0  0  0  0  0  0  0  0  0  0  0  0
    2.6730    6.6594   -0.9782 H   0  0  0  0  0  0  0  0  0  0  0  0
    6.3621    3.6427   -2.9674 H   0  0  0  0  0  0  0  0  0  0  0  0
    6.5250    1.2605   -3.5168 H   0  0  0  0  0  0  0  0  0  0  0  0
    5.7553   -1.2538   -2.1712 H   0  0  0  0  0  0  0  0  0  0  0  0
    5.1244   -0.8799   -3.7721 H   0  0  0  0  0  0  0  0  0  0  0  0
    4.0147   -1.2945   -2.4600 H   0  0  0  0  0  0  0  0  0  0  0  0
    3.2017    0.4277   -0.9878 H   0  0  0  0  0  0  0  0  0  0  0  0
    3.0067    2.8190   -0.4536 H   0  0  0  0  0  0  0  0  0  0  0  0
    4.9745    5.8494   -6.9930 H   0  0  0  0  0  0  0  0  0  0  0  0
    6.9804    6.3920   -8.3101 H   0  0  0  0  0  0  0  0  0  0  0  0
    8.8836    4.8268   -8.3678 H   0  0  0  0  0  0  0  0  0  0  0  0
    9.6970    2.5699   -7.9983 H   0  0  0  0  0  0  0  0  0  0  0  0
    8.7569    1.4191   -7.0381 H   0  0  0  0  0  0  0  0  0  0  0  0
    9.4884    2.5715   -4.9469 H   0  0  0  0  0  0  0  0  0  0  0  0
   10.4254    3.7177   -5.9045 H   0  0  0  0  0  0  0  0  0  0  0  0
   10.8772    2.0097   -5.8828 H   0  0  0  0  0  0  0  0  0  0  0  0
    6.7924    2.1954   -5.7427 H   0  0  0  0  0  0  0  0  0  0  0  0
   -1.0929   -8.0870   -2.9642 H   0  0  0  0  0  0  0  0  0  0  0  0
   -0.6652  -10.4940   -2.7663 H   0  0  0  0  0  0  0  0  0  0  0  0
   -0.9111  -11.6240   -0.5904 H   0  0  0  0  0  0  0  0  0  0  0  0
   -1.3312   -9.8479    2.5880 H   0  0  0  0  0  0  0  0  0  0  0  0
   -1.0234  -11.4198    1.8292 H   0  0  0  0  0  0  0  0  0  0  0  0
   -3.7272   -9.9985    1.9668 H   0  0  0  0  0  0  0  0  0  0  0  0
   -3.2603  -11.4255    2.8990 H   0  0  0  0  0  0  0  0  0  0  0  0
   -3.4369  -11.5341    1.1471 H   0  0  0  0  0  0  0  0  0  0  0  0
   -1.9091   -7.9029    1.2255 H   0  0  0  0  0  0  0  0  0  0  0  0
    1.3369    1.6114   -2.3032 H   0  0  0  0  0  0  0  0  0  0  0  0
    0.1381    0.3144   -2.2382 H   0  0  0  0  0  0  0  0  0  0  0  0
   -1.0055    2.4940   -2.4364 H   0  0  0  0  0  0  0  0  0  0  0  0
   -0.0094    2.9408   -3.8203 H   0  0  0  0  0  0  0  0  0  0  0  0
   -1.2190    1.6741   -3.9882 H   0  0  0  0  0  0  0  0  0  0  0  0
   -1.4455   -0.3050   -3.4677 H   0  0  0  0  0  0  0  0  0  0  0  0
   -2.1000   -1.2173   -2.0836 H   0  0  0  0  0  0  0  0  0  0  0  0
   -3.6508   -1.2229   -4.0346 H   0  0  0  0  0  0  0  0  0  0  0  0
   -3.0933   -2.8597   -3.6800 H   0  0  0  0  0  0  0  0  0  0  0  0
   -2.3985   -1.9677   -5.0377 H   0  0  0  0  0  0  0  0  0  0  0  0
   -4.8097   -8.0206   -1.3982 H   0  0  0  0  0  0  0  0  0  0  0  0
   -3.6198   -8.8803   -3.3578 H   0  0  0  0  0  0  0  0  0  0  0  0
   -3.3244   -7.2305   -6.5289 H   0  0  0  0  0  0  0  0  0  0  0  0
   -2.7559   -8.5992   -5.5613 H   0  0  0  0  0  0  0  0  0  0  0  0
   -1.8560   -7.0800   -5.5707 H   0  0  0  0  0  0  0  0  0  0  0  0
   -3.9086   -5.0546   -5.2236 H   0  0  0  0  0  0  0  0  0  0  0  0
   -5.1621   -4.2053   -3.2806 H   0  0  0  0  0  0  0  0  0  0  0  0
   -7.6334   -5.7539   -2.8534 H   0  0  0  0  0  0  0  0  0  0  0  0
   -9.5625   -4.2525   -3.0919 H   0  0  0  0  0  0  0  0  0  0  0  0
   -9.8673   -1.0204   -1.6341 H   0  0  0  0  0  0  0  0  0  0  0  0
  -10.7587   -2.2899   -2.4856 H   0  0  0  0  0  0  0  0  0  0  0  0
  -10.8255   -2.1816   -0.7240 H   0  0  0  0  0  0  0  0  0  0  0  0
   -8.1318   -1.8881    0.1563 H   0  0  0  0  0  0  0  0  0  0  0  0
   -6.1812   -3.3636    0.3746 H   0  0  0  0  0  0  0  0  0  0  0  0
   -3.4195   -5.0889    6.0708 H   0  0  0  0  0  0  0  0  0  0  0  0
   -1.2088   -6.1184    6.4013 H   0  0  0  0  0  0  0  0  0  0  0  0
   -0.4810   -9.6899    5.8012 H   0  0  0  0  0  0  0  0  0  0  0  0
    0.0991   -8.2048    6.5716 H   0  0  0  0  0  0  0  0  0  0  0  0
    0.2214   -8.4011    4.8255 H   0  0  0  0  0  0  0  0  0  0  0  0
   -2.6232   -9.7269    4.6214 H   0  0  0  0  0  0  0  0  0  0  0  0
   -4.8330   -8.6870    4.2687 H   0  0  0  0  0  0  0  0  0  0  0  0
   -6.8418   -3.8979    4.9296 H   0  0  0  0  0  0  0  0  0  0  0  0
   -7.9061   -2.8493    6.8640 H   0  0  0  0  0  0  0  0  0  0  0  0
   -7.7745   -4.2524   10.3401 H   0  0  0  0  0  0  0  0  0  0  0  0
   -7.7520   -2.6942    9.4995 H   0  0  0  0  0  0  0  0  0  0  0  0
   -9.1042   -3.7939    9.2727 H   0  0  0  0  0  0  0  0  0  0  0  0
   -6.5350   -6.0272    9.3595 H   0  0  0  0  0  0  0  0  0  0  0  0
   -5.4593   -7.0837    7.4240 H   0  0  0  0  0  0  0  0  0  0  0  0
   -9.4650   -5.6016    3.7558 H   0  0  0  0  0  0  0  0  0  0  0  0
   -7.2422   -9.7170    7.9349 H   0  0  0  0  0  0  0  0  0  0  0  0
   -8.6315  -12.1959   11.9560 H   0  0  0  0  0  0  0  0  0  0  0  0
   -9.4226  -11.1644   13.1897 H   0  0  0  0  0  0  0  0  0  0  0  0
   -7.6796  -10.9745   12.8226 H   0  0  0  0  0  0  0  0  0  0  0  0
  -10.2547   -8.3474   10.6468 H   0  0  0  0  0  0  0  0  0  0  0  0
  -10.9662   -6.6152    9.0545 H   0  0  0  0  0  0  0  0  0  0  0  0
  1  2  2  0  0  0  0
  2  3  1  0  0  0  0
  3  4  2  0  0  0  0
  3  5  1  0  0  0  0
  5  6  2  0  0  0  0
  6  7  1  0  0  0  0
  7  8  2  0  0  0  0
  8  9  1  0  0  0  0
  9 10  1  0  0  0  0
  9 11  2  0  0  0  0
 11 12  1  0  0  0  0
  6 13  1  0  0  0  0
 13 14  2  0  0  0  0
 14 15  1  0  0  0  0
 15 16  3  0  0  0  0
 14 17  1  0  0  0  0
 17 18  3  0  0  0  0
  1 19  1  0  0  0  0
 19 20  2  0  0  0  0
 20 21  1  0  0  0  0
 21 22  1  0  0  0  0
 22 23  2  0  0  0  0
 23 24  1  0  0  0  0
 24 25  2  0  0  0  0
 25 26  1  0  0  0  0
 25 27  1  0  0  0  0
 27 28  2  0  0  0  0
 21 29  1  0  0  0  0
 29 30  2  0  0  0  0
 30 31  1  0  0  0  0
 31 32  2  0  0  0  0
 32 33  1  0  0  0  0
 32 34  1  0  0  0  0
 34 35  2  0  0  0  0
 20 36  1  0  0  0  0
 36 37  1  0  0  0  0
 37 38  1  0  0  0  0
 38 39  2  0  0  0  0
 39 40  1  0  0  0  0
 40 41  1  0  0  0  0
 41 42  2  0  0  0  0
 42 43  1  0  0  0  0
 43 44  2  0  0  0  0
 44 45  1  0  0  0  0
 44 46  1  0  0  0  0
 46 47  2  0  0  0  0
 40 48  1  0  0  0  0
 48 49  2  0  0  0  0
 49 50  1  0  0  0  0
 50 51  2  0  0  0  0
 51 52  1  0  0  0  0
 51 53  1  0  0  0  0
 53 54  2  0  0  0  0
 39 55  1  0  0  0  0
 55 56  1  0  0  0  0
 38 57  1  0  0  0  0
 57 58  2  0  0  0  0
 58 59  1  0  0  0  0
 59 60  2  0  0  0  0
 60 61  1  0  0  0  0
 61 62  2  0  0  0  0
 62 63  1  0  0  0  0
 63 64  1  0  0  0  0
 64 65  1  0  0  0  0
 63 66  2  0  0  0  0
 58 67  1  0  0  0  0
 67 68  1  0  0  0  0
 68 69  1  0  0  0  0
 69 70  1  0  0  0  0
 70 71  1  0  0  0  0
 71 72  1  0  0  0  0
 72 73  2  0  0  0  0
 73 74  1  0  0  0  0
 74 75  1  0  0  0  0
 72 76  1  0  0  0  0
 76 77  1  0  0  0  0
 77 78  1  0  0  0  0
 78 79  1  0  0  0  0
 79 80  1  0  0  0  0
 80 81  1  0  0  0  0
 81 82  2  0  0  0  0
 82 83  1  0  0  0  0
 83 84  2  0  0  0  0
 84 85  1  0  0  0  0
 85 86  1  0  0  0  0
 86 87  1  0  0  0  0
 85 88  2  0  0  0  0
 80 89  2  0  0  0  0
 89 90  1  0  0  0  0
 90 91  1  0  0  0  0
 91 92  1  0  0  0  0
 92 93  1  0  0  0  0
 93 94  1  0  0  0  0
 94 95  1  0  0  0  0
 95 96  1  0  0  0  0
 96 97  1  0  0  0  0
 97 98  1  0  0  0  0
 98 99  1  0  0  0  0
 96100  1  0  0  0  0
100101  1  0  0  0  0
 93102  1  0  0  0  0
102103  1  0  0  0  0
 89104  1  0  0  0  0
104105  2  0  0  0  0
105106  1  0  0  0  0
106107  1  0  0  0  0
107108  2  0  0  0  0
108109  1  0  0  0  0
109110  2  0  0  0  0
110111  1  0  0  0  0
110112  1  0  0  0  0
112113  2  0  0  0  0
106114  1  0  0  0  0
114115  2  0  0  0  0
115116  1  0  0  0  0
116117  2  0  0  0  0
117118  1  0  0  0  0
117119  1  0  0  0  0
119120  2  0  0  0  0
105121  1  0  0  0  0
121122  1  0  0  0  0
122123  1  0  0  0  0
123124  2  0  0  0  0
124125  1  0  0  0  0
125126  1  0  0  0  0
126127  2  0  0  0  0
127128  1  0  0  0  0
128129  2  0  0  0  0
129130  1  0  0  0  0
129131  1  0  0  0  0
131132  2  0  0  0  0
125133  1  0  0  0  0
133134  2  0  0  0  0
134135  1  0  0  0  0
135136  2  0  0  0  0
136137  1  0  0  0  0
136138  1  0  0  0  0
138139  2  0  0  0  0
124140  1  0  0  0  0
140141  1  0  0  0  0
123142  1  0  0  0  0
142143  2  0  0  0  0
143144  1  0  0  0  0
144145  2  0  0  0  0
144146  1  0  0  0  0
146147  2  0  0  0  0
147148  1  0  0  0  0
148149  1  0  0  0  0
149150  2  0  0  0  0
149151  1  0  0  0  0
151152  1  0  0  0  0
148153  2  0  0  0  0
153154  1  0  0  0  0
154155  2  0  0  0  0
155156  1  0  0  0  0
156157  2  0  0  0  0
157158  1  0  0  0  0
158159  3  0  0  0  0
157160  1  0  0  0  0
160161  3  0  0  0  0
 13  2  1  0  0  0  0
 56 19  1  0  0  0  0
 99 57  1  0  0  0  0
141104  1  0  0  0  0
156143  1  0  0  0  0
 11  5  1  0  0  0  0
 28 22  1  0  0  0  0
 35 29  1  0  0  0  0
 55 36  2  0  0  0  0
 66 59  1  0  0  0  0
 98 67  2  0  0  0  0
113107  1  0  0  0  0
120114  1  0  0  0  0
140121  2  0  0  0  0
155146  1  0  0  0  0
 47 41  1  0  0  0  0
 54 48  1  0  0  0  0
 97 69  2  0  0  0  0
132126  1  0  0  0  0
139133  1  0  0  0  0
 95 70  2  0  0  0  0
 75 71  2  0  0  0  0
 94 76  2  0  0  0  0
 92 77  2  0  0  0  0
 91 79  2  0  0  0  0
 88 81  1  0  0  0  0
  1162  1  0  0  0  0
  7163  1  0  0  0  0
  8164  1  0  0  0  0
 23165  1  0  0  0  0
 24166  1  0  0  0  0
 26167  1  0  0  0  0
 26168  1  0  0  0  0
 26169  1  0  0  0  0
 27170  1  0  0  0  0
 28171  1  0  0  0  0
 30172  1  0  0  0  0
 31173  1  0  0  0  0
 33174  1  0  0  0  0
 33175  1  0  0  0  0
 33176  1  0  0  0  0
 34177  1  0  0  0  0
 35178  1  0  0  0  0
 42179  1  0  0  0  0
 43180  1  0  0  0  0
 45181  1  0  0  0  0
 45182  1  0  0  0  0
 45183  1  0  0  0  0
 46184  1  0  0  0  0
 47185  1  0  0  0  0
 49186  1  0  0  0  0
 50187  1  0  0  0  0
 52188  1  0  0  0  0
 52189  1  0  0  0  0
 52190  1  0  0  0  0
 53191  1  0  0  0  0
 54192  1  0  0  0  0
 60193  1  0  0  0  0
 61194  1  0  0  0  0
 62195  1  0  0  0  0
 64196  1  0  0  0  0
 64197  1  0  0  0  0
 65198  1  0  0  0  0
 65199  1  0  0  0  0
 65200  1  0  0  0  0
 66201  1  0  0  0  0
 82202  1  0  0  0  0
 83203  1  0  0  0  0
 84204  1  0  0  0  0
 86205  1  0  0  0  0
 86206  1  0  0  0  0
 87207  1  0  0  0  0
 87208  1  0  0  0  0
 87209  1  0  0  0  0
 88210  1  0  0  0  0
100211  1  0  0  0  0
100212  1  0  0  0  0
101213  1  0  0  0  0
101214  1  0  0  0  0
101215  1  0  0  0  0
102216  1  0  0  0  0
102217  1  0  0  0  0
103218  1  0  0  0  0
103219  1  0  0  0  0
103220  1  0  0  0  0
108221  1  0  0  0  0
109222  1  0  0  0  0
111223  1  0  0  0  0
111224  1  0  0  0  0
111225  1  0  0  0  0
112226  1  0  0  0  0
113227  1  0  0  0  0
115228  1  0  0  0  0
116229  1  0  0  0  0
118230  1  0  0  0  0
118231  1  0  0  0  0
118232  1  0  0  0  0
119233  1  0  0  0  0
120234  1  0  0  0  0
127235  1  0  0  0  0
128236  1  0  0  0  0
130237  1  0  0  0  0
130238  1  0  0  0  0
130239  1  0  0  0  0
131240  1  0  0  0  0
132241  1  0  0  0  0
134242  1  0  0  0  0
135243  1  0  0  0  0
137244  1  0  0  0  0
137245  1  0  0  0  0
137246  1  0  0  0  0
138247  1  0  0  0  0
139248  1  0  0  0  0
142249  1  0  0  0  0
147250  1  0  0  0  0
152251  1  0  0  0  0
152252  1  0  0  0  0
152253  1  0  0  0  0
153254  1  0  0  0  0
154255  1  0  0  0  0
M  END
