
  xtb     02062209553D
 energy: -384.948008553326 gnorm: 0.000489409304 xtb: 6.4.1 (unknown)
229252  0     0  0            999 V2000
   -3.7713   10.1707   -7.0110 C   0  0  0  0  0  0  0  0  0  0  0  0
   -3.7405   11.5174   -7.3222 C   0  0  0  0  0  0  0  0  0  0  0  0
   -2.5812   12.3969   -7.2078 C   0  0  0  0  0  0  0  0  0  0  0  0
   -1.4918   12.1476   -6.7246 O   0  0  0  0  0  0  0  0  0  0  0  0
   -2.9861   13.6792   -7.8293 C   0  0  0  0  0  0  0  0  0  0  0  0
   -4.3168   13.5790   -8.2737 C   0  0  0  0  0  0  0  0  0  0  0  0
   -4.9217   14.6605   -8.8918 C   0  0  0  0  0  0  0  0  0  0  0  0
   -4.1872   15.8262   -9.0612 C   0  0  0  0  0  0  0  0  0  0  0  0
   -2.8765   15.9189   -8.6222 C   0  0  0  0  0  0  0  0  0  0  0  0
   -1.9288   17.5348   -8.8807 Br  0  0  0  0  0  0  0  0  0  0  0  0
   -2.2489   14.8385   -7.9925 C   0  0  0  0  0  0  0  0  0  0  0  0
   -0.6321   14.9466   -7.4437 Cl  0  0  0  0  0  0  0  0  0  0  0  0
   -4.8167   12.2433   -7.9422 C   0  0  0  0  0  0  0  0  0  0  0  0
   -6.1001   11.8039   -8.1736 C   0  0  0  0  0  0  0  0  0  0  0  0
   -6.6332   10.5746   -7.7434 C   0  0  0  0  0  0  0  0  0  0  0  0
   -7.1612    9.6111   -7.4030 N   0  0  0  0  0  0  0  0  0  0  0  0
   -7.0811   12.5490   -8.8560 C   0  0  0  0  0  0  0  0  0  0  0  0
   -7.9207   13.0930   -9.4208 N   0  0  0  0  0  0  0  0  0  0  0  0
   -2.8152    9.3589   -6.4167 C   0  0  0  0  0  0  0  0  0  0  0  0
   -2.9965    7.9604   -6.2246 C   0  0  0  0  0  0  0  0  0  0  0  0
   -4.0112    7.2101   -6.7504 N   0  0  0  0  0  0  0  0  0  0  0  0
   -4.4553    6.0829   -6.0305 C   0  0  0  0  0  0  0  0  0  0  0  0
   -4.6672    4.8673   -6.6715 C   0  0  0  0  0  0  0  0  0  0  0  0
   -5.0999    3.7728   -5.9488 C   0  0  0  0  0  0  0  0  0  0  0  0
   -5.3264    3.8593   -4.5809 C   0  0  0  0  0  0  0  0  0  0  0  0
   -5.8045    2.6766   -3.7972 C   0  0  0  0  0  0  0  0  0  0  0  0
   -5.1175    5.0815   -3.9509 C   0  0  0  0  0  0  0  0  0  0  0  0
   -4.6913    6.1842   -4.6617 C   0  0  0  0  0  0  0  0  0  0  0  0
   -4.5374    7.4381   -8.0359 C   0  0  0  0  0  0  0  0  0  0  0  0
   -5.8883    7.2096   -8.2850 C   0  0  0  0  0  0  0  0  0  0  0  0
   -6.4023    7.4269   -9.5478 C   0  0  0  0  0  0  0  0  0  0  0  0
   -5.5961    7.8821  -10.5845 C   0  0  0  0  0  0  0  0  0  0  0  0
   -6.1801    8.1513  -11.9365 C   0  0  0  0  0  0  0  0  0  0  0  0
   -4.2454    8.0901  -10.3287 C   0  0  0  0  0  0  0  0  0  0  0  0
   -3.7137    7.8638   -9.0753 C   0  0  0  0  0  0  0  0  0  0  0  0
   -1.9741    7.4319   -5.4219 C   0  0  0  0  0  0  0  0  0  0  0  0
   -1.6185    5.8455   -4.8182 S   0  0  0  0  0  0  0  0  0  0  0  0
   -0.1301    6.4422   -4.1031 C   0  0  0  0  0  0  0  0  0  0  0  0
    0.0390    7.8101   -4.2693 C   0  0  0  0  0  0  0  0  0  0  0  0
    1.0521    8.5553   -3.6976 N   0  0  0  0  0  0  0  0  0  0  0  0
    1.5363    9.6929   -4.3650 C   0  0  0  0  0  0  0  0  0  0  0  0
    1.6863    9.6923   -5.7486 C   0  0  0  0  0  0  0  0  0  0  0  0
    2.1280   10.8276   -6.4001 C   0  0  0  0  0  0  0  0  0  0  0  0
    2.4434   11.9801   -5.6950 C   0  0  0  0  0  0  0  0  0  0  0  0
    2.8944   13.2216   -6.3997 C   0  0  0  0  0  0  0  0  0  0  0  0
    2.3134   11.9635   -4.3102 C   0  0  0  0  0  0  0  0  0  0  0  0
    1.8640   10.8401   -3.6480 C   0  0  0  0  0  0  0  0  0  0  0  0
    1.5848    8.1800   -2.4539 C   0  0  0  0  0  0  0  0  0  0  0  0
    0.7540    7.7149   -1.4387 C   0  0  0  0  0  0  0  0  0  0  0  0
    1.2942    7.2489   -0.2565 C   0  0  0  0  0  0  0  0  0  0  0  0
    2.6676    7.2342   -0.0510 C   0  0  0  0  0  0  0  0  0  0  0  0
    3.2612    6.6496    1.1941 C   0  0  0  0  0  0  0  0  0  0  0  0
    3.4858    7.7581   -1.0456 C   0  0  0  0  0  0  0  0  0  0  0  0
    2.9581    8.2320   -2.2291 C   0  0  0  0  0  0  0  0  0  0  0  0
   -1.0080    8.3601   -5.0489 C   0  0  0  0  0  0  0  0  0  0  0  0
   -1.3144    9.9362   -5.6814 S   0  0  0  0  0  0  0  0  0  0  0  0
    0.7229    5.5435   -3.3850 C   0  0  0  0  0  0  0  0  0  0  0  0
    2.0875    5.4039   -3.4761 C   0  0  0  0  0  0  0  0  0  0  0  0
    2.9567    5.9873   -4.5431 C   0  0  0  0  0  0  0  0  0  0  0  0
    3.0570    5.0157   -5.7215 C   0  0  0  0  0  0  0  0  0  0  0  0
    2.5688    4.4953   -2.5156 C   0  0  0  0  0  0  0  0  0  0  0  0
    4.1787    3.9402   -2.1287 S   0  0  0  0  0  0  0  0  0  0  0  0
    3.5077    2.9258   -0.8974 C   0  0  0  0  0  0  0  0  0  0  0  0
    3.9316    1.9924    0.0669 C   0  0  0  0  0  0  0  0  0  0  0  0
    5.2292    1.5809    0.4496 C   0  0  0  0  0  0  0  0  0  0  0  0
    5.3566    0.6300    1.5250 C   0  0  0  0  0  0  0  0  0  0  0  0
    6.5973    0.3216    1.8506 N   0  0  0  0  0  0  0  0  0  0  0  0
    7.6966    1.2261    0.8083 Se  0  0  0  0  0  2  0  0  0  0  0  0
    6.3710    2.0049   -0.0569 N   0  0  0  0  0  0  0  0  0  0  0  0
    4.1800    0.0634    2.0685 C   0  0  0  0  0  0  0  0  0  0  0  0
    4.0171   -1.0076    2.9631 C   0  0  0  0  0  0  0  0  0  0  0  0
    4.9895   -2.0981    3.8904 S   0  0  0  0  0  0  0  0  0  0  0  0
    3.5467   -2.9836    4.3151 C   0  0  0  0  0  0  0  0  0  0  0  0
    3.3541   -4.1992    4.9988 C   0  0  0  0  0  0  0  0  0  0  0  0
    4.4452   -4.9102    5.7319 C   0  0  0  0  0  0  0  0  0  0  0  0
    4.5535   -4.3727    7.1604 C   0  0  0  0  0  0  0  0  0  0  0  0
    2.0344   -4.5770    4.9772 C   0  0  0  0  0  0  0  0  0  0  0  0
    1.0023   -3.3878    4.1841 S   0  0  0  0  0  0  0  0  0  0  0  0
    2.3828   -2.4316    3.7841 C   0  0  0  0  0  0  0  0  0  0  0  0
    2.6522   -1.2935    3.0114 C   0  0  0  0  0  0  0  0  0  0  0  0
    1.9602   -0.4228    2.2120 N   0  0  0  0  0  0  0  0  0  0  0  0
    2.8797    0.4329    1.6278 C   0  0  0  0  0  0  0  0  0  0  0  0
    2.7605    1.5085    0.7091 C   0  0  0  0  0  0  0  0  0  0  0  0
    1.6609    2.1701    0.1830 N   0  0  0  0  0  0  0  0  0  0  0  0
    2.1201    3.0196   -0.7928 C   0  0  0  0  0  0  0  0  0  0  0  0
    1.5807    3.9286   -1.7118 C   0  0  0  0  0  0  0  0  0  0  0  0
    0.0158    4.5141   -2.1415 S   0  0  0  0  0  0  0  0  0  0  0  0
    0.4059    2.4928    0.8247 C   0  0  0  0  0  0  0  0  0  0  0  0
    0.5456    3.7458    1.6873 C   0  0  0  0  0  0  0  0  0  0  0  0
    0.5960   -0.7334    1.8439 C   0  0  0  0  0  0  0  0  0  0  0  0
    0.4313   -0.9668    0.3461 C   0  0  0  0  0  0  0  0  0  0  0  0
    1.4735   -5.8467    5.3374 C   0  0  0  0  0  0  0  0  0  0  0  0
    1.8822   -7.0849    4.8622 C   0  0  0  0  0  0  0  0  0  0  0  0
    2.9089   -7.2979    3.9622 N   0  0  0  0  0  0  0  0  0  0  0  0
    3.2139   -6.3521    2.9702 C   0  0  0  0  0  0  0  0  0  0  0  0
    4.5430   -6.0540    2.6760 C   0  0  0  0  0  0  0  0  0  0  0  0
    4.8483   -5.0662    1.7637 C   0  0  0  0  0  0  0  0  0  0  0  0
    3.8470   -4.3505    1.1150 C   0  0  0  0  0  0  0  0  0  0  0  0
    4.2059   -3.2532    0.1604 C   0  0  0  0  0  0  0  0  0  0  0  0
    2.5265   -4.6905    1.3737 C   0  0  0  0  0  0  0  0  0  0  0  0
    2.2071   -5.6819    2.2826 C   0  0  0  0  0  0  0  0  0  0  0  0
    3.6294   -8.5033    4.0164 C   0  0  0  0  0  0  0  0  0  0  0  0
    3.9993   -9.1506    2.8416 C   0  0  0  0  0  0  0  0  0  0  0  0
    4.6791  -10.3501    2.8970 C   0  0  0  0  0  0  0  0  0  0  0  0
    5.0030  -10.9374    4.1139 C   0  0  0  0  0  0  0  0  0  0  0  0
    5.6923  -12.2656    4.1692 C   0  0  0  0  0  0  0  0  0  0  0  0
    4.6465  -10.2752    5.2815 C   0  0  0  0  0  0  0  0  0  0  0  0
    3.9742   -9.0702    5.2402 C   0  0  0  0  0  0  0  0  0  0  0  0
    1.0732   -8.1224    5.3895 C   0  0  0  0  0  0  0  0  0  0  0  0
    1.0250   -9.8295    5.1334 S   0  0  0  0  0  0  0  0  0  0  0  0
   -0.3784   -9.9565    6.2008 C   0  0  0  0  0  0  0  0  0  0  0  0
   -0.8183   -8.6831    6.6541 C   0  0  0  0  0  0  0  0  0  0  0  0
   -1.9291   -8.4455    7.4155 N   0  0  0  0  0  0  0  0  0  0  0  0
   -3.1243   -9.1740    7.2679 C   0  0  0  0  0  0  0  0  0  0  0  0
   -3.9231   -9.4305    8.3795 C   0  0  0  0  0  0  0  0  0  0  0  0
   -5.0983  -10.1403    8.2347 C   0  0  0  0  0  0  0  0  0  0  0  0
   -5.5017  -10.6192    6.9939 C   0  0  0  0  0  0  0  0  0  0  0  0
   -6.7570  -11.4249    6.8647 C   0  0  0  0  0  0  0  0  0  0  0  0
   -4.7056  -10.3418    5.8882 C   0  0  0  0  0  0  0  0  0  0  0  0
   -3.5357   -9.6202    6.0143 C   0  0  0  0  0  0  0  0  0  0  0  0
   -1.9160   -7.3483    8.3002 C   0  0  0  0  0  0  0  0  0  0  0  0
   -0.8130   -7.1325    9.1222 C   0  0  0  0  0  0  0  0  0  0  0  0
   -0.7965   -6.0589    9.9885 C   0  0  0  0  0  0  0  0  0  0  0  0
   -1.8728   -5.1817   10.0640 C   0  0  0  0  0  0  0  0  0  0  0  0
   -1.8326   -4.0089   10.9937 C   0  0  0  0  0  0  0  0  0  0  0  0
   -2.9724   -5.4122    9.2463 C   0  0  0  0  0  0  0  0  0  0  0  0
   -3.0001   -6.4802    8.3713 C   0  0  0  0  0  0  0  0  0  0  0  0
    0.0453   -7.6697    6.2069 C   0  0  0  0  0  0  0  0  0  0  0  0
    0.0484   -5.9410    6.3581 S   0  0  0  0  0  0  0  0  0  0  0  0
   -0.9246  -11.1526    6.6519 C   0  0  0  0  0  0  0  0  0  0  0  0
   -0.6476  -12.4576    6.2979 C   0  0  0  0  0  0  0  0  0  0  0  0
    0.2512  -12.8943    5.2290 C   0  0  0  0  0  0  0  0  0  0  0  0
    0.9944  -12.2118    4.5445 O   0  0  0  0  0  0  0  0  0  0  0  0
    0.0694  -14.3556    5.1183 C   0  0  0  0  0  0  0  0  0  0  0  0
    0.6714  -15.2442    4.2500 C   0  0  0  0  0  0  0  0  0  0  0  0
    0.3297  -16.5856    4.3316 C   0  0  0  0  0  0  0  0  0  0  0  0
   -0.6005  -17.0029    5.2750 C   0  0  0  0  0  0  0  0  0  0  0  0
   -1.0158  -18.6739    5.3603 Cl  0  0  0  0  0  0  0  0  0  0  0  0
   -1.2123  -16.1174    6.1582 C   0  0  0  0  0  0  0  0  0  0  0  0
   -0.8700  -14.7795    6.0736 C   0  0  0  0  0  0  0  0  0  0  0  0
   -1.3062  -13.6150    6.8489 C   0  0  0  0  0  0  0  0  0  0  0  0
   -2.1644  -13.6581    7.9220 C   0  0  0  0  0  0  0  0  0  0  0  0
   -2.8348  -14.8195    8.3539 C   0  0  0  0  0  0  0  0  0  0  0  0
   -3.4300  -15.7189    8.7493 N   0  0  0  0  0  0  0  0  0  0  0  0
   -2.4739  -12.5753    8.7663 C   0  0  0  0  0  0  0  0  0  0  0  0
   -2.7525  -11.7585    9.5267 N   0  0  0  0  0  0  0  0  0  0  0  0
   -4.6839    9.6542   -7.2791 H   0  0  0  0  0  0  0  0  0  0  0  0
   -5.9392   14.6194   -9.2426 H   0  0  0  0  0  0  0  0  0  0  0  0
   -4.6402   16.6796   -9.5419 H   0  0  0  0  0  0  0  0  0  0  0  0
   -4.4845    4.7847   -7.7326 H   0  0  0  0  0  0  0  0  0  0  0  0
   -5.2558    2.8326   -6.4573 H   0  0  0  0  0  0  0  0  0  0  0  0
   -5.6864    1.7582   -4.3663 H   0  0  0  0  0  0  0  0  0  0  0  0
   -5.2530    2.5872   -2.8634 H   0  0  0  0  0  0  0  0  0  0  0  0
   -6.8601    2.7935   -3.5512 H   0  0  0  0  0  0  0  0  0  0  0  0
   -5.2969    5.1705   -2.8895 H   0  0  0  0  0  0  0  0  0  0  0  0
   -4.5446    7.1323   -4.1651 H   0  0  0  0  0  0  0  0  0  0  0  0
   -6.5304    6.8758   -7.4854 H   0  0  0  0  0  0  0  0  0  0  0  0
   -7.4533    7.2575   -9.7256 H   0  0  0  0  0  0  0  0  0  0  0  0
   -5.3991    8.3027  -12.6774 H   0  0  0  0  0  0  0  0  0  0  0  0
   -6.8004    9.0473  -11.9025 H   0  0  0  0  0  0  0  0  0  0  0  0
   -6.8119    7.3239  -12.2537 H   0  0  0  0  0  0  0  0  0  0  0  0
   -3.5960    8.4255  -11.1245 H   0  0  0  0  0  0  0  0  0  0  0  0
   -2.6603    8.0209   -8.8947 H   0  0  0  0  0  0  0  0  0  0  0  0
    1.4566    8.7996   -6.3133 H   0  0  0  0  0  0  0  0  0  0  0  0
    2.2291   10.8137   -7.4755 H   0  0  0  0  0  0  0  0  0  0  0  0
    3.7278   13.6855   -5.8754 H   0  0  0  0  0  0  0  0  0  0  0  0
    3.1960   13.0040   -7.4213 H   0  0  0  0  0  0  0  0  0  0  0  0
    2.0789   13.9438   -6.4323 H   0  0  0  0  0  0  0  0  0  0  0  0
    2.5562   12.8509   -3.7436 H   0  0  0  0  0  0  0  0  0  0  0  0
    1.7547   10.8439   -2.5733 H   0  0  0  0  0  0  0  0  0  0  0  0
   -0.3166    7.7095   -1.5840 H   0  0  0  0  0  0  0  0  0  0  0  0
    0.6309    6.8904    0.5183 H   0  0  0  0  0  0  0  0  0  0  0  0
    2.5255    6.6000    1.9936 H   0  0  0  0  0  0  0  0  0  0  0  0
    3.6199    5.6383    0.9947 H   0  0  0  0  0  0  0  0  0  0  0  0
    4.1099    7.2400    1.5320 H   0  0  0  0  0  0  0  0  0  0  0  0
    4.5555    7.7768   -0.8969 H   0  0  0  0  0  0  0  0  0  0  0  0
    3.6068    8.6281   -2.9960 H   0  0  0  0  0  0  0  0  0  0  0  0
    3.9518    6.1567   -4.1284 H   0  0  0  0  0  0  0  0  0  0  0  0
    2.5557    6.9369   -4.8926 H   0  0  0  0  0  0  0  0  0  0  0  0
    3.6995    5.4301   -6.4941 H   0  0  0  0  0  0  0  0  0  0  0  0
    2.0721    4.8334   -6.1467 H   0  0  0  0  0  0  0  0  0  0  0  0
    3.4746    4.0661   -5.3954 H   0  0  0  0  0  0  0  0  0  0  0  0
    5.3869   -4.7396    5.2073 H   0  0  0  0  0  0  0  0  0  0  0  0
    4.2488   -5.9814    5.7619 H   0  0  0  0  0  0  0  0  0  0  0  0
    5.3563   -4.8780    7.6911 H   0  0  0  0  0  0  0  0  0  0  0  0
    3.6217   -4.5367    7.6978 H   0  0  0  0  0  0  0  0  0  0  0  0
    4.7635   -3.3057    7.1480 H   0  0  0  0  0  0  0  0  0  0  0  0
    0.0755    1.6656    1.4424 H   0  0  0  0  0  0  0  0  0  0  0  0
   -0.3319    2.6657    0.0354 H   0  0  0  0  0  0  0  0  0  0  0  0
    1.2882    3.5864    2.4667 H   0  0  0  0  0  0  0  0  0  0  0  0
   -0.4073    3.9827    2.1527 H   0  0  0  0  0  0  0  0  0  0  0  0
    0.8573    4.5885    1.0760 H   0  0  0  0  0  0  0  0  0  0  0  0
   -0.0925    0.0387    2.2026 H   0  0  0  0  0  0  0  0  0  0  0  0
    0.3381   -1.6516    2.3782 H   0  0  0  0  0  0  0  0  0  0  0  0
    1.0764   -1.7817    0.0261 H   0  0  0  0  0  0  0  0  0  0  0  0
   -0.5993   -1.2363    0.1314 H   0  0  0  0  0  0  0  0  0  0  0  0
    0.6876   -0.0824   -0.2296 H   0  0  0  0  0  0  0  0  0  0  0  0
    5.3305   -6.5921    3.1822 H   0  0  0  0  0  0  0  0  0  0  0  0
    5.8825   -4.8269    1.5644 H   0  0  0  0  0  0  0  0  0  0  0  0
    4.6710   -3.6665   -0.7345 H   0  0  0  0  0  0  0  0  0  0  0  0
    4.9185   -2.5679    0.6173 H   0  0  0  0  0  0  0  0  0  0  0  0
    3.3267   -2.6885   -0.1409 H   0  0  0  0  0  0  0  0  0  0  0  0
    1.7280   -4.1720    0.8615 H   0  0  0  0  0  0  0  0  0  0  0  0
    1.1732   -5.9325    2.4714 H   0  0  0  0  0  0  0  0  0  0  0  0
    3.7403   -8.7116    1.8894 H   0  0  0  0  0  0  0  0  0  0  0  0
    4.9501  -10.8467    1.9765 H   0  0  0  0  0  0  0  0  0  0  0  0
    4.9510  -13.0572    4.2829 H   0  0  0  0  0  0  0  0  0  0  0  0
    6.3709  -12.3175    5.0180 H   0  0  0  0  0  0  0  0  0  0  0  0
    6.2519  -12.4536    3.2560 H   0  0  0  0  0  0  0  0  0  0  0  0
    4.8991  -10.7084    6.2385 H   0  0  0  0  0  0  0  0  0  0  0  0
    3.7107   -8.5653    6.1590 H   0  0  0  0  0  0  0  0  0  0  0  0
   -3.6126   -9.0846    9.3526 H   0  0  0  0  0  0  0  0  0  0  0  0
   -5.7025  -10.3432    9.1058 H   0  0  0  0  0  0  0  0  0  0  0  0
   -7.0321  -11.5570    5.8213 H   0  0  0  0  0  0  0  0  0  0  0  0
   -6.6147  -12.4095    7.3105 H   0  0  0  0  0  0  0  0  0  0  0  0
   -7.5795  -10.9409    7.3880 H   0  0  0  0  0  0  0  0  0  0  0  0
   -5.0087  -10.6883    4.9106 H   0  0  0  0  0  0  0  0  0  0  0  0
   -2.9324   -9.4057    5.1442 H   0  0  0  0  0  0  0  0  0  0  0  0
    0.0221   -7.8166    9.0824 H   0  0  0  0  0  0  0  0  0  0  0  0
    0.0631   -5.9024   10.6238 H   0  0  0  0  0  0  0  0  0  0  0  0
   -1.3766   -4.2838   11.9424 H   0  0  0  0  0  0  0  0  0  0  0  0
   -2.8321   -3.6246   11.1803 H   0  0  0  0  0  0  0  0  0  0  0  0
   -1.2358   -3.2084   10.5558 H   0  0  0  0  0  0  0  0  0  0  0  0
   -3.8190   -4.7428    9.2898 H   0  0  0  0  0  0  0  0  0  0  0  0
   -3.8579   -6.6452    7.7364 H   0  0  0  0  0  0  0  0  0  0  0  0
   -1.6966  -11.0283    7.4003 H   0  0  0  0  0  0  0  0  0  0  0  0
    1.3907  -14.8924    3.5267 H   0  0  0  0  0  0  0  0  0  0  0  0
    0.7784  -17.3091    3.6696 H   0  0  0  0  0  0  0  0  0  0  0  0
   -1.9282  -16.4847    6.8747 H   0  0  0  0  0  0  0  0  0  0  0  0
  1  2  2  0  0  0  0
  2  3  1  0  0  0  0
  3  4  2  0  0  0  0
  3  5  1  0  0  0  0
  5  6  2  0  0  0  0
  6  7  1  0  0  0  0
  7  8  2  0  0  0  0
  8  9  1  0  0  0  0
  9 10  1  0  0  0  0
  9 11  2  0  0  0  0
 11 12  1  0  0  0  0
  6 13  1  0  0  0  0
 13 14  2  0  0  0  0
 14 15  1  0  0  0  0
 15 16  3  0  0  0  0
 14 17  1  0  0  0  0
 17 18  3  0  0  0  0
  1 19  1  0  0  0  0
 19 20  2  0  0  0  0
 20 21  1  0  0  0  0
 21 22  1  0  0  0  0
 22 23  2  0  0  0  0
 23 24  1  0  0  0  0
 24 25  2  0  0  0  0
 25 26  1  0  0  0  0
 25 27  1  0  0  0  0
 27 28  2  0  0  0  0
 21 29  1  0  0  0  0
 29 30  2  0  0  0  0
 30 31  1  0  0  0  0
 31 32  2  0  0  0  0
 32 33  1  0  0  0  0
 32 34  1  0  0  0  0
 34 35  2  0  0  0  0
 20 36  1  0  0  0  0
 36 37  1  0  0  0  0
 37 38  1  0  0  0  0
 38 39  2  0  0  0  0
 39 40  1  0  0  0  0
 40 41  1  0  0  0  0
 41 42  2  0  0  0  0
 42 43  1  0  0  0  0
 43 44  2  0  0  0  0
 44 45  1  0  0  0  0
 44 46  1  0  0  0  0
 46 47  2  0  0  0  0
 40 48  1  0  0  0  0
 48 49  2  0  0  0  0
 49 50  1  0  0  0  0
 50 51  2  0  0  0  0
 51 52  1  0  0  0  0
 51 53  1  0  0  0  0
 53 54  2  0  0  0  0
 39 55  1  0  0  0  0
 55 56  1  0  0  0  0
 38 57  1  0  0  0  0
 57 58  2  0  0  0  0
 58 59  1  0  0  0  0
 59 60  1  0  0  0  0
 58 61  1  0  0  0  0
 61 62  1  0  0  0  0
 62 63  1  0  0  0  0
 63 64  1  0  0  0  0
 64 65  1  0  0  0  0
 65 66  1  0  0  0  0
 66 67  2  0  0  0  0
 67 68  1  0  0  0  0
 68 69  1  0  0  0  0
 66 70  1  0  0  0  0
 70 71  1  0  0  0  0
 71 72  1  0  0  0  0
 72 73  1  0  0  0  0
 73 74  1  0  0  0  0
 74 75  1  0  0  0  0
 75 76  1  0  0  0  0
 74 77  2  0  0  0  0
 77 78  1  0  0  0  0
 78 79  1  0  0  0  0
 79 80  1  0  0  0  0
 80 81  1  0  0  0  0
 81 82  1  0  0  0  0
 82 83  1  0  0  0  0
 83 84  1  0  0  0  0
 84 85  1  0  0  0  0
 85 86  1  0  0  0  0
 86 87  1  0  0  0  0
 84 88  1  0  0  0  0
 88 89  1  0  0  0  0
 81 90  1  0  0  0  0
 90 91  1  0  0  0  0
 77 92  1  0  0  0  0
 92 93  2  0  0  0  0
 93 94  1  0  0  0  0
 94 95  1  0  0  0  0
 95 96  2  0  0  0  0
 96 97  1  0  0  0  0
 97 98  2  0  0  0  0
 98 99  1  0  0  0  0
 98100  1  0  0  0  0
100101  2  0  0  0  0
 94102  1  0  0  0  0
102103  2  0  0  0  0
103104  1  0  0  0  0
104105  2  0  0  0  0
105106  1  0  0  0  0
105107  1  0  0  0  0
107108  2  0  0  0  0
 93109  1  0  0  0  0
109110  1  0  0  0  0
110111  1  0  0  0  0
111112  2  0  0  0  0
112113  1  0  0  0  0
113114  1  0  0  0  0
114115  2  0  0  0  0
115116  1  0  0  0  0
116117  2  0  0  0  0
117118  1  0  0  0  0
117119  1  0  0  0  0
119120  2  0  0  0  0
113121  1  0  0  0  0
121122  2  0  0  0  0
122123  1  0  0  0  0
123124  2  0  0  0  0
124125  1  0  0  0  0
124126  1  0  0  0  0
126127  2  0  0  0  0
112128  1  0  0  0  0
128129  1  0  0  0  0
111130  1  0  0  0  0
130131  2  0  0  0  0
131132  1  0  0  0  0
132133  2  0  0  0  0
132134  1  0  0  0  0
134135  2  0  0  0  0
135136  1  0  0  0  0
136137  2  0  0  0  0
137138  1  0  0  0  0
137139  1  0  0  0  0
139140  2  0  0  0  0
140141  1  0  0  0  0
141142  2  0  0  0  0
142143  1  0  0  0  0
143144  3  0  0  0  0
142145  1  0  0  0  0
145146  3  0  0  0  0
 13  2  1  0  0  0  0
 56 19  1  0  0  0  0
 87 57  1  0  0  0  0
129 92  1  0  0  0  0
141131  1  0  0  0  0
 11  5  1  0  0  0  0
 28 22  1  0  0  0  0
 35 29  1  0  0  0  0
 55 36  2  0  0  0  0
 86 61  2  0  0  0  0
101 95  1  0  0  0  0
108102  1  0  0  0  0
128109  2  0  0  0  0
140134  1  0  0  0  0
 47 41  1  0  0  0  0
 54 48  1  0  0  0  0
 85 63  2  0  0  0  0
120114  1  0  0  0  0
127121  1  0  0  0  0
 83 64  2  0  0  0  0
 69 65  2  0  0  0  0
 82 70  2  0  0  0  0
 80 71  2  0  0  0  0
 79 73  2  0  0  0  0
  1147  1  0  0  0  0
  7148  1  0  0  0  0
  8149  1  0  0  0  0
 23150  1  0  0  0  0
 24151  1  0  0  0  0
 26152  1  0  0  0  0
 26153  1  0  0  0  0
 26154  1  0  0  0  0
 27155  1  0  0  0  0
 28156  1  0  0  0  0
 30157  1  0  0  0  0
 31158  1  0  0  0  0
 33159  1  0  0  0  0
 33160  1  0  0  0  0
 33161  1  0  0  0  0
 34162  1  0  0  0  0
 35163  1  0  0  0  0
 42164  1  0  0  0  0
 43165  1  0  0  0  0
 45166  1  0  0  0  0
 45167  1  0  0  0  0
 45168  1  0  0  0  0
 46169  1  0  0  0  0
 47170  1  0  0  0  0
 49171  1  0  0  0  0
 50172  1  0  0  0  0
 52173  1  0  0  0  0
 52174  1  0  0  0  0
 52175  1  0  0  0  0
 53176  1  0  0  0  0
 54177  1  0  0  0  0
 59178  1  0  0  0  0
 59179  1  0  0  0  0
 60180  1  0  0  0  0
 60181  1  0  0  0  0
 60182  1  0  0  0  0
 75183  1  0  0  0  0
 75184  1  0  0  0  0
 76185  1  0  0  0  0
 76186  1  0  0  0  0
 76187  1  0  0  0  0
 88188  1  0  0  0  0
 88189  1  0  0  0  0
 89190  1  0  0  0  0
 89191  1  0  0  0  0
 89192  1  0  0  0  0
 90193  1  0  0  0  0
 90194  1  0  0  0  0
 91195  1  0  0  0  0
 91196  1  0  0  0  0
 91197  1  0  0  0  0
 96198  1  0  0  0  0
 97199  1  0  0  0  0
 99200  1  0  0  0  0
 99201  1  0  0  0  0
 99202  1  0  0  0  0
100203  1  0  0  0  0
101204  1  0  0  0  0
103205  1  0  0  0  0
104206  1  0  0  0  0
106207  1  0  0  0  0
106208  1  0  0  0  0
106209  1  0  0  0  0
107210  1  0  0  0  0
108211  1  0  0  0  0
115212  1  0  0  0  0
116213  1  0  0  0  0
118214  1  0  0  0  0
118215  1  0  0  0  0
118216  1  0  0  0  0
119217  1  0  0  0  0
120218  1  0  0  0  0
122219  1  0  0  0  0
123220  1  0  0  0  0
125221  1  0  0  0  0
125222  1  0  0  0  0
125223  1  0  0  0  0
126224  1  0  0  0  0
127225  1  0  0  0  0
130226  1  0  0  0  0
135227  1  0  0  0  0
136228  1  0  0  0  0
139229  1  0  0  0  0
M  END
