
  xtb     02082214203D
 energy: -408.679052329810 gnorm: 0.000309923609 xtb: 6.4.1 (unknown)
246271  0     0  0            999 V2000
  -11.0533    5.1863    5.0437 C   0  0  0  0  0  0  0  0  0  0  0  0
  -11.5562    6.4355    5.3577 C   0  0  0  0  0  0  0  0  0  0  0  0
  -10.8760    7.7121    5.1607 C   0  0  0  0  0  0  0  0  0  0  0  0
   -9.7412    7.9082    4.7651 O   0  0  0  0  0  0  0  0  0  0  0  0
  -11.8647    8.7560    5.5144 C   0  0  0  0  0  0  0  0  0  0  0  0
  -13.0720    8.1416    5.8926 C   0  0  0  0  0  0  0  0  0  0  0  0
  -14.1582    8.9201    6.2553 C   0  0  0  0  0  0  0  0  0  0  0  0
  -14.0222   10.3015    6.2359 C   0  0  0  0  0  0  0  0  0  0  0  0
  -12.8274   10.9005    5.8706 C   0  0  0  0  0  0  0  0  0  0  0  0
  -12.7028   12.7870    5.8750 Br  0  0  0  0  0  0  0  0  0  0  0  0
  -11.7181   10.1319    5.5017 C   0  0  0  0  0  0  0  0  0  0  0  0
  -10.2348   10.8632    5.0566 Cl  0  0  0  0  0  0  0  0  0  0  0  0
  -12.8890    6.6897    5.8384 C   0  0  0  0  0  0  0  0  0  0  0  0
  -13.8309    5.7651    6.2274 C   0  0  0  0  0  0  0  0  0  0  0  0
  -13.6138    4.3799    6.3481 C   0  0  0  0  0  0  0  0  0  0  0  0
  -13.5100    3.2473    6.5199 N   0  0  0  0  0  0  0  0  0  0  0  0
  -15.1475    6.0890    6.6079 C   0  0  0  0  0  0  0  0  0  0  0  0
  -16.2403    6.2800    6.9068 N   0  0  0  0  0  0  0  0  0  0  0  0
   -9.7952    4.8047    4.5973 C   0  0  0  0  0  0  0  0  0  0  0  0
   -9.4375    3.4498    4.3453 C   0  0  0  0  0  0  0  0  0  0  0  0
  -10.2901    2.3815    4.3366 N   0  0  0  0  0  0  0  0  0  0  0  0
  -11.5933    2.4467    3.8129 C   0  0  0  0  0  0  0  0  0  0  0  0
  -11.8784    3.2618    2.7197 C   0  0  0  0  0  0  0  0  0  0  0  0
  -13.1624    3.3176    2.2162 C   0  0  0  0  0  0  0  0  0  0  0  0
  -14.1851    2.5553    2.7694 C   0  0  0  0  0  0  0  0  0  0  0  0
  -15.5836    2.6290    2.2399 C   0  0  0  0  0  0  0  0  0  0  0  0
  -13.8830    1.7238    3.8414 C   0  0  0  0  0  0  0  0  0  0  0  0
  -12.6076    1.6692    4.3668 C   0  0  0  0  0  0  0  0  0  0  0  0
   -9.7961    1.1371    4.7808 C   0  0  0  0  0  0  0  0  0  0  0  0
  -10.0512   -0.0283    4.0678 C   0  0  0  0  0  0  0  0  0  0  0  0
   -9.5546   -1.2360    4.5197 C   0  0  0  0  0  0  0  0  0  0  0  0
   -8.7941   -1.3113    5.6793 C   0  0  0  0  0  0  0  0  0  0  0  0
   -8.2489   -2.6157    6.1714 C   0  0  0  0  0  0  0  0  0  0  0  0
   -8.5486   -0.1390    6.3877 C   0  0  0  0  0  0  0  0  0  0  0  0
   -9.0444    1.0717    5.9522 C   0  0  0  0  0  0  0  0  0  0  0  0
   -8.0532    3.3314    4.1408 C   0  0  0  0  0  0  0  0  0  0  0  0
   -6.9960    2.0007    3.7883 S   0  0  0  0  0  0  0  0  0  0  0  0
   -5.6204    3.0914    3.7734 C   0  0  0  0  0  0  0  0  0  0  0  0
   -5.9812    4.4150    3.9357 C   0  0  0  0  0  0  0  0  0  0  0  0
   -5.1098    5.4851    3.8512 N   0  0  0  0  0  0  0  0  0  0  0  0
   -4.0980    5.5060    2.8849 C   0  0  0  0  0  0  0  0  0  0  0  0
   -2.9057    6.1863    3.1296 C   0  0  0  0  0  0  0  0  0  0  0  0
   -1.8892    6.1699    2.1978 C   0  0  0  0  0  0  0  0  0  0  0  0
   -2.0266    5.4923    0.9907 C   0  0  0  0  0  0  0  0  0  0  0  0
   -0.8984    5.4615    0.0046 C   0  0  0  0  0  0  0  0  0  0  0  0
   -3.2322    4.8561    0.7333 C   0  0  0  0  0  0  0  0  0  0  0  0
   -4.2565    4.8610    1.6610 C   0  0  0  0  0  0  0  0  0  0  0  0
   -5.3729    6.6102    4.6527 C   0  0  0  0  0  0  0  0  0  0  0  0
   -5.7565    6.4369    5.9794 C   0  0  0  0  0  0  0  0  0  0  0  0
   -6.0738    7.5328    6.7573 C   0  0  0  0  0  0  0  0  0  0  0  0
   -6.0127    8.8203    6.2405 C   0  0  0  0  0  0  0  0  0  0  0  0
   -6.4095   10.0032    7.0684 C   0  0  0  0  0  0  0  0  0  0  0  0
   -5.6064    8.9836    4.9211 C   0  0  0  0  0  0  0  0  0  0  0  0
   -5.2915    7.8973    4.1305 C   0  0  0  0  0  0  0  0  0  0  0  0
   -7.3725    4.5412    4.1709 C   0  0  0  0  0  0  0  0  0  0  0  0
   -8.4060    5.8905    4.4517 S   0  0  0  0  0  0  0  0  0  0  0  0
   -4.2691    2.5935    3.7338 C   0  0  0  0  0  0  0  0  0  0  0  0
   -3.3783    2.6717    4.7797 C   0  0  0  0  0  0  0  0  0  0  0  0
   -3.7897    3.1272    6.1174 C   0  0  0  0  0  0  0  0  0  0  0  0
   -4.9003    2.5046    6.6852 C   0  0  0  0  0  0  0  0  0  0  0  0
   -5.3597    2.8697    7.9346 C   0  0  0  0  0  0  0  0  0  0  0  0
   -4.6973    3.8603    8.6386 C   0  0  0  0  0  0  0  0  0  0  0  0
   -3.5900    4.4749    8.0846 C   0  0  0  0  0  0  0  0  0  0  0  0
   -3.1208    4.1333    6.8215 C   0  0  0  0  0  0  0  0  0  0  0  0
   -1.9301    4.8347    6.2287 C   0  0  0  0  0  0  0  0  0  0  0  0
   -1.8253    6.3093    6.6135 C   0  0  0  0  0  0  0  0  0  0  0  0
   -2.1223    2.1362    4.4184 C   0  0  0  0  0  0  0  0  0  0  0  0
   -0.6429    1.8575    5.3053 S   0  0  0  0  0  0  0  0  0  0  0  0
    0.0467    1.1379    3.8892 C   0  0  0  0  0  0  0  0  0  0  0  0
    1.2267    0.4919    3.4860 C   0  0  0  0  0  0  0  0  0  0  0  0
    2.3528    0.0919    4.2362 C   0  0  0  0  0  0  0  0  0  0  0  0
    3.3517   -0.7183    3.6028 C   0  0  0  0  0  0  0  0  0  0  0  0
    4.3170   -1.0762    4.4350 N   0  0  0  0  0  0  0  0  0  0  0  0
    3.9984   -0.4413    5.8907 S   0  0  0  0  0  0  0  0  0  0  0  0
    2.6142    0.3122    5.5152 N   0  0  0  0  0  0  0  0  0  0  0  0
    3.2365   -0.9833    2.2217 C   0  0  0  0  0  0  0  0  0  0  0  0
    4.1242   -1.6182    1.3381 C   0  0  0  0  0  0  0  0  0  0  0  0
    5.6275   -2.4758    1.3779 S   0  0  0  0  0  0  0  0  0  0  0  0
    5.5620   -2.6202   -0.3608 C   0  0  0  0  0  0  0  0  0  0  0  0
    6.4265   -3.2290   -1.2976 C   0  0  0  0  0  0  0  0  0  0  0  0
    7.6651   -3.9152   -0.9044 C   0  0  0  0  0  0  0  0  0  0  0  0
    8.9169   -3.6398   -1.4642 C   0  0  0  0  0  0  0  0  0  0  0  0
    9.1477   -2.5425   -2.4689 C   0  0  0  0  0  0  0  0  0  0  0  0
    9.8187   -3.0374   -3.7496 C   0  0  0  0  0  0  0  0  0  0  0  0
   10.0165   -4.3601   -1.0084 C   0  0  0  0  0  0  0  0  0  0  0  0
    9.9001   -5.3302   -0.0326 C   0  0  0  0  0  0  0  0  0  0  0  0
    8.6683   -5.5625    0.5536 C   0  0  0  0  0  0  0  0  0  0  0  0
    7.5691   -4.8449    0.1304 C   0  0  0  0  0  0  0  0  0  0  0  0
    5.9367   -3.0962   -2.5781 C   0  0  0  0  0  0  0  0  0  0  0  0
    4.4531   -2.1529   -2.6445 S   0  0  0  0  0  0  0  0  0  0  0  0
    4.4384   -2.0177   -0.9236 C   0  0  0  0  0  0  0  0  0  0  0  0
    3.6011   -1.4624    0.0551 C   0  0  0  0  0  0  0  0  0  0  0  0
    2.4124   -0.7874    0.1158 N   0  0  0  0  0  0  0  0  0  0  0  0
    2.1478   -0.4959    1.4430 C   0  0  0  0  0  0  0  0  0  0  0  0
    1.0692    0.1512    2.1114 C   0  0  0  0  0  0  0  0  0  0  0  0
   -0.2001    0.5415    1.7217 N   0  0  0  0  0  0  0  0  0  0  0  0
   -0.8134    1.1302    2.7931 C   0  0  0  0  0  0  0  0  0  0  0  0
   -2.0686    1.6741    3.1037 C   0  0  0  0  0  0  0  0  0  0  0  0
   -3.5864    1.8537    2.3011 S   0  0  0  0  0  0  0  0  0  0  0  0
   -0.9720    0.3024    0.5261 C   0  0  0  0  0  0  0  0  0  0  0  0
   -1.1490    1.5779   -0.2981 C   0  0  0  0  0  0  0  0  0  0  0  0
    1.7840   -0.3600   -1.1109 C   0  0  0  0  0  0  0  0  0  0  0  0
    1.0519   -1.5086   -1.8055 C   0  0  0  0  0  0  0  0  0  0  0  0
    6.4071   -3.7424   -3.7690 C   0  0  0  0  0  0  0  0  0  0  0  0
    6.6368   -5.1000   -3.9197 C   0  0  0  0  0  0  0  0  0  0  0  0
    6.3458   -6.0686   -2.9751 N   0  0  0  0  0  0  0  0  0  0  0  0
    7.1726   -7.2030   -2.9140 C   0  0  0  0  0  0  0  0  0  0  0  0
    6.6276   -8.4776   -2.7942 C   0  0  0  0  0  0  0  0  0  0  0  0
    7.4537   -9.5825   -2.7773 C   0  0  0  0  0  0  0  0  0  0  0  0
    8.8330   -9.4511   -2.8846 C   0  0  0  0  0  0  0  0  0  0  0  0
    9.7169  -10.6597   -2.9185 C   0  0  0  0  0  0  0  0  0  0  0  0
    9.3679   -8.1740   -2.9920 C   0  0  0  0  0  0  0  0  0  0  0  0
    8.5535   -7.0598   -3.0039 C   0  0  0  0  0  0  0  0  0  0  0  0
    5.1905   -5.9720   -2.1930 C   0  0  0  0  0  0  0  0  0  0  0  0
    5.1619   -6.4985   -0.9030 C   0  0  0  0  0  0  0  0  0  0  0  0
    4.0638   -6.2955   -0.0915 C   0  0  0  0  0  0  0  0  0  0  0  0
    2.9564   -5.5852   -0.5398 C   0  0  0  0  0  0  0  0  0  0  0  0
    1.8107   -5.2820    0.3767 C   0  0  0  0  0  0  0  0  0  0  0  0
    2.9537   -5.1466   -1.8569 C   0  0  0  0  0  0  0  0  0  0  0  0
    4.0475   -5.3383   -2.6769 C   0  0  0  0  0  0  0  0  0  0  0  0
    7.1275   -5.3927   -5.2165 C   0  0  0  0  0  0  0  0  0  0  0  0
    7.5608   -6.8623   -6.0102 S   0  0  0  0  0  0  0  0  0  0  0  0
    7.8681   -5.9695   -7.5036 C   0  0  0  0  0  0  0  0  0  0  0  0
    7.5585   -4.5924   -7.3742 C   0  0  0  0  0  0  0  0  0  0  0  0
    7.5858   -3.6703   -8.3870 N   0  0  0  0  0  0  0  0  0  0  0  0
    7.1725   -3.9691   -9.6978 C   0  0  0  0  0  0  0  0  0  0  0  0
    6.1441   -4.8786   -9.9326 C   0  0  0  0  0  0  0  0  0  0  0  0
    5.7577   -5.1657  -11.2264 C   0  0  0  0  0  0  0  0  0  0  0  0
    6.3650   -4.5460  -12.3124 C   0  0  0  0  0  0  0  0  0  0  0  0
    5.9660   -4.8739  -13.7180 C   0  0  0  0  0  0  0  0  0  0  0  0
    7.3685   -3.6167  -12.0653 C   0  0  0  0  0  0  0  0  0  0  0  0
    7.7767   -3.3307  -10.7781 C   0  0  0  0  0  0  0  0  0  0  0  0
    7.9170   -2.3376   -8.0706 C   0  0  0  0  0  0  0  0  0  0  0  0
    9.0357   -2.0729   -7.2859 C   0  0  0  0  0  0  0  0  0  0  0  0
    9.3690   -0.7699   -6.9771 C   0  0  0  0  0  0  0  0  0  0  0  0
    8.6049    0.2952   -7.4406 C   0  0  0  0  0  0  0  0  0  0  0  0
    8.9681    1.7025   -7.0804 C   0  0  0  0  0  0  0  0  0  0  0  0
    7.4948    0.0191   -8.2294 C   0  0  0  0  0  0  0  0  0  0  0  0
    7.1489   -1.2800   -8.5450 C   0  0  0  0  0  0  0  0  0  0  0  0
    7.1860   -4.2859   -6.0543 C   0  0  0  0  0  0  0  0  0  0  0  0
    6.6655   -2.8372   -5.2529 S   0  0  0  0  0  0  0  0  0  0  0  0
    8.4450   -6.5131   -8.6508 C   0  0  0  0  0  0  0  0  0  0  0  0
    8.7629   -7.8132   -8.9638 C   0  0  0  0  0  0  0  0  0  0  0  0
    8.4727   -9.0153   -8.1612 C   0  0  0  0  0  0  0  0  0  0  0  0
    8.0018   -9.0667   -7.0397 O   0  0  0  0  0  0  0  0  0  0  0  0
    8.8635  -10.1533   -9.0083 C   0  0  0  0  0  0  0  0  0  0  0  0
    8.8720  -11.5565   -8.9426 C   0  0  0  0  0  0  0  0  0  0  0  0
    9.3758  -12.0953  -10.0895 C   0  0  0  0  0  0  0  0  0  0  0  0
    9.8486  -10.9191  -11.2640 S   0  0  0  0  0  0  0  0  0  0  0  0
    9.3614   -9.6638  -10.2050 C   0  0  0  0  0  0  0  0  0  0  0  0
    9.3509   -8.2236  -10.2221 C   0  0  0  0  0  0  0  0  0  0  0  0
    9.8353   -7.4534  -11.2539 C   0  0  0  0  0  0  0  0  0  0  0  0
    9.9446   -6.0535  -11.2582 C   0  0  0  0  0  0  0  0  0  0  0  0
   10.0965   -4.9151  -11.3184 N   0  0  0  0  0  0  0  0  0  0  0  0
   10.3210   -8.0548  -12.4315 C   0  0  0  0  0  0  0  0  0  0  0  0
   10.7087   -8.5347  -13.4000 N   0  0  0  0  0  0  0  0  0  0  0  0
  -11.7454    4.3635    5.1697 H   0  0  0  0  0  0  0  0  0  0  0  0
  -15.0988    8.4843    6.5476 H   0  0  0  0  0  0  0  0  0  0  0  0
  -14.8578   10.9258    6.5125 H   0  0  0  0  0  0  0  0  0  0  0  0
  -11.0924    3.8525    2.2723 H   0  0  0  0  0  0  0  0  0  0  0  0
  -13.3701    3.9589    1.3717 H   0  0  0  0  0  0  0  0  0  0  0  0
  -15.9813    1.6306    2.0676 H   0  0  0  0  0  0  0  0  0  0  0  0
  -16.2308    3.1223    2.9652 H   0  0  0  0  0  0  0  0  0  0  0  0
  -15.6211    3.1884    1.3087 H   0  0  0  0  0  0  0  0  0  0  0  0
  -14.6624    1.1240    4.2859 H   0  0  0  0  0  0  0  0  0  0  0  0
  -12.3948    1.0354    5.2128 H   0  0  0  0  0  0  0  0  0  0  0  0
  -10.6325    0.0184    3.1590 H   0  0  0  0  0  0  0  0  0  0  0  0
   -9.7568   -2.1339    3.9544 H   0  0  0  0  0  0  0  0  0  0  0  0
   -8.6463   -2.8428    7.1600 H   0  0  0  0  0  0  0  0  0  0  0  0
   -8.5099   -3.4275    5.4978 H   0  0  0  0  0  0  0  0  0  0  0  0
   -7.1641   -2.5656    6.2544 H   0  0  0  0  0  0  0  0  0  0  0  0
   -7.9656   -0.1803    7.2963 H   0  0  0  0  0  0  0  0  0  0  0  0
   -8.8577    1.9746    6.5156 H   0  0  0  0  0  0  0  0  0  0  0  0
   -2.7870    6.7307    4.0524 H   0  0  0  0  0  0  0  0  0  0  0  0
   -0.9660    6.6891    2.4123 H   0  0  0  0  0  0  0  0  0  0  0  0
   -0.0507    4.9148    0.4183 H   0  0  0  0  0  0  0  0  0  0  0  0
   -1.2033    4.9805   -0.9216 H   0  0  0  0  0  0  0  0  0  0  0  0
   -0.5612    6.4720   -0.2214 H   0  0  0  0  0  0  0  0  0  0  0  0
   -3.3806    4.3470   -0.2087 H   0  0  0  0  0  0  0  0  0  0  0  0
   -5.1880    4.3641    1.4319 H   0  0  0  0  0  0  0  0  0  0  0  0
   -5.8061    5.4407    6.3942 H   0  0  0  0  0  0  0  0  0  0  0  0
   -6.3765    7.3814    7.7834 H   0  0  0  0  0  0  0  0  0  0  0  0
   -6.2907    9.7963    8.1294 H   0  0  0  0  0  0  0  0  0  0  0  0
   -7.4582   10.2404    6.8860 H   0  0  0  0  0  0  0  0  0  0  0  0
   -5.8182   10.8785    6.8084 H   0  0  0  0  0  0  0  0  0  0  0  0
   -5.5530    9.9772    4.5003 H   0  0  0  0  0  0  0  0  0  0  0  0
   -4.9967    8.0382    3.1009 H   0  0  0  0  0  0  0  0  0  0  0  0
   -5.3963    1.7130    6.1423 H   0  0  0  0  0  0  0  0  0  0  0  0
   -6.2245    2.3801    8.3578 H   0  0  0  0  0  0  0  0  0  0  0  0
   -5.0419    4.1536    9.6193 H   0  0  0  0  0  0  0  0  0  0  0  0
   -3.0835    5.2418    8.6485 H   0  0  0  0  0  0  0  0  0  0  0  0
   -1.9779    4.7505    5.1408 H   0  0  0  0  0  0  0  0  0  0  0  0
   -1.0215    4.3175    6.5528 H   0  0  0  0  0  0  0  0  0  0  0  0
   -1.0758    6.7980    5.9945 H   0  0  0  0  0  0  0  0  0  0  0  0
   -1.5238    6.4293    7.6508 H   0  0  0  0  0  0  0  0  0  0  0  0
   -2.7804    6.8132    6.4726 H   0  0  0  0  0  0  0  0  0  0  0  0
    9.7942   -1.7902   -2.0056 H   0  0  0  0  0  0  0  0  0  0  0  0
    8.2074   -2.0522   -2.7193 H   0  0  0  0  0  0  0  0  0  0  0  0
    9.8662   -2.2297   -4.4751 H   0  0  0  0  0  0  0  0  0  0  0  0
    9.2571   -3.8598   -4.1861 H   0  0  0  0  0  0  0  0  0  0  0  0
   10.8303   -3.3849   -3.5549 H   0  0  0  0  0  0  0  0  0  0  0  0
   10.9906   -4.1436   -1.4223 H   0  0  0  0  0  0  0  0  0  0  0  0
   10.7705   -5.8835    0.2871 H   0  0  0  0  0  0  0  0  0  0  0  0
    8.5663   -6.2912    1.3436 H   0  0  0  0  0  0  0  0  0  0  0  0
    6.6100   -5.0044    0.5972 H   0  0  0  0  0  0  0  0  0  0  0  0
   -1.9627   -0.0445    0.8415 H   0  0  0  0  0  0  0  0  0  0  0  0
   -0.5122   -0.4930   -0.0526 H   0  0  0  0  0  0  0  0  0  0  0  0
   -1.6851    1.3508   -1.2155 H   0  0  0  0  0  0  0  0  0  0  0  0
   -0.1910    2.0270   -0.5519 H   0  0  0  0  0  0  0  0  0  0  0  0
   -1.7216    2.3087    0.2666 H   0  0  0  0  0  0  0  0  0  0  0  0
    2.5763   -0.0023   -1.7782 H   0  0  0  0  0  0  0  0  0  0  0  0
    1.1229    0.4771   -0.9051 H   0  0  0  0  0  0  0  0  0  0  0  0
    0.4939   -1.1302   -2.6576 H   0  0  0  0  0  0  0  0  0  0  0  0
    1.7707   -2.2412   -2.1611 H   0  0  0  0  0  0  0  0  0  0  0  0
    0.3659   -2.0132   -1.1280 H   0  0  0  0  0  0  0  0  0  0  0  0
    5.5559   -8.5952   -2.7283 H   0  0  0  0  0  0  0  0  0  0  0  0
    7.0178  -10.5677   -2.6947 H   0  0  0  0  0  0  0  0  0  0  0  0
   10.7062  -10.4308   -2.5288 H   0  0  0  0  0  0  0  0  0  0  0  0
    9.8297  -11.0003   -3.9484 H   0  0  0  0  0  0  0  0  0  0  0  0
    9.2871  -11.4741   -2.3396 H   0  0  0  0  0  0  0  0  0  0  0  0
   10.4383   -8.0478   -3.0674 H   0  0  0  0  0  0  0  0  0  0  0  0
    8.9825   -6.0716   -3.0761 H   0  0  0  0  0  0  0  0  0  0  0  0
    6.0155   -7.0499   -0.5393 H   0  0  0  0  0  0  0  0  0  0  0  0
    4.0737   -6.6822    0.9176 H   0  0  0  0  0  0  0  0  0  0  0  0
    0.8918   -5.1295   -0.1855 H   0  0  0  0  0  0  0  0  0  0  0  0
    2.0202   -4.3708    0.9404 H   0  0  0  0  0  0  0  0  0  0  0  0
    1.6586   -6.0880    1.0908 H   0  0  0  0  0  0  0  0  0  0  0  0
    2.0816   -4.6438   -2.2509 H   0  0  0  0  0  0  0  0  0  0  0  0
    4.0190   -4.9906   -3.6994 H   0  0  0  0  0  0  0  0  0  0  0  0
    5.6550   -5.3625   -9.0999 H   0  0  0  0  0  0  0  0  0  0  0  0
    4.9632   -5.8789  -11.3932 H   0  0  0  0  0  0  0  0  0  0  0  0
    5.8023   -3.9641  -14.2928 H   0  0  0  0  0  0  0  0  0  0  0  0
    6.7600   -5.4371  -14.2088 H   0  0  0  0  0  0  0  0  0  0  0  0
    5.0580   -5.4713  -13.7382 H   0  0  0  0  0  0  0  0  0  0  0  0
    7.8534   -3.1236  -12.8941 H   0  0  0  0  0  0  0  0  0  0  0  0
    8.5726   -2.6239  -10.6047 H   0  0  0  0  0  0  0  0  0  0  0  0
    9.6435   -2.8943   -6.9355 H   0  0  0  0  0  0  0  0  0  0  0  0
   10.2454   -0.5714   -6.3768 H   0  0  0  0  0  0  0  0  0  0  0  0
    8.4959    2.4120   -7.7549 H   0  0  0  0  0  0  0  0  0  0  0  0
    8.6362    1.9239   -6.0655 H   0  0  0  0  0  0  0  0  0  0  0  0
   10.0462    1.8442   -7.1167 H   0  0  0  0  0  0  0  0  0  0  0  0
    6.8886    0.8326   -8.6003 H   0  0  0  0  0  0  0  0  0  0  0  0
    6.2827   -1.4830   -9.1571 H   0  0  0  0  0  0  0  0  0  0  0  0
    8.6745   -5.7814   -9.4159 H   0  0  0  0  0  0  0  0  0  0  0  0
    8.5280  -12.1304   -8.1021 H   0  0  0  0  0  0  0  0  0  0  0  0
    9.5035  -13.1338  -10.3250 H   0  0  0  0  0  0  0  0  0  0  0  0
  1  2  2  0  0  0  0
  2  3  1  0  0  0  0
  3  4  2  0  0  0  0
  3  5  1  0  0  0  0
  5  6  2  0  0  0  0
  6  7  1  0  0  0  0
  7  8  2  0  0  0  0
  8  9  1  0  0  0  0
  9 10  1  0  0  0  0
  9 11  2  0  0  0  0
 11 12  1  0  0  0  0
  6 13  1  0  0  0  0
 13 14  2  0  0  0  0
 14 15  1  0  0  0  0
 15 16  3  0  0  0  0
 14 17  1  0  0  0  0
 17 18  3  0  0  0  0
  1 19  1  0  0  0  0
 19 20  2  0  0  0  0
 20 21  1  0  0  0  0
 21 22  1  0  0  0  0
 22 23  2  0  0  0  0
 23 24  1  0  0  0  0
 24 25  2  0  0  0  0
 25 26  1  0  0  0  0
 25 27  1  0  0  0  0
 27 28  2  0  0  0  0
 21 29  1  0  0  0  0
 29 30  2  0  0  0  0
 30 31  1  0  0  0  0
 31 32  2  0  0  0  0
 32 33  1  0  0  0  0
 32 34  1  0  0  0  0
 34 35  2  0  0  0  0
 20 36  1  0  0  0  0
 36 37  1  0  0  0  0
 37 38  1  0  0  0  0
 38 39  2  0  0  0  0
 39 40  1  0  0  0  0
 40 41  1  0  0  0  0
 41 42  2  0  0  0  0
 42 43  1  0  0  0  0
 43 44  2  0  0  0  0
 44 45  1  0  0  0  0
 44 46  1  0  0  0  0
 46 47  2  0  0  0  0
 40 48  1  0  0  0  0
 48 49  2  0  0  0  0
 49 50  1  0  0  0  0
 50 51  2  0  0  0  0
 51 52  1  0  0  0  0
 51 53  1  0  0  0  0
 53 54  2  0  0  0  0
 39 55  1  0  0  0  0
 55 56  1  0  0  0  0
 38 57  1  0  0  0  0
 57 58  2  0  0  0  0
 58 59  1  0  0  0  0
 59 60  2  0  0  0  0
 60 61  1  0  0  0  0
 61 62  2  0  0  0  0
 62 63  1  0  0  0  0
 63 64  2  0  0  0  0
 64 65  1  0  0  0  0
 65 66  1  0  0  0  0
 58 67  1  0  0  0  0
 67 68  1  0  0  0  0
 68 69  1  0  0  0  0
 69 70  1  0  0  0  0
 70 71  1  0  0  0  0
 71 72  1  0  0  0  0
 72 73  2  0  0  0  0
 73 74  1  0  0  0  0
 74 75  1  0  0  0  0
 72 76  1  0  0  0  0
 76 77  1  0  0  0  0
 77 78  1  0  0  0  0
 78 79  1  0  0  0  0
 79 80  1  0  0  0  0
 80 81  1  0  0  0  0
 81 82  2  0  0  0  0
 82 83  1  0  0  0  0
 83 84  1  0  0  0  0
 82 85  1  0  0  0  0
 85 86  2  0  0  0  0
 86 87  1  0  0  0  0
 87 88  2  0  0  0  0
 80 89  2  0  0  0  0
 89 90  1  0  0  0  0
 90 91  1  0  0  0  0
 91 92  1  0  0  0  0
 92 93  1  0  0  0  0
 93 94  1  0  0  0  0
 94 95  1  0  0  0  0
 95 96  1  0  0  0  0
 96 97  1  0  0  0  0
 97 98  1  0  0  0  0
 98 99  1  0  0  0  0
 96100  1  0  0  0  0
100101  1  0  0  0  0
 93102  1  0  0  0  0
102103  1  0  0  0  0
 89104  1  0  0  0  0
104105  2  0  0  0  0
105106  1  0  0  0  0
106107  1  0  0  0  0
107108  2  0  0  0  0
108109  1  0  0  0  0
109110  2  0  0  0  0
110111  1  0  0  0  0
110112  1  0  0  0  0
112113  2  0  0  0  0
106114  1  0  0  0  0
114115  2  0  0  0  0
115116  1  0  0  0  0
116117  2  0  0  0  0
117118  1  0  0  0  0
117119  1  0  0  0  0
119120  2  0  0  0  0
105121  1  0  0  0  0
121122  1  0  0  0  0
122123  1  0  0  0  0
123124  2  0  0  0  0
124125  1  0  0  0  0
125126  1  0  0  0  0
126127  2  0  0  0  0
127128  1  0  0  0  0
128129  2  0  0  0  0
129130  1  0  0  0  0
129131  1  0  0  0  0
131132  2  0  0  0  0
125133  1  0  0  0  0
133134  2  0  0  0  0
134135  1  0  0  0  0
135136  2  0  0  0  0
136137  1  0  0  0  0
136138  1  0  0  0  0
138139  2  0  0  0  0
124140  1  0  0  0  0
140141  1  0  0  0  0
123142  1  0  0  0  0
142143  2  0  0  0  0
143144  1  0  0  0  0
144145  2  0  0  0  0
144146  1  0  0  0  0
146147  1  0  0  0  0
147148  2  0  0  0  0
148149  1  0  0  0  0
149150  1  0  0  0  0
150151  1  0  0  0  0
151152  2  0  0  0  0
152153  1  0  0  0  0
153154  3  0  0  0  0
152155  1  0  0  0  0
155156  3  0  0  0  0
 13  2  1  0  0  0  0
 56 19  1  0  0  0  0
 99 57  1  0  0  0  0
141104  1  0  0  0  0
151143  1  0  0  0  0
 11  5  1  0  0  0  0
 28 22  1  0  0  0  0
 35 29  1  0  0  0  0
 55 36  2  0  0  0  0
 64 59  1  0  0  0  0
 98 67  2  0  0  0  0
113107  1  0  0  0  0
120114  1  0  0  0  0
140121  2  0  0  0  0
150146  2  0  0  0  0
 47 41  1  0  0  0  0
 54 48  1  0  0  0  0
 97 69  2  0  0  0  0
132126  1  0  0  0  0
139133  1  0  0  0  0
 95 70  2  0  0  0  0
 75 71  2  0  0  0  0
 94 76  2  0  0  0  0
 92 77  2  0  0  0  0
 91 79  2  0  0  0  0
 88 81  1  0  0  0  0
  1157  1  0  0  0  0
  7158  1  0  0  0  0
  8159  1  0  0  0  0
 23160  1  0  0  0  0
 24161  1  0  0  0  0
 26162  1  0  0  0  0
 26163  1  0  0  0  0
 26164  1  0  0  0  0
 27165  1  0  0  0  0
 28166  1  0  0  0  0
 30167  1  0  0  0  0
 31168  1  0  0  0  0
 33169  1  0  0  0  0
 33170  1  0  0  0  0
 33171  1  0  0  0  0
 34172  1  0  0  0  0
 35173  1  0  0  0  0
 42174  1  0  0  0  0
 43175  1  0  0  0  0
 45176  1  0  0  0  0
 45177  1  0  0  0  0
 45178  1  0  0  0  0
 46179  1  0  0  0  0
 47180  1  0  0  0  0
 49181  1  0  0  0  0
 50182  1  0  0  0  0
 52183  1  0  0  0  0
 52184  1  0  0  0  0
 52185  1  0  0  0  0
 53186  1  0  0  0  0
 54187  1  0  0  0  0
 60188  1  0  0  0  0
 61189  1  0  0  0  0
 62190  1  0  0  0  0
 63191  1  0  0  0  0
 65192  1  0  0  0  0
 65193  1  0  0  0  0
 66194  1  0  0  0  0
 66195  1  0  0  0  0
 66196  1  0  0  0  0
 83197  1  0  0  0  0
 83198  1  0  0  0  0
 84199  1  0  0  0  0
 84200  1  0  0  0  0
 84201  1  0  0  0  0
 85202  1  0  0  0  0
 86203  1  0  0  0  0
 87204  1  0  0  0  0
 88205  1  0  0  0  0
100206  1  0  0  0  0
100207  1  0  0  0  0
101208  1  0  0  0  0
101209  1  0  0  0  0
101210  1  0  0  0  0
102211  1  0  0  0  0
102212  1  0  0  0  0
103213  1  0  0  0  0
103214  1  0  0  0  0
103215  1  0  0  0  0
108216  1  0  0  0  0
109217  1  0  0  0  0
111218  1  0  0  0  0
111219  1  0  0  0  0
111220  1  0  0  0  0
112221  1  0  0  0  0
113222  1  0  0  0  0
115223  1  0  0  0  0
116224  1  0  0  0  0
118225  1  0  0  0  0
118226  1  0  0  0  0
118227  1  0  0  0  0
119228  1  0  0  0  0
120229  1  0  0  0  0
127230  1  0  0  0  0
128231  1  0  0  0  0
130232  1  0  0  0  0
130233  1  0  0  0  0
130234  1  0  0  0  0
131235  1  0  0  0  0
132236  1  0  0  0  0
134237  1  0  0  0  0
135238  1  0  0  0  0
137239  1  0  0  0  0
137240  1  0  0  0  0
137241  1  0  0  0  0
138242  1  0  0  0  0
139243  1  0  0  0  0
142244  1  0  0  0  0
147245  1  0  0  0  0
148246  1  0  0  0  0
M  END
