
  xtb     02072221513D
 energy: -344.251740834581 gnorm: 0.000686147310 xtb: 6.4.1 (unknown)
196216  0     0  0            999 V2000
   -6.5353   -5.4201   -4.5691 C   0  0  0  0  0  0  0  0  0  0  0  0
   -6.4938   -5.3980   -5.9515 C   0  0  0  0  0  0  0  0  0  0  0  0
   -5.6632   -4.5212   -6.7706 C   0  0  0  0  0  0  0  0  0  0  0  0
   -4.8030   -3.7400   -6.4055 O   0  0  0  0  0  0  0  0  0  0  0  0
   -6.0939   -4.7481   -8.1693 C   0  0  0  0  0  0  0  0  0  0  0  0
   -7.1182   -5.7117   -8.1881 C   0  0  0  0  0  0  0  0  0  0  0  0
   -7.6840   -6.0937   -9.3929 C   0  0  0  0  0  0  0  0  0  0  0  0
   -7.2212   -5.5047  -10.5617 C   0  0  0  0  0  0  0  0  0  0  0  0
   -6.2112   -4.5566  -10.5368 C   0  0  0  0  0  0  0  0  0  0  0  0
   -5.6226   -3.7923  -12.1630 Br  0  0  0  0  0  0  0  0  0  0  0  0
   -5.6242   -4.1599   -9.3302 C   0  0  0  0  0  0  0  0  0  0  0  0
   -4.3679   -2.9982   -9.2920 Cl  0  0  0  0  0  0  0  0  0  0  0  0
   -7.3677   -6.1493   -6.8129 C   0  0  0  0  0  0  0  0  0  0  0  0
   -8.2706   -7.1222   -6.4497 C   0  0  0  0  0  0  0  0  0  0  0  0
   -9.1548   -7.7545   -7.3451 C   0  0  0  0  0  0  0  0  0  0  0  0
   -9.9157   -8.2925   -8.0173 N   0  0  0  0  0  0  0  0  0  0  0  0
   -8.4299   -7.6486   -5.1544 C   0  0  0  0  0  0  0  0  0  0  0  0
   -8.6047   -8.1592   -4.1386 N   0  0  0  0  0  0  0  0  0  0  0  0
   -5.7627   -4.7488   -3.6323 C   0  0  0  0  0  0  0  0  0  0  0  0
   -5.9895   -4.8327   -2.2286 C   0  0  0  0  0  0  0  0  0  0  0  0
   -7.0972   -5.3620   -1.6348 N   0  0  0  0  0  0  0  0  0  0  0  0
   -8.3830   -5.2900   -2.2092 C   0  0  0  0  0  0  0  0  0  0  0  0
   -8.7863   -4.1643   -2.9228 C   0  0  0  0  0  0  0  0  0  0  0  0
  -10.0484   -4.1170   -3.4797 C   0  0  0  0  0  0  0  0  0  0  0  0
  -10.9425   -5.1706   -3.3250 C   0  0  0  0  0  0  0  0  0  0  0  0
  -12.3020   -5.1333   -3.9506 C   0  0  0  0  0  0  0  0  0  0  0  0
  -10.5412   -6.2737   -2.5808 C   0  0  0  0  0  0  0  0  0  0  0  0
   -9.2768   -6.3423   -2.0304 C   0  0  0  0  0  0  0  0  0  0  0  0
   -7.0001   -5.8583   -0.3176 C   0  0  0  0  0  0  0  0  0  0  0  0
   -5.9786   -6.7362    0.0288 C   0  0  0  0  0  0  0  0  0  0  0  0
   -5.9047   -7.2378    1.3140 C   0  0  0  0  0  0  0  0  0  0  0  0
   -6.8385   -6.8794    2.2767 C   0  0  0  0  0  0  0  0  0  0  0  0
   -6.7876   -7.4429    3.6624 C   0  0  0  0  0  0  0  0  0  0  0  0
   -7.8521   -5.9948    1.9207 C   0  0  0  0  0  0  0  0  0  0  0  0
   -7.9387   -5.4878    0.6413 C   0  0  0  0  0  0  0  0  0  0  0  0
   -4.9296   -4.2451   -1.5191 C   0  0  0  0  0  0  0  0  0  0  0  0
   -4.5737   -4.0459    0.1652 S   0  0  0  0  0  0  0  0  0  0  0  0
   -3.1472   -3.0987   -0.2367 C   0  0  0  0  0  0  0  0  0  0  0  0
   -2.9352   -2.9947   -1.6085 C   0  0  0  0  0  0  0  0  0  0  0  0
   -1.8698   -2.3821   -2.2427 N   0  0  0  0  0  0  0  0  0  0  0  0
   -2.0944   -1.7903   -3.5034 C   0  0  0  0  0  0  0  0  0  0  0  0
   -3.2202   -1.0017   -3.7221 C   0  0  0  0  0  0  0  0  0  0  0  0
   -3.4489   -0.4556   -4.9682 C   0  0  0  0  0  0  0  0  0  0  0  0
   -2.5639   -0.6702   -6.0186 C   0  0  0  0  0  0  0  0  0  0  0  0
   -2.8397   -0.0803   -7.3664 C   0  0  0  0  0  0  0  0  0  0  0  0
   -1.4319   -1.4392   -5.7830 C   0  0  0  0  0  0  0  0  0  0  0  0
   -1.1947   -1.9976   -4.5422 C   0  0  0  0  0  0  0  0  0  0  0  0
   -0.5972   -2.3082   -1.6702 C   0  0  0  0  0  0  0  0  0  0  0  0
   -0.1044   -3.3454   -0.8800 C   0  0  0  0  0  0  0  0  0  0  0  0
    1.0777   -3.1938   -0.1858 C   0  0  0  0  0  0  0  0  0  0  0  0
    1.8219   -2.0224   -0.2836 C   0  0  0  0  0  0  0  0  0  0  0  0
    3.0622   -1.8381    0.5368 C   0  0  0  0  0  0  0  0  0  0  0  0
    1.3732   -1.0311   -1.1467 C   0  0  0  0  0  0  0  0  0  0  0  0
    0.1818   -1.1632   -1.8325 C   0  0  0  0  0  0  0  0  0  0  0  0
   -3.9669   -3.6509   -2.3263 C   0  0  0  0  0  0  0  0  0  0  0  0
   -4.3128   -3.8103   -4.0096 S   0  0  0  0  0  0  0  0  0  0  0  0
   -2.3578   -2.5655    0.8267 C   0  0  0  0  0  0  0  0  0  0  0  0
   -2.0244   -3.1755    2.0188 C   0  0  0  0  0  0  0  0  0  0  0  0
   -2.4301   -4.5293    2.4337 C   0  0  0  0  0  0  0  0  0  0  0  0
   -1.9493   -5.6246    1.7256 C   0  0  0  0  0  0  0  0  0  0  0  0
   -2.2333   -6.9129    2.1340 C   0  0  0  0  0  0  0  0  0  0  0  0
   -3.0015   -7.1154    3.2666 C   0  0  0  0  0  0  0  0  0  0  0  0
   -3.4980   -6.0294    3.9631 C   0  0  0  0  0  0  0  0  0  0  0  0
   -3.2272   -4.7282    3.5637 C   0  0  0  0  0  0  0  0  0  0  0  0
   -3.8410   -3.5772    4.3079 C   0  0  0  0  0  0  0  0  0  0  0  0
   -5.0746   -3.0567    3.5681 C   0  0  0  0  0  0  0  0  0  0  0  0
   -1.1177   -2.3897    2.7558 C   0  0  0  0  0  0  0  0  0  0  0  0
   -0.2153   -2.6927    4.2217 S   0  0  0  0  0  0  0  0  0  0  0  0
    0.6413   -1.2064    3.9737 C   0  0  0  0  0  0  0  0  0  0  0  0
    1.6731   -0.4573    4.5670 C   0  0  0  0  0  0  0  0  0  0  0  0
    2.3509   -0.5472    5.8050 C   0  0  0  0  0  0  0  0  0  0  0  0
    3.2640    0.5006    6.1853 C   0  0  0  0  0  0  0  0  0  0  0  0
    3.7544    0.3229    7.4012 N   0  0  0  0  0  0  0  0  0  0  0  0
    3.1358   -1.0414    8.0143 S   0  0  0  0  0  0  0  0  0  0  0  0
    2.2131   -1.4603    6.7526 N   0  0  0  0  0  0  0  0  0  0  0  0
    3.5879    1.5074    5.2464 C   0  0  0  0  0  0  0  0  0  0  0  0
    4.5271    2.5524    5.2386 C   0  0  0  0  0  0  0  0  0  0  0  0
    5.6293    3.3273    6.3245 S   0  0  0  0  0  0  0  0  0  0  0  0
    6.1175    4.3928    5.0253 C   0  0  0  0  0  0  0  0  0  0  0  0
    7.0189    5.4578    4.9638 C   0  0  0  0  0  0  0  0  0  0  0  0
    7.7574    5.9660    6.1300 C   0  0  0  0  0  0  0  0  0  0  0  0
    8.7831    5.2364    6.7363 C   0  0  0  0  0  0  0  0  0  0  0  0
    9.2512    3.9176    6.1907 C   0  0  0  0  0  0  0  0  0  0  0  0
   10.2042    4.1193    5.0116 C   0  0  0  0  0  0  0  0  0  0  0  0
    9.4233    5.7916    7.8367 C   0  0  0  0  0  0  0  0  0  0  0  0
    9.0527    7.0231    8.3418 C   0  0  0  0  0  0  0  0  0  0  0  0
    8.0197    7.7304    7.7501 C   0  0  0  0  0  0  0  0  0  0  0  0
    7.3769    7.2030    6.6488 C   0  0  0  0  0  0  0  0  0  0  0  0
    7.0393    6.0467    3.6970 C   0  0  0  0  0  0  0  0  0  0  0  0
    5.9345    5.2397    2.5863 S   0  0  0  0  0  0  0  0  0  0  0  0
    5.4496    4.1391    3.8188 C   0  0  0  0  0  0  0  0  0  0  0  0
    4.5307    3.0973    3.9458 C   0  0  0  0  0  0  0  0  0  0  0  0
    3.6057    2.4529    3.1598 N   0  0  0  0  0  0  0  0  0  0  0  0
    2.9956    1.5027    3.9563 C   0  0  0  0  0  0  0  0  0  0  0  0
    1.9142    0.6372    3.6953 C   0  0  0  0  0  0  0  0  0  0  0  0
    1.0079    0.6049    2.6524 N   0  0  0  0  0  0  0  0  0  0  0  0
    0.2399   -0.5164    2.8230 C   0  0  0  0  0  0  0  0  0  0  0  0
   -0.7814   -1.1840    2.1397 C   0  0  0  0  0  0  0  0  0  0  0  0
   -1.6710   -0.9513    0.6825 S   0  0  0  0  0  0  0  0  0  0  0  0
    0.5247    1.7308    1.8803 C   0  0  0  0  0  0  0  0  0  0  0  0
   -0.8338    2.2099    2.3900 C   0  0  0  0  0  0  0  0  0  0  0  0
    3.7777    2.3779    1.7225 C   0  0  0  0  0  0  0  0  0  0  0  0
    5.1379    1.7837    1.3579 C   0  0  0  0  0  0  0  0  0  0  0  0
    7.9155    7.0736    3.2749 C   0  0  0  0  0  0  0  0  0  0  0  0
    9.3382    7.3597    4.2465 S   0  0  0  0  0  0  0  0  0  0  0  0
    9.9917    8.5363    3.1305 C   0  0  0  0  0  0  0  0  0  0  0  0
    9.1051    8.7000    2.0758 C   0  0  0  0  0  0  0  0  0  0  0  0
    9.1649    9.7099    0.6792 S   0  0  0  0  0  0  0  0  0  0  0  0
    7.5878    9.1215    0.1664 C   0  0  0  0  0  0  0  0  0  0  0  0
    7.0381    9.6324   -1.0448 C   0  0  0  0  0  0  0  0  0  0  0  0
    7.6373   10.5693   -1.8654 C   0  0  0  0  0  0  0  0  0  0  0  0
    6.8874   10.8605   -3.0042 C   0  0  0  0  0  0  0  0  0  0  0  0
    5.7128   10.1497   -3.0608 C   0  0  0  0  0  0  0  0  0  0  0  0
    4.6725   10.1562   -4.0846 C   0  0  0  0  0  0  0  0  0  0  0  0
    3.6698    9.4834   -4.0330 O   0  0  0  0  0  0  0  0  0  0  0  0
    4.9678   11.0035   -5.0814 O   0  0  0  0  0  0  0  0  0  0  0  0
    4.0332   11.0707   -6.1586 C   0  0  0  0  0  0  0  0  0  0  0  0
    4.2411    9.9343   -7.1496 C   0  0  0  0  0  0  0  0  0  0  0  0
    5.5157    9.1110   -1.6968 S   0  0  0  0  0  0  0  0  0  0  0  0
    7.0737    8.1957    1.0411 C   0  0  0  0  0  0  0  0  0  0  0  0
    7.9314    7.9017    2.1408 C   0  0  0  0  0  0  0  0  0  0  0  0
    5.5016    7.5630    0.8082 Cl  0  0  0  0  0  0  0  0  0  0  0  0
   11.2240    9.1917    3.3518 C   0  0  0  0  0  0  0  0  0  0  0  0
   12.1024    8.9497    4.3950 C   0  0  0  0  0  0  0  0  0  0  0  0
   13.2929    9.6934    4.5190 C   0  0  0  0  0  0  0  0  0  0  0  0
   14.2634   10.2925    4.6418 N   0  0  0  0  0  0  0  0  0  0  0  0
   11.9239    7.9626    5.3774 C   0  0  0  0  0  0  0  0  0  0  0  0
   11.8461    7.1549    6.1917 N   0  0  0  0  0  0  0  0  0  0  0  0
   11.6059   10.1911    2.4202 C   0  0  0  0  0  0  0  0  0  0  0  0
   11.9283   11.0017    1.6776 N   0  0  0  0  0  0  0  0  0  0  0  0
   -7.2963   -6.0582   -4.1393 H   0  0  0  0  0  0  0  0  0  0  0  0
   -8.4686   -6.8296   -9.4455 H   0  0  0  0  0  0  0  0  0  0  0  0
   -7.6506   -5.7875  -11.5104 H   0  0  0  0  0  0  0  0  0  0  0  0
   -8.1067   -3.3334   -3.0435 H   0  0  0  0  0  0  0  0  0  0  0  0
  -10.3465   -3.2405   -4.0367 H   0  0  0  0  0  0  0  0  0  0  0  0
  -13.0647   -5.4182   -3.2284 H   0  0  0  0  0  0  0  0  0  0  0  0
  -12.3500   -5.8406   -4.7788 H   0  0  0  0  0  0  0  0  0  0  0  0
  -12.5308   -4.1415   -4.3321 H   0  0  0  0  0  0  0  0  0  0  0  0
  -11.2211   -7.1009   -2.4459 H   0  0  0  0  0  0  0  0  0  0  0  0
   -8.9717   -7.2133   -1.4723 H   0  0  0  0  0  0  0  0  0  0  0  0
   -5.2553   -7.0339   -0.7159 H   0  0  0  0  0  0  0  0  0  0  0  0
   -5.1107   -7.9233    1.5675 H   0  0  0  0  0  0  0  0  0  0  0  0
   -5.8722   -8.0051    3.8200 H   0  0  0  0  0  0  0  0  0  0  0  0
   -7.6354   -8.1083    3.8263 H   0  0  0  0  0  0  0  0  0  0  0  0
   -6.8455   -6.6458    4.4015 H   0  0  0  0  0  0  0  0  0  0  0  0
   -8.5839   -5.7004    2.6590 H   0  0  0  0  0  0  0  0  0  0  0  0
   -8.7296   -4.8022    0.3757 H   0  0  0  0  0  0  0  0  0  0  0  0
   -3.9119   -0.8243   -2.9107 H   0  0  0  0  0  0  0  0  0  0  0  0
   -4.3301    0.1477   -5.1313 H   0  0  0  0  0  0  0  0  0  0  0  0
   -2.0627   -0.3483   -8.0779 H   0  0  0  0  0  0  0  0  0  0  0  0
   -2.8969    1.0062   -7.3052 H   0  0  0  0  0  0  0  0  0  0  0  0
   -3.7959   -0.4416   -7.7417 H   0  0  0  0  0  0  0  0  0  0  0  0
   -0.7304   -1.6173   -6.5852 H   0  0  0  0  0  0  0  0  0  0  0  0
   -0.3174   -2.6047   -4.3726 H   0  0  0  0  0  0  0  0  0  0  0  0
   -0.6697   -4.2619   -0.8059 H   0  0  0  0  0  0  0  0  0  0  0  0
    1.4278   -3.9945    0.4500 H   0  0  0  0  0  0  0  0  0  0  0  0
    3.6359   -0.9826    0.1881 H   0  0  0  0  0  0  0  0  0  0  0  0
    3.6914   -2.7248    0.4901 H   0  0  0  0  0  0  0  0  0  0  0  0
    2.7982   -1.6747    1.5830 H   0  0  0  0  0  0  0  0  0  0  0  0
    1.9529   -0.1266   -1.2689 H   0  0  0  0  0  0  0  0  0  0  0  0
   -0.1731   -0.3658   -2.4680 H   0  0  0  0  0  0  0  0  0  0  0  0
   -1.3286   -5.4594    0.8579 H   0  0  0  0  0  0  0  0  0  0  0  0
   -1.8449   -7.7533    1.5779 H   0  0  0  0  0  0  0  0  0  0  0  0
   -3.2074   -8.1192    3.6096 H   0  0  0  0  0  0  0  0  0  0  0  0
   -4.1012   -6.1896    4.8449 H   0  0  0  0  0  0  0  0  0  0  0  0
   -3.1213   -2.7656    4.4221 H   0  0  0  0  0  0  0  0  0  0  0  0
   -4.1334   -3.9091    5.3058 H   0  0  0  0  0  0  0  0  0  0  0  0
   -5.5625   -2.2759    4.1469 H   0  0  0  0  0  0  0  0  0  0  0  0
   -4.7935   -2.6463    2.6013 H   0  0  0  0  0  0  0  0  0  0  0  0
   -5.7841   -3.8637    3.3965 H   0  0  0  0  0  0  0  0  0  0  0  0
    8.4036    3.3094    5.8716 H   0  0  0  0  0  0  0  0  0  0  0  0
    9.7749    3.3764    6.9799 H   0  0  0  0  0  0  0  0  0  0  0  0
   10.6308    3.1676    4.7035 H   0  0  0  0  0  0  0  0  0  0  0  0
    9.6774    4.5499    4.1624 H   0  0  0  0  0  0  0  0  0  0  0  0
   11.0103    4.7923    5.2947 H   0  0  0  0  0  0  0  0  0  0  0  0
   10.2314    5.2465    8.3001 H   0  0  0  0  0  0  0  0  0  0  0  0
    9.5697    7.4325    9.1961 H   0  0  0  0  0  0  0  0  0  0  0  0
    7.7159    8.6890    8.1434 H   0  0  0  0  0  0  0  0  0  0  0  0
    6.5710    7.7458    6.1742 H   0  0  0  0  0  0  0  0  0  0  0  0
    0.4402    1.4257    0.8318 H   0  0  0  0  0  0  0  0  0  0  0  0
    1.2333    2.5524    1.9696 H   0  0  0  0  0  0  0  0  0  0  0  0
   -1.1413    3.0879    1.8290 H   0  0  0  0  0  0  0  0  0  0  0  0
   -1.5903    1.4405    2.2665 H   0  0  0  0  0  0  0  0  0  0  0  0
   -0.7686    2.4726    3.4437 H   0  0  0  0  0  0  0  0  0  0  0  0
    3.6884    3.3855    1.3038 H   0  0  0  0  0  0  0  0  0  0  0  0
    3.0009    1.7386    1.3069 H   0  0  0  0  0  0  0  0  0  0  0  0
    5.9481    2.4161    1.7092 H   0  0  0  0  0  0  0  0  0  0  0  0
    5.2169    1.6943    0.2779 H   0  0  0  0  0  0  0  0  0  0  0  0
    5.2475    0.7961    1.8016 H   0  0  0  0  0  0  0  0  0  0  0  0
    8.5882   11.0176   -1.6367 H   0  0  0  0  0  0  0  0  0  0  0  0
    7.1809   11.5599   -3.7651 H   0  0  0  0  0  0  0  0  0  0  0  0
    3.0179   11.0344   -5.7499 H   0  0  0  0  0  0  0  0  0  0  0  0
    4.2134   12.0408   -6.6261 H   0  0  0  0  0  0  0  0  0  0  0  0
    3.5581   10.0516   -7.9859 H   0  0  0  0  0  0  0  0  0  0  0  0
    5.2633    9.9401   -7.5204 H   0  0  0  0  0  0  0  0  0  0  0  0
    4.0449    8.9805   -6.6658 H   0  0  0  0  0  0  0  0  0  0  0  0
  1  2  2  0  0  0  0
  2  3  1  0  0  0  0
  3  4  2  0  0  0  0
  3  5  1  0  0  0  0
  5  6  2  0  0  0  0
  6  7  1  0  0  0  0
  7  8  2  0  0  0  0
  8  9  1  0  0  0  0
  9 10  1  0  0  0  0
  9 11  2  0  0  0  0
 11 12  1  0  0  0  0
  6 13  1  0  0  0  0
 13 14  2  0  0  0  0
 14 15  1  0  0  0  0
 15 16  3  0  0  0  0
 14 17  1  0  0  0  0
 17 18  3  0  0  0  0
  1 19  1  0  0  0  0
 19 20  2  0  0  0  0
 20 21  1  0  0  0  0
 21 22  1  0  0  0  0
 22 23  2  0  0  0  0
 23 24  1  0  0  0  0
 24 25  2  0  0  0  0
 25 26  1  0  0  0  0
 25 27  1  0  0  0  0
 27 28  2  0  0  0  0
 21 29  1  0  0  0  0
 29 30  2  0  0  0  0
 30 31  1  0  0  0  0
 31 32  2  0  0  0  0
 32 33  1  0  0  0  0
 32 34  1  0  0  0  0
 34 35  2  0  0  0  0
 20 36  1  0  0  0  0
 36 37  1  0  0  0  0
 37 38  1  0  0  0  0
 38 39  2  0  0  0  0
 39 40  1  0  0  0  0
 40 41  1  0  0  0  0
 41 42  2  0  0  0  0
 42 43  1  0  0  0  0
 43 44  2  0  0  0  0
 44 45  1  0  0  0  0
 44 46  1  0  0  0  0
 46 47  2  0  0  0  0
 40 48  1  0  0  0  0
 48 49  2  0  0  0  0
 49 50  1  0  0  0  0
 50 51  2  0  0  0  0
 51 52  1  0  0  0  0
 51 53  1  0  0  0  0
 53 54  2  0  0  0  0
 39 55  1  0  0  0  0
 55 56  1  0  0  0  0
 38 57  1  0  0  0  0
 57 58  2  0  0  0  0
 58 59  1  0  0  0  0
 59 60  2  0  0  0  0
 60 61  1  0  0  0  0
 61 62  2  0  0  0  0
 62 63  1  0  0  0  0
 63 64  2  0  0  0  0
 64 65  1  0  0  0  0
 65 66  1  0  0  0  0
 58 67  1  0  0  0  0
 67 68  1  0  0  0  0
 68 69  1  0  0  0  0
 69 70  1  0  0  0  0
 70 71  1  0  0  0  0
 71 72  1  0  0  0  0
 72 73  2  0  0  0  0
 73 74  1  0  0  0  0
 74 75  1  0  0  0  0
 72 76  1  0  0  0  0
 76 77  1  0  0  0  0
 77 78  1  0  0  0  0
 78 79  1  0  0  0  0
 79 80  1  0  0  0  0
 80 81  1  0  0  0  0
 81 82  2  0  0  0  0
 82 83  1  0  0  0  0
 83 84  1  0  0  0  0
 82 85  1  0  0  0  0
 85 86  2  0  0  0  0
 86 87  1  0  0  0  0
 87 88  2  0  0  0  0
 80 89  2  0  0  0  0
 89 90  1  0  0  0  0
 90 91  1  0  0  0  0
 91 92  1  0  0  0  0
 92 93  1  0  0  0  0
 93 94  1  0  0  0  0
 94 95  1  0  0  0  0
 95 96  1  0  0  0  0
 96 97  1  0  0  0  0
 97 98  1  0  0  0  0
 98 99  1  0  0  0  0
 96100  1  0  0  0  0
100101  1  0  0  0  0
 93102  1  0  0  0  0
102103  1  0  0  0  0
 89104  1  0  0  0  0
104105  1  0  0  0  0
105106  1  0  0  0  0
106107  2  0  0  0  0
107108  1  0  0  0  0
108109  1  0  0  0  0
109110  1  0  0  0  0
110111  2  0  0  0  0
111112  1  0  0  0  0
112113  2  0  0  0  0
113114  1  0  0  0  0
114115  2  0  0  0  0
114116  1  0  0  0  0
116117  1  0  0  0  0
117118  1  0  0  0  0
113119  1  0  0  0  0
109120  2  0  0  0  0
120121  1  0  0  0  0
120122  1  0  0  0  0
106123  1  0  0  0  0
123124  2  0  0  0  0
124125  1  0  0  0  0
125126  3  0  0  0  0
124127  1  0  0  0  0
127128  3  0  0  0  0
123129  1  0  0  0  0
129130  3  0  0  0  0
 13  2  1  0  0  0  0
 56 19  1  0  0  0  0
 99 57  1  0  0  0  0
121104  2  0  0  0  0
 11  5  1  0  0  0  0
 28 22  1  0  0  0  0
 35 29  1  0  0  0  0
 55 36  2  0  0  0  0
 64 59  1  0  0  0  0
 98 67  2  0  0  0  0
121107  1  0  0  0  0
 47 41  1  0  0  0  0
 54 48  1  0  0  0  0
 97 69  2  0  0  0  0
119110  1  0  0  0  0
 95 70  2  0  0  0  0
 75 71  2  0  0  0  0
 94 76  2  0  0  0  0
 92 77  2  0  0  0  0
 91 79  2  0  0  0  0
 88 81  1  0  0  0  0
  1131  1  0  0  0  0
  7132  1  0  0  0  0
  8133  1  0  0  0  0
 23134  1  0  0  0  0
 24135  1  0  0  0  0
 26136  1  0  0  0  0
 26137  1  0  0  0  0
 26138  1  0  0  0  0
 27139  1  0  0  0  0
 28140  1  0  0  0  0
 30141  1  0  0  0  0
 31142  1  0  0  0  0
 33143  1  0  0  0  0
 33144  1  0  0  0  0
 33145  1  0  0  0  0
 34146  1  0  0  0  0
 35147  1  0  0  0  0
 42148  1  0  0  0  0
 43149  1  0  0  0  0
 45150  1  0  0  0  0
 45151  1  0  0  0  0
 45152  1  0  0  0  0
 46153  1  0  0  0  0
 47154  1  0  0  0  0
 49155  1  0  0  0  0
 50156  1  0  0  0  0
 52157  1  0  0  0  0
 52158  1  0  0  0  0
 52159  1  0  0  0  0
 53160  1  0  0  0  0
 54161  1  0  0  0  0
 60162  1  0  0  0  0
 61163  1  0  0  0  0
 62164  1  0  0  0  0
 63165  1  0  0  0  0
 65166  1  0  0  0  0
 65167  1  0  0  0  0
 66168  1  0  0  0  0
 66169  1  0  0  0  0
 66170  1  0  0  0  0
 83171  1  0  0  0  0
 83172  1  0  0  0  0
 84173  1  0  0  0  0
 84174  1  0  0  0  0
 84175  1  0  0  0  0
 85176  1  0  0  0  0
 86177  1  0  0  0  0
 87178  1  0  0  0  0
 88179  1  0  0  0  0
100180  1  0  0  0  0
100181  1  0  0  0  0
101182  1  0  0  0  0
101183  1  0  0  0  0
101184  1  0  0  0  0
102185  1  0  0  0  0
102186  1  0  0  0  0
103187  1  0  0  0  0
103188  1  0  0  0  0
103189  1  0  0  0  0
111190  1  0  0  0  0
112191  1  0  0  0  0
117192  1  0  0  0  0
117193  1  0  0  0  0
118194  1  0  0  0  0
118195  1  0  0  0  0
118196  1  0  0  0  0
M  END
