
  xtb     02082203513D
 energy: -346.600267912879 gnorm: 0.000932883546 xtb: 6.4.1 (unknown)
200221  0     0  0            999 V2000
   -0.1326    9.4812    5.1284 C   0  0  0  0  0  0  0  0  0  0  0  0
    0.3085   10.1558    6.2555 C   0  0  0  0  0  0  0  0  0  0  0  0
    1.4350    9.7023    7.0748 C   0  0  0  0  0  0  0  0  0  0  0  0
    2.1247    8.7148    6.9049 O   0  0  0  0  0  0  0  0  0  0  0  0
    1.6465   10.7749    8.0787 C   0  0  0  0  0  0  0  0  0  0  0  0
    0.7182   11.8076    7.8595 C   0  0  0  0  0  0  0  0  0  0  0  0
    0.7239   12.9296    8.6685 C   0  0  0  0  0  0  0  0  0  0  0  0
    1.6491   12.9988    9.7017 C   0  0  0  0  0  0  0  0  0  0  0  0
    2.5489   11.9702    9.9255 C   0  0  0  0  0  0  0  0  0  0  0  0
    3.7637   12.1061   11.3696 Br  0  0  0  0  0  0  0  0  0  0  0  0
    2.5667   10.8349    9.1080 C   0  0  0  0  0  0  0  0  0  0  0  0
    3.6666    9.5505    9.3907 Cl  0  0  0  0  0  0  0  0  0  0  0  0
   -0.1430   11.4227    6.7408 C   0  0  0  0  0  0  0  0  0  0  0  0
   -1.2895   12.0763    6.3519 C   0  0  0  0  0  0  0  0  0  0  0  0
   -1.7662   13.2544    6.9523 C   0  0  0  0  0  0  0  0  0  0  0  0
   -2.2096   14.2055    7.4209 N   0  0  0  0  0  0  0  0  0  0  0  0
   -2.1718   11.5913    5.3676 C   0  0  0  0  0  0  0  0  0  0  0  0
   -2.9493   11.2377    4.5990 N   0  0  0  0  0  0  0  0  0  0  0  0
    0.0007    8.1187    4.8896 C   0  0  0  0  0  0  0  0  0  0  0  0
    0.2067    7.0234    5.7650 C   0  0  0  0  0  0  0  0  0  0  0  0
    0.1030    7.0325    7.1207 N   0  0  0  0  0  0  0  0  0  0  0  0
    0.7203    6.0052    7.8737 C   0  0  0  0  0  0  0  0  0  0  0  0
    2.0651    5.7058    7.6931 C   0  0  0  0  0  0  0  0  0  0  0  0
    2.6580    4.7230    8.4627 C   0  0  0  0  0  0  0  0  0  0  0  0
    1.9298    4.0222    9.4150 C   0  0  0  0  0  0  0  0  0  0  0  0
    2.5691    2.9727   10.2701 C   0  0  0  0  0  0  0  0  0  0  0  0
    0.5825    4.3292    9.5815 C   0  0  0  0  0  0  0  0  0  0  0  0
   -0.0215    5.3118    8.8245 C   0  0  0  0  0  0  0  0  0  0  0  0
   -0.6265    7.9945    7.8339 C   0  0  0  0  0  0  0  0  0  0  0  0
   -0.1369    8.4681    9.0495 C   0  0  0  0  0  0  0  0  0  0  0  0
   -0.8239    9.4470    9.7433 C   0  0  0  0  0  0  0  0  0  0  0  0
   -2.0112    9.9742    9.2539 C   0  0  0  0  0  0  0  0  0  0  0  0
   -2.7314   11.0721    9.9701 C   0  0  0  0  0  0  0  0  0  0  0  0
   -2.5200    9.4569    8.0640 C   0  0  0  0  0  0  0  0  0  0  0  0
   -1.8447    8.4820    7.3614 C   0  0  0  0  0  0  0  0  0  0  0  0
    0.4013    5.8355    5.0235 C   0  0  0  0  0  0  0  0  0  0  0  0
    0.7607    4.1982    5.4552 S   0  0  0  0  0  0  0  0  0  0  0  0
    0.6575    3.7081    3.7714 C   0  0  0  0  0  0  0  0  0  0  0  0
    0.3980    4.7740    2.9159 C   0  0  0  0  0  0  0  0  0  0  0  0
    0.3292    4.7315    1.5326 N   0  0  0  0  0  0  0  0  0  0  0  0
    1.1394    3.8726    0.7851 C   0  0  0  0  0  0  0  0  0  0  0  0
    0.6623    3.2872   -0.3862 C   0  0  0  0  0  0  0  0  0  0  0  0
    1.4198    2.3388   -1.0462 C   0  0  0  0  0  0  0  0  0  0  0  0
    2.6547    1.9328   -0.5561 C   0  0  0  0  0  0  0  0  0  0  0  0
    3.4291    0.8283   -1.2074 C   0  0  0  0  0  0  0  0  0  0  0  0
    3.1528    2.5702    0.5756 C   0  0  0  0  0  0  0  0  0  0  0  0
    2.4192    3.5396    1.2263 C   0  0  0  0  0  0  0  0  0  0  0  0
   -0.5896    5.5799    0.8878 C   0  0  0  0  0  0  0  0  0  0  0  0
   -0.2286    6.2616   -0.2697 C   0  0  0  0  0  0  0  0  0  0  0  0
   -1.1323    7.1044   -0.8861 C   0  0  0  0  0  0  0  0  0  0  0  0
   -2.4064    7.2964   -0.3661 C   0  0  0  0  0  0  0  0  0  0  0  0
   -3.3763    8.2357   -1.0131 C   0  0  0  0  0  0  0  0  0  0  0  0
   -2.7598    6.6061    0.7877 C   0  0  0  0  0  0  0  0  0  0  0  0
   -1.8698    5.7532    1.4079 C   0  0  0  0  0  0  0  0  0  0  0  0
    0.2471    5.9741    3.6505 C   0  0  0  0  0  0  0  0  0  0  0  0
   -0.1178    7.5968    3.1992 S   0  0  0  0  0  0  0  0  0  0  0  0
    0.8638    2.3353    3.4367 C   0  0  0  0  0  0  0  0  0  0  0  0
    1.7678    1.4558    3.9952 C   0  0  0  0  0  0  0  0  0  0  0  0
    2.7297    1.7768    5.0632 C   0  0  0  0  0  0  0  0  0  0  0  0
    3.7512    2.6827    4.8012 C   0  0  0  0  0  0  0  0  0  0  0  0
    4.7217    2.9498    5.7470 C   0  0  0  0  0  0  0  0  0  0  0  0
    4.6824    2.2983    6.9668 C   0  0  0  0  0  0  0  0  0  0  0  0
    3.6604    1.4071    7.2369 C   0  0  0  0  0  0  0  0  0  0  0  0
    2.6705    1.1357    6.3031 C   0  0  0  0  0  0  0  0  0  0  0  0
    1.5371    0.2184    6.6635 C   0  0  0  0  0  0  0  0  0  0  0  0
    0.2841    1.0223    7.0156 C   0  0  0  0  0  0  0  0  0  0  0  0
    1.7534    0.2170    3.3260 C   0  0  0  0  0  0  0  0  0  0  0  0
    2.7739   -1.1952    3.4560 S   0  0  0  0  0  0  0  0  0  0  0  0
    1.9552   -1.8774    2.0906 C   0  0  0  0  0  0  0  0  0  0  0  0
    2.0661   -2.9861    1.2363 C   0  0  0  0  0  0  0  0  0  0  0  0
    3.0209   -4.0248    1.1702 C   0  0  0  0  0  0  0  0  0  0  0  0
    3.0136   -4.9053    0.0355 C   0  0  0  0  0  0  0  0  0  0  0  0
    4.0090   -5.7774    0.0665 N   0  0  0  0  0  0  0  0  0  0  0  0
    4.8753   -5.5208    1.4095 S   0  0  0  0  0  0  0  0  0  0  0  0
    4.0181   -4.2824    2.0020 N   0  0  0  0  0  0  0  0  0  0  0  0
    1.9767   -4.7867   -0.9156 C   0  0  0  0  0  0  0  0  0  0  0  0
    1.6727   -5.5307   -2.0682 C   0  0  0  0  0  0  0  0  0  0  0  0
    2.3353   -6.8268   -3.0046 S   0  0  0  0  0  0  0  0  0  0  0  0
    0.9641   -6.7112   -4.0829 C   0  0  0  0  0  0  0  0  0  0  0  0
    0.6167   -7.4052   -5.2491 C   0  0  0  0  0  0  0  0  0  0  0  0
    1.4099   -8.5120   -5.8134 C   0  0  0  0  0  0  0  0  0  0  0  0
    2.3362   -8.2968   -6.8346 C   0  0  0  0  0  0  0  0  0  0  0  0
    2.5838   -6.9237   -7.3907 C   0  0  0  0  0  0  0  0  0  0  0  0
    3.7329   -6.2401   -6.6471 C   0  0  0  0  0  0  0  0  0  0  0  0
    3.0632   -9.3798   -7.3081 C   0  0  0  0  0  0  0  0  0  0  0  0
    2.8790  -10.6474   -6.7901 C   0  0  0  0  0  0  0  0  0  0  0  0
    1.9574  -10.8536   -5.7785 C   0  0  0  0  0  0  0  0  0  0  0  0
    1.2277   -9.7875   -5.2905 C   0  0  0  0  0  0  0  0  0  0  0  0
   -0.5819   -6.9479   -5.7738 C   0  0  0  0  0  0  0  0  0  0  0  0
   -1.2806   -5.6446   -4.8116 S   0  0  0  0  0  0  0  0  0  0  0  0
    0.0470   -5.7197   -3.7115 C   0  0  0  0  0  0  0  0  0  0  0  0
    0.4588   -5.0422   -2.5613 C   0  0  0  0  0  0  0  0  0  0  0  0
    0.0048   -4.0138   -1.7720 N   0  0  0  0  0  0  0  0  0  0  0  0
    0.9409   -3.8236   -0.7672 C   0  0  0  0  0  0  0  0  0  0  0  0
    1.0622   -2.8349    0.2397 C   0  0  0  0  0  0  0  0  0  0  0  0
    0.3923   -1.6460    0.4658 N   0  0  0  0  0  0  0  0  0  0  0  0
    0.9344   -1.0683    1.5827 C   0  0  0  0  0  0  0  0  0  0  0  0
    0.8234    0.1367    2.2885 C   0  0  0  0  0  0  0  0  0  0  0  0
   -0.1031    1.5871    2.1715 S   0  0  0  0  0  0  0  0  0  0  0  0
   -0.4090   -0.8518   -0.4392 C   0  0  0  0  0  0  0  0  0  0  0  0
   -1.8361   -0.6579    0.0727 C   0  0  0  0  0  0  0  0  0  0  0  0
   -1.4200   -3.7634   -1.7243 C   0  0  0  0  0  0  0  0  0  0  0  0
   -2.1712   -4.9653   -1.1512 C   0  0  0  0  0  0  0  0  0  0  0  0
   -1.2479   -7.3884   -6.9403 C   0  0  0  0  0  0  0  0  0  0  0  0
   -2.4607   -6.9097   -7.4218 C   0  0  0  0  0  0  0  0  0  0  0  0
   -2.8570   -7.5081   -8.6070 C   0  0  0  0  0  0  0  0  0  0  0  0
   -4.0797   -7.1399   -9.3207 C   0  0  0  0  0  0  0  0  0  0  0  0
   -4.0573   -6.8478  -10.6833 C   0  0  0  0  0  0  0  0  0  0  0  0
   -5.2217   -6.5043  -11.3431 C   0  0  0  0  0  0  0  0  0  0  0  0
   -6.4209   -6.4465  -10.6536 C   0  0  0  0  0  0  0  0  0  0  0  0
   -6.4494   -6.7180   -9.2956 C   0  0  0  0  0  0  0  0  0  0  0  0
   -5.2868   -7.0564   -8.6300 C   0  0  0  0  0  0  0  0  0  0  0  0
   -1.9470   -8.4935   -9.0521 C   0  0  0  0  0  0  0  0  0  0  0  0
   -0.5716   -8.6021   -7.9720 S   0  0  0  0  0  0  0  0  0  0  0  0
   -2.1968   -9.3202  -10.1461 C   0  0  0  0  0  0  0  0  0  0  0  0
   -1.4164  -10.3020  -10.7206 C   0  0  0  0  0  0  0  0  0  0  0  0
   -0.0589  -10.6597  -10.3151 C   0  0  0  0  0  0  0  0  0  0  0  0
    0.6048  -10.1841   -9.4113 O   0  0  0  0  0  0  0  0  0  0  0  0
    0.3725  -11.7295  -11.2411 C   0  0  0  0  0  0  0  0  0  0  0  0
   -0.6656  -12.0048  -12.1492 C   0  0  0  0  0  0  0  0  0  0  0  0
   -0.4923  -12.9794  -13.1182 C   0  0  0  0  0  0  0  0  0  0  0  0
    0.7145  -13.6634  -13.1658 C   0  0  0  0  0  0  0  0  0  0  0  0
    1.7334  -13.3871  -12.2681 C   0  0  0  0  0  0  0  0  0  0  0  0
    3.3538  -14.3534  -12.3848 Br  0  0  0  0  0  0  0  0  0  0  0  0
    1.5788  -12.4070  -11.2817 C   0  0  0  0  0  0  0  0  0  0  0  0
    2.8294  -12.0571  -10.1685 Cl  0  0  0  0  0  0  0  0  0  0  0  0
   -1.7958  -11.1237  -11.8454 C   0  0  0  0  0  0  0  0  0  0  0  0
   -2.9856  -11.1130  -12.5318 C   0  0  0  0  0  0  0  0  0  0  0  0
   -4.0900  -10.2761  -12.2699 C   0  0  0  0  0  0  0  0  0  0  0  0
   -5.0375   -9.6386  -12.1404 N   0  0  0  0  0  0  0  0  0  0  0  0
   -3.2757  -11.9556  -13.6245 C   0  0  0  0  0  0  0  0  0  0  0  0
   -3.5778  -12.6081  -14.5199 N   0  0  0  0  0  0  0  0  0  0  0  0
   -0.5855   10.0562    4.3297 H   0  0  0  0  0  0  0  0  0  0  0  0
    0.0359   13.7443    8.5157 H   0  0  0  0  0  0  0  0  0  0  0  0
    1.6696   13.8635   10.3469 H   0  0  0  0  0  0  0  0  0  0  0  0
    2.6388    6.2734    6.9775 H   0  0  0  0  0  0  0  0  0  0  0  0
    3.7058    4.5053    8.3239 H   0  0  0  0  0  0  0  0  0  0  0  0
    2.0425    2.0251   10.1668 H   0  0  0  0  0  0  0  0  0  0  0  0
    2.5234    3.2632   11.3193 H   0  0  0  0  0  0  0  0  0  0  0  0
    3.6098    2.8287    9.9949 H   0  0  0  0  0  0  0  0  0  0  0  0
    0.0018    3.7922   10.3176 H   0  0  0  0  0  0  0  0  0  0  0  0
   -1.0662    5.5492    8.9641 H   0  0  0  0  0  0  0  0  0  0  0  0
    0.7902    8.0738    9.4375 H   0  0  0  0  0  0  0  0  0  0  0  0
   -0.4192    9.8160   10.6745 H   0  0  0  0  0  0  0  0  0  0  0  0
   -2.6992   11.9907    9.3828 H   0  0  0  0  0  0  0  0  0  0  0  0
   -2.2792   11.2682   10.9391 H   0  0  0  0  0  0  0  0  0  0  0  0
   -3.7789   10.8122   10.1149 H   0  0  0  0  0  0  0  0  0  0  0  0
   -3.4574    9.8317    7.6796 H   0  0  0  0  0  0  0  0  0  0  0  0
   -2.2585    8.0983    6.4410 H   0  0  0  0  0  0  0  0  0  0  0  0
   -0.3160    3.5555   -0.7557 H   0  0  0  0  0  0  0  0  0  0  0  0
    1.0320    1.8933   -1.9520 H   0  0  0  0  0  0  0  0  0  0  0  0
    4.4617    1.1282   -1.3757 H   0  0  0  0  0  0  0  0  0  0  0  0
    2.9862    0.5484   -2.1603 H   0  0  0  0  0  0  0  0  0  0  0  0
    3.4417   -0.0515   -0.5617 H   0  0  0  0  0  0  0  0  0  0  0  0
    4.1282    2.2976    0.9523 H   0  0  0  0  0  0  0  0  0  0  0  0
    2.8222    4.0410    2.0932 H   0  0  0  0  0  0  0  0  0  0  0  0
    0.7630    6.1302   -0.6772 H   0  0  0  0  0  0  0  0  0  0  0  0
   -0.8367    7.6312   -1.7818 H   0  0  0  0  0  0  0  0  0  0  0  0
   -3.4604    9.1475   -0.4217 H   0  0  0  0  0  0  0  0  0  0  0  0
   -4.3661    7.7869   -1.0734 H   0  0  0  0  0  0  0  0  0  0  0  0
   -3.0501    8.5061   -2.0141 H   0  0  0  0  0  0  0  0  0  0  0  0
   -3.7480    6.7372    1.2038 H   0  0  0  0  0  0  0  0  0  0  0  0
   -2.1611    5.2128    2.2972 H   0  0  0  0  0  0  0  0  0  0  0  0
    3.7916    3.1650    3.8363 H   0  0  0  0  0  0  0  0  0  0  0  0
    5.5109    3.6530    5.5266 H   0  0  0  0  0  0  0  0  0  0  0  0
    5.4508    2.4805    7.7043 H   0  0  0  0  0  0  0  0  0  0  0  0
    3.6314    0.8996    8.1900 H   0  0  0  0  0  0  0  0  0  0  0  0
    1.8272   -0.3901    7.5219 H   0  0  0  0  0  0  0  0  0  0  0  0
    1.3108   -0.4560    5.8366 H   0  0  0  0  0  0  0  0  0  0  0  0
   -0.0778    1.5647    6.1455 H   0  0  0  0  0  0  0  0  0  0  0  0
   -0.5056    0.3601    7.3629 H   0  0  0  0  0  0  0  0  0  0  0  0
    0.5037    1.7486    7.7956 H   0  0  0  0  0  0  0  0  0  0  0  0
    2.8374   -7.0054   -8.4493 H   0  0  0  0  0  0  0  0  0  0  0  0
    1.6831   -6.3123   -7.3052 H   0  0  0  0  0  0  0  0  0  0  0  0
    3.4960   -6.1359   -5.5909 H   0  0  0  0  0  0  0  0  0  0  0  0
    3.9184   -5.2513   -7.0608 H   0  0  0  0  0  0  0  0  0  0  0  0
    4.6424   -6.8297   -6.7338 H   0  0  0  0  0  0  0  0  0  0  0  0
    3.7799   -9.2217   -8.1010 H   0  0  0  0  0  0  0  0  0  0  0  0
    3.4540  -11.4774   -7.1734 H   0  0  0  0  0  0  0  0  0  0  0  0
    1.8062  -11.8418   -5.3703 H   0  0  0  0  0  0  0  0  0  0  0  0
    0.5040   -9.9366   -4.5015 H   0  0  0  0  0  0  0  0  0  0  0  0
    0.0645    0.1337   -0.5210 H   0  0  0  0  0  0  0  0  0  0  0  0
   -0.3888   -1.3134   -1.4273 H   0  0  0  0  0  0  0  0  0  0  0  0
   -1.8292   -0.0399    0.9662 H   0  0  0  0  0  0  0  0  0  0  0  0
   -2.4328   -0.1578   -0.6849 H   0  0  0  0  0  0  0  0  0  0  0  0
   -2.3081   -1.6051    0.3252 H   0  0  0  0  0  0  0  0  0  0  0  0
   -1.6217   -2.8987   -1.1037 H   0  0  0  0  0  0  0  0  0  0  0  0
   -1.7609   -3.5646   -2.7452 H   0  0  0  0  0  0  0  0  0  0  0  0
   -3.2338   -4.7440   -1.1038 H   0  0  0  0  0  0  0  0  0  0  0  0
   -2.0292   -5.8446   -1.7737 H   0  0  0  0  0  0  0  0  0  0  0  0
   -1.8136   -5.1882   -0.1480 H   0  0  0  0  0  0  0  0  0  0  0  0
   -3.0181   -6.1308   -6.9299 H   0  0  0  0  0  0  0  0  0  0  0  0
   -3.1182   -6.8679  -11.2179 H   0  0  0  0  0  0  0  0  0  0  0  0
   -5.1933   -6.2860  -12.3996 H   0  0  0  0  0  0  0  0  0  0  0  0
   -7.3311   -6.1885  -11.1730 H   0  0  0  0  0  0  0  0  0  0  0  0
   -7.3824   -6.6704   -8.7536 H   0  0  0  0  0  0  0  0  0  0  0  0
   -5.3097   -7.2848   -7.5742 H   0  0  0  0  0  0  0  0  0  0  0  0
   -3.1672   -9.1554  -10.5984 H   0  0  0  0  0  0  0  0  0  0  0  0
   -1.2637  -13.2184  -13.8306 H   0  0  0  0  0  0  0  0  0  0  0  0
    0.8683  -14.4259  -13.9138 H   0  0  0  0  0  0  0  0  0  0  0  0
  1  2  2  0  0  0  0
  2  3  1  0  0  0  0
  3  4  2  0  0  0  0
  3  5  1  0  0  0  0
  5  6  2  0  0  0  0
  6  7  1  0  0  0  0
  7  8  2  0  0  0  0
  8  9  1  0  0  0  0
  9 10  1  0  0  0  0
  9 11  2  0  0  0  0
 11 12  1  0  0  0  0
  6 13  1  0  0  0  0
 13 14  2  0  0  0  0
 14 15  1  0  0  0  0
 15 16  3  0  0  0  0
 14 17  1  0  0  0  0
 17 18  3  0  0  0  0
  1 19  1  0  0  0  0
 19 20  2  0  0  0  0
 20 21  1  0  0  0  0
 21 22  1  0  0  0  0
 22 23  2  0  0  0  0
 23 24  1  0  0  0  0
 24 25  2  0  0  0  0
 25 26  1  0  0  0  0
 25 27  1  0  0  0  0
 27 28  2  0  0  0  0
 21 29  1  0  0  0  0
 29 30  2  0  0  0  0
 30 31  1  0  0  0  0
 31 32  2  0  0  0  0
 32 33  1  0  0  0  0
 32 34  1  0  0  0  0
 34 35  2  0  0  0  0
 20 36  1  0  0  0  0
 36 37  1  0  0  0  0
 37 38  1  0  0  0  0
 38 39  2  0  0  0  0
 39 40  1  0  0  0  0
 40 41  1  0  0  0  0
 41 42  2  0  0  0  0
 42 43  1  0  0  0  0
 43 44  2  0  0  0  0
 44 45  1  0  0  0  0
 44 46  1  0  0  0  0
 46 47  2  0  0  0  0
 40 48  1  0  0  0  0
 48 49  2  0  0  0  0
 49 50  1  0  0  0  0
 50 51  2  0  0  0  0
 51 52  1  0  0  0  0
 51 53  1  0  0  0  0
 53 54  2  0  0  0  0
 39 55  1  0  0  0  0
 55 56  1  0  0  0  0
 38 57  1  0  0  0  0
 57 58  2  0  0  0  0
 58 59  1  0  0  0  0
 59 60  2  0  0  0  0
 60 61  1  0  0  0  0
 61 62  2  0  0  0  0
 62 63  1  0  0  0  0
 63 64  2  0  0  0  0
 64 65  1  0  0  0  0
 65 66  1  0  0  0  0
 58 67  1  0  0  0  0
 67 68  1  0  0  0  0
 68 69  1  0  0  0  0
 69 70  1  0  0  0  0
 70 71  1  0  0  0  0
 71 72  1  0  0  0  0
 72 73  2  0  0  0  0
 73 74  1  0  0  0  0
 74 75  1  0  0  0  0
 72 76  1  0  0  0  0
 76 77  1  0  0  0  0
 77 78  1  0  0  0  0
 78 79  1  0  0  0  0
 79 80  1  0  0  0  0
 80 81  1  0  0  0  0
 81 82  2  0  0  0  0
 82 83  1  0  0  0  0
 83 84  1  0  0  0  0
 82 85  1  0  0  0  0
 85 86  2  0  0  0  0
 86 87  1  0  0  0  0
 87 88  2  0  0  0  0
 80 89  2  0  0  0  0
 89 90  1  0  0  0  0
 90 91  1  0  0  0  0
 91 92  1  0  0  0  0
 92 93  1  0  0  0  0
 93 94  1  0  0  0  0
 94 95  1  0  0  0  0
 95 96  1  0  0  0  0
 96 97  1  0  0  0  0
 97 98  1  0  0  0  0
 98 99  1  0  0  0  0
 96100  1  0  0  0  0
100101  1  0  0  0  0
 93102  1  0  0  0  0
102103  1  0  0  0  0
 89104  1  0  0  0  0
104105  2  0  0  0  0
105106  1  0  0  0  0
106107  1  0  0  0  0
107108  2  0  0  0  0
108109  1  0  0  0  0
109110  2  0  0  0  0
110111  1  0  0  0  0
111112  2  0  0  0  0
106113  2  0  0  0  0
113114  1  0  0  0  0
113115  1  0  0  0  0
115116  2  0  0  0  0
116117  1  0  0  0  0
117118  2  0  0  0  0
117119  1  0  0  0  0
119120  2  0  0  0  0
120121  1  0  0  0  0
121122  2  0  0  0  0
122123  1  0  0  0  0
123124  1  0  0  0  0
123125  2  0  0  0  0
125126  1  0  0  0  0
120127  1  0  0  0  0
127128  2  0  0  0  0
128129  1  0  0  0  0
129130  3  0  0  0  0
128131  1  0  0  0  0
131132  3  0  0  0  0
 13  2  1  0  0  0  0
 56 19  1  0  0  0  0
 99 57  1  0  0  0  0
114104  1  0  0  0  0
127116  1  0  0  0  0
 11  5  1  0  0  0  0
 28 22  1  0  0  0  0
 35 29  1  0  0  0  0
 55 36  2  0  0  0  0
 64 59  1  0  0  0  0
 98 67  2  0  0  0  0
112107  1  0  0  0  0
125119  1  0  0  0  0
 47 41  1  0  0  0  0
 54 48  1  0  0  0  0
 97 69  2  0  0  0  0
 95 70  2  0  0  0  0
 75 71  2  0  0  0  0
 94 76  2  0  0  0  0
 92 77  2  0  0  0  0
 91 79  2  0  0  0  0
 88 81  1  0  0  0  0
  1133  1  0  0  0  0
  7134  1  0  0  0  0
  8135  1  0  0  0  0
 23136  1  0  0  0  0
 24137  1  0  0  0  0
 26138  1  0  0  0  0
 26139  1  0  0  0  0
 26140  1  0  0  0  0
 27141  1  0  0  0  0
 28142  1  0  0  0  0
 30143  1  0  0  0  0
 31144  1  0  0  0  0
 33145  1  0  0  0  0
 33146  1  0  0  0  0
 33147  1  0  0  0  0
 34148  1  0  0  0  0
 35149  1  0  0  0  0
 42150  1  0  0  0  0
 43151  1  0  0  0  0
 45152  1  0  0  0  0
 45153  1  0  0  0  0
 45154  1  0  0  0  0
 46155  1  0  0  0  0
 47156  1  0  0  0  0
 49157  1  0  0  0  0
 50158  1  0  0  0  0
 52159  1  0  0  0  0
 52160  1  0  0  0  0
 52161  1  0  0  0  0
 53162  1  0  0  0  0
 54163  1  0  0  0  0
 60164  1  0  0  0  0
 61165  1  0  0  0  0
 62166  1  0  0  0  0
 63167  1  0  0  0  0
 65168  1  0  0  0  0
 65169  1  0  0  0  0
 66170  1  0  0  0  0
 66171  1  0  0  0  0
 66172  1  0  0  0  0
 83173  1  0  0  0  0
 83174  1  0  0  0  0
 84175  1  0  0  0  0
 84176  1  0  0  0  0
 84177  1  0  0  0  0
 85178  1  0  0  0  0
 86179  1  0  0  0  0
 87180  1  0  0  0  0
 88181  1  0  0  0  0
100182  1  0  0  0  0
100183  1  0  0  0  0
101184  1  0  0  0  0
101185  1  0  0  0  0
101186  1  0  0  0  0
102187  1  0  0  0  0
102188  1  0  0  0  0
103189  1  0  0  0  0
103190  1  0  0  0  0
103191  1  0  0  0  0
105192  1  0  0  0  0
108193  1  0  0  0  0
109194  1  0  0  0  0
110195  1  0  0  0  0
111196  1  0  0  0  0
112197  1  0  0  0  0
115198  1  0  0  0  0
121199  1  0  0  0  0
122200  1  0  0  0  0
M  END
