238

C         -8.68970       -6.39600        4.74480
C         -9.84450       -6.65770        4.04880
C        -10.38320       -8.03080        4.01200
O        -10.03560       -8.97100        4.69170
C        -11.40920       -8.01190        2.93790
C        -11.55120       -6.69740        2.45410
C        -12.42810       -6.42390        1.41910
C        -13.16000       -7.47120        0.87760
C        -13.02940       -8.76190        1.36460
Br       -14.06400      -10.14320        0.59230
C        -12.14700       -9.05750        2.40990
Cl       -11.98530      -10.65300        3.01170
C        -10.68240       -5.81800        3.23720
C        -10.85610       -4.45920        3.36540
C        -10.24310       -3.69540        4.37640
N         -9.81920       -3.05100        5.22880
C        -11.73990       -3.69420        2.58260
N        -12.42920       -3.01420        1.96480
C         -7.79930       -5.33420        4.56100
C         -6.77380       -4.92620        5.43790
N         -6.57360       -5.42180        6.69160
C         -7.63290       -5.92510        7.48080
C         -8.84670       -5.24950        7.55230
C         -9.87010       -5.76210        8.32440
C         -9.70660       -6.93660        9.05000
C        -10.82870       -7.50550        9.86100
C         -8.47830       -7.58510        8.99190
C         -7.44770       -7.08970        8.21750
C         -5.29680       -5.32680        7.27680
C         -4.16090       -5.64560        6.53530
C         -2.91000       -5.53800        7.10690
C         -2.75710       -5.12420        8.42600
C         -1.38960       -5.00710        9.02430
C         -3.89760       -4.83360        9.16380
C         -5.15600       -4.93080        8.60250
C         -6.01470       -3.88170        4.86890
S         -4.70990       -2.88480        5.42400
C         -4.77560       -1.93970        3.95640
C         -5.74900       -2.38760        3.07500
N         -5.98050       -1.84510        1.79790
C         -6.93060       -0.82300        1.67560
C         -8.02000       -0.76060        2.54380
C         -8.93610        0.26650        2.44330
C         -8.79850        1.26740        1.48880
C         -9.81140        2.36640        1.38950
C         -7.70050        1.21310        0.64090
C         -6.77470        0.19190        0.73080
C         -5.20770       -2.30220        0.72580
C         -3.92170       -2.80090        0.92330
C         -3.16190       -3.23150       -0.14830
C         -3.65450       -3.18960       -1.44370
C         -2.83070       -3.64860       -2.60830
C         -4.95450       -2.73090       -1.63140
C         -5.72450       -2.30260       -0.57090
C         -6.43940       -3.49040        3.60480
S         -7.77360       -4.42470        3.04360
C         -3.84230       -0.89340        3.70590
C         -4.01860        0.20710        2.89360
C         -2.84230        0.93230        2.73120
C         -2.40920        2.08650        1.88130
C         -2.95920        3.43570        2.39110
C         -4.47470        3.48960        2.53650
C         -2.78340        1.85900        0.40610
C         -2.22860        0.55570       -0.15660
C         -0.90560        2.04090        2.09190
C         -0.54510        1.06410        3.04270
C         -1.76160        0.39410        3.40930
S         -2.19850       -1.01240        4.29970
C          0.79750        0.82190        3.38830
O          1.14810       -0.06320        4.37090
C          0.56860        0.11080        5.65770
C          0.59950       -1.22120        6.39030
C          1.76350        1.42620        2.59340
C          1.38230        2.34000        1.57840
C          0.05510        2.75730        1.40030
O         -0.34030        3.73610        0.52500
C          0.30810        4.99370        0.63140
C          0.21560        5.59890        2.02770
C          2.53280        2.55720        0.75440
C          3.59680        1.79990        1.20000
C          3.27090        1.17390        2.53430
C          4.04290        2.02690        3.57660
C          3.46350        2.05820        4.98350
C          3.67830       -0.31390        2.50790
C          4.00060       -0.99800        3.83030
C          4.68600        1.81380        0.32980
C          4.44400        2.57550       -0.79280
S          2.86070        3.31750       -0.75200
C          5.26040        2.71300       -1.95710
C          5.90630        1.69300       -2.64250
N          5.80560        0.34690       -2.34810
C          4.60940       -0.21010       -1.87870
C          4.64400       -1.29970       -1.01290
C          3.47160       -1.82640       -0.50730
C          2.23740       -1.27410       -0.82550
C          0.97280       -1.79290       -0.21110
C          2.20770       -0.20780       -1.71650
C          3.37000        0.30830       -2.25150
C          6.88320       -0.48600       -2.71030
C          6.66530       -1.67570       -3.39680
C          7.73850       -2.43670       -3.81400
C          9.04610       -2.03640       -3.56490
C         10.20430       -2.81940       -4.09550
C          9.25180       -0.86610       -2.84600
C          8.18740       -0.09830       -2.41740
C          6.62350        2.20400       -3.75260
S          7.68690        1.48730       -4.90530
C          7.87290        3.04610       -5.71680
C          7.18320        4.08640       -5.03400
N          7.19870        5.41120       -5.37300
C          6.06800        6.19560       -5.06620
C          4.79210        5.71990       -5.35920
C          3.68340        6.47650       -5.04230
C          3.81440        7.72250       -4.43780
C          2.59690        8.52150       -4.08960
C          5.09190        8.19580       -4.16810
C          6.21070        7.44550       -4.47450
C          8.33330        6.05180       -5.90510
C          9.61330        5.70160       -5.48220
C         10.71550        6.32950       -6.02630
C         10.57410        7.32930       -6.98220
C         11.76850        7.99130       -7.59630
C          9.29070        7.69560       -7.36990
C          8.17910        7.06620       -6.84650
C          6.47080        3.57360       -3.93830
S          5.44570        4.27950       -2.72860
C          8.51550        3.22410       -6.93550
C          9.28370        2.35120       -7.68210
C          9.72820        1.02050       -7.26630
O          9.41190        0.39980       -6.26830
C         10.67990        0.57380       -8.30830
C         11.41070       -0.59290       -8.41800
F         11.32870       -1.55020       -7.48330
C         12.24850       -0.79000       -9.50900
C         12.34260        0.19040      -10.48030
C         11.61690        1.37310      -10.39180
C         10.78530        1.56400       -9.30180
C          9.89870        2.67440       -8.94190
C          9.69500        3.79920       -9.70770
C         10.39740        4.09180      -10.89260
N         10.94460        4.40680      -11.85290
C          8.74580        4.80540       -9.44780
N          7.97500        5.65180       -9.33510
H         -8.39960       -7.16200        5.45590
H        -12.54340       -5.42840        1.02320
H        -13.84520       -7.28470        0.06500
H         -8.98890       -4.33300        6.99930
H        -10.81020       -5.23220        8.36860
H        -11.57300       -6.74520       10.08410
H        -11.31650       -8.30610        9.30420
H        -10.45900       -7.92550       10.79400
H         -8.32940       -8.49560        9.55340
H         -6.49940       -7.60500        8.17160
H         -4.26650       -5.98370        5.51460
H         -2.03580       -5.78330        6.52200
H         -0.76990       -4.34210        8.42450
H         -1.43920       -4.61940       10.03830
H         -0.90280       -5.98150        9.04930
H         -3.80230       -4.51680       10.19210
H         -6.03440       -4.69110        9.18280
H         -8.15890       -1.51670        3.30100
H         -9.77840        0.28580        3.11930
H         -9.91640        2.87610        2.34640
H        -10.78550        1.95730        1.12360
H         -9.52400        3.09500        0.63560
H         -7.55880        1.98650       -0.10120
H         -5.91990        0.18030        0.06990
H         -3.50270       -2.85180        1.91630
H         -2.16170       -3.59880        0.03300
H         -3.21860       -4.59020       -2.99750
H         -1.79460       -3.80010       -2.31580
H         -2.86430       -2.91780       -3.41450
H         -5.37350       -2.71650       -2.62750
H         -6.73820       -1.97160       -0.73940
H         -4.96230        0.46120        2.45060
H         -2.50480        3.64320        3.36390
H         -2.63250        4.20660        1.69230
H         -4.97310        3.28150        1.59380
H         -4.82090        2.77250        3.27630
H         -4.77300        4.48350        2.86310
H         -2.39550        2.69590       -0.17500
H         -3.87080        1.84930        0.32150
H         -2.60540       -0.30420        0.39380
H         -2.52550        0.44440       -1.19720
H         -1.14240        0.55140       -0.10650
H          1.15440        0.85740        6.21310
H         -0.45790        0.48100        5.58360
H          0.16840       -1.10320        7.38030
H          1.62380       -1.57140        6.48710
H          0.02800       -1.96330        5.83940
H         -0.21480        5.62150       -0.09440
H          1.35960        4.92390        0.33230
H         -0.82260        5.71050        2.33040
H          0.69120        6.57560        2.03020
H          0.72100        4.96060        2.75010
H          5.07200        1.66490        3.60430
H          4.07220        3.05610        3.20700
H          3.39300        1.06320        5.40680
H          4.10470        2.66160        5.62400
H          2.47340        2.50900        4.97380
H          4.56020       -0.39210        1.86790
H          2.87490       -0.86330        2.01610
H          4.83090       -0.51510        4.33890
H          3.13270       -1.00950        4.47860
H          4.28790       -2.02810        3.62670
H          5.61760        1.30050        0.48580
H          5.59690       -1.72760       -0.73720
H          3.52090       -2.67300        0.16250
H          1.10260       -2.81340        0.14180
H          0.69130       -1.17230        0.64220
H          0.15160       -1.76470       -0.92450
H          1.25760        0.22240       -1.99980
H          3.32050        1.11920       -2.96320
H          5.65380       -1.98540       -3.61640
H          7.55730       -3.34830       -4.36480
H         11.06060       -2.75350       -3.42810
H          9.94100       -3.86510       -4.23620
H         10.49760       -2.40950       -5.06200
H         10.25990       -0.54440       -2.62950
H          8.35880        0.81550       -1.86560
H          4.67980        4.75870       -5.83920
H          2.69800        6.09730       -5.26990
H          1.98680        8.69120       -4.97570
H          1.98780        7.98090       -3.36590
H          2.86930        9.48380       -3.66460
H          5.21640        9.16260       -3.70260
H          7.19850        7.81980       -4.25020
H          9.73890        4.93130       -4.73540
H         11.70330        6.04190       -5.69570
H         11.65020        9.07330       -7.59640
H         11.88000        7.67040       -8.63230
H         12.67780        7.73620       -7.05790
H          9.15880        8.47100       -8.10910
H          7.19030        7.34520       -7.17440
H          8.39880        4.21420       -7.35650
H         12.81220       -1.70660       -9.58180
H         12.99380        0.03420      -11.32650
H         11.71180        2.11720      -11.16470
