229

C          9.93680        4.56380        3.46670
C         11.30810        4.68790        3.61270
C         12.27480        3.93810        2.80660
O         12.03770        3.13190        1.92770
C         13.60480        4.47520        3.18930
C         13.43850        5.49480        4.14260
C         14.54150        6.16150        4.64540
C         15.80280        5.78780        4.20110
C         15.96250        4.76830        3.27740
Br        17.70820        4.27990        2.73680
C         14.85740        4.09340        2.74770
Cl        15.04830        2.81810        1.61720
C         12.01100        5.61900        4.44000
C         11.46760        6.36510        5.45990
C         10.10420        6.33500        5.81090
N          9.01310        6.33220        6.17110
C         12.21800        7.17600        6.32900
N         12.78820        7.83700        7.07670
C          9.25760        3.44340        2.99950
C          9.61960        2.07530        2.93820
N         10.71140        1.49640        3.51280
C         11.35300        2.04300        4.63280
C         12.74190        1.98940        4.73720
C         13.38200        2.56560        5.81890
C         12.66480        3.20410        6.82140
C         13.35520        3.88060        7.96300
C         11.27410        3.21060        6.73320
C         10.62320        2.63940        5.66090
C         11.22700        0.29470        2.97830
C         11.58990       -0.74220        3.83270
C         12.14290       -1.89580        3.31620
C         12.34610       -2.04430        1.94760
C         12.97830       -3.29420        1.41600
C         11.96660       -1.00770        1.10460
C         11.41200        0.15330        1.60790
C          8.60180        1.32690        2.30390
S          8.41790       -0.34560        1.89260
C          6.79470       -0.04880        1.29780
C          6.44020        1.29390        1.36760
N          5.26730        1.85560        0.89120
C          4.64510        1.39200       -0.27370
C          3.25390        1.40240       -0.37200
C          2.62920        0.86860       -1.47980
C          3.36120        0.30690       -2.51900
C          2.67750       -0.34670       -3.68030
C          4.74710        0.34550       -2.43600
C          5.38780        0.88040       -1.33570
C          4.70810        2.92530        1.61360
C          4.19060        4.03390        0.95190
C          3.65900        5.08430        1.67390
C          3.63680        5.06380        3.06290
C          3.08750        6.21310        3.85000
C          4.15260        3.94960        3.71520
C          4.67710        2.88880        3.00550
C          7.47270        2.05750        1.95950
S          7.61560        3.71850        2.39230
C          5.94760       -1.08970        0.79460
C          6.17280       -1.99850       -0.21760
C          7.46350       -2.29700       -0.84210
C          8.54390       -2.72170       -0.07640
C          9.73670       -3.04860       -0.69310
C          9.86040       -2.96010       -2.06810
C          8.78600       -2.55290       -2.84920
C          8.88070       -2.52810       -4.34730
C          8.32240       -3.82820       -4.93010
C          7.59190       -2.22840       -2.22450
C          4.96850       -2.60490       -0.63430
S          4.58830       -3.68590       -1.95170
C          2.91160       -3.57880       -1.52910
C          1.66210       -4.04190       -1.98430
C          1.28380       -4.96080       -2.98810
C         -0.10890       -5.28850       -3.14680
N         -0.30680       -6.20390       -4.08200
S          1.12600       -6.61480       -4.71360
N          2.05880       -5.63960       -3.81900
C         -1.07450       -4.57950       -2.39690
C         -2.47800       -4.52830       -2.47290
S         -3.78180       -5.29360       -3.31880
C         -4.90190       -4.19770       -2.54340
C         -6.30300       -4.05620       -2.60950
C         -7.15710       -4.96100       -3.38350
C         -8.25990       -5.57510       -2.79500
C         -9.01840       -6.47030       -3.52320
C         -8.68790       -6.76160       -4.83600
C         -7.59200       -6.15830       -5.43800
C         -7.18790       -6.50890       -6.84070
C         -6.09740       -7.58200       -6.82190
C         -6.83060       -5.26330       -4.70000
C         -6.73530       -3.02030       -1.80090
S         -5.42350       -2.24830       -0.92620
C         -4.27840       -3.30110       -1.67380
C         -2.89290       -3.49440       -1.62990
N         -1.81460       -2.92470       -1.00380
C         -0.68590       -3.59430       -1.45040
C          0.68700       -3.44620       -1.14240
N          1.32400       -2.70490       -0.16410
C          2.67030       -2.77010       -0.41480
C          3.84810       -2.21060        0.09340
S          4.26830       -1.08860        1.33310
C          0.82420       -2.41990        1.16260
C          1.49340       -3.29990        2.21750
C         -1.92210       -1.57190       -0.49150
C         -1.10730       -0.58730       -1.32260
C         -8.04150       -2.46460       -1.67520
C         -9.07720       -2.53940       -2.56190
C        -10.22780       -1.82380       -2.15760
C        -11.45030       -1.68290       -2.84710
C        -11.71160       -2.37750       -4.09110
C        -12.38690       -1.92570       -5.18980
C        -12.46090       -2.90230       -6.20170
F        -13.06120       -2.66500       -7.38200
C        -11.87300       -4.09710       -5.90840
C        -11.76940       -5.31930       -6.75330
C        -12.42870       -6.52540       -6.08550
S        -11.19790       -4.02920       -4.31910
C        -12.39680       -0.84310       -2.26650
C        -12.19290       -0.20020       -1.01940
C        -10.98110       -0.36310       -0.31610
C        -10.75620        0.32300        0.94000
S         -9.27770        1.19670        1.22360
C         -9.80910        1.73560        2.77570
C         -8.95650        2.56950        3.66600
C         -8.19020        1.71540        4.68820
C         -7.18100        0.78590        4.02710
C        -11.05530        1.23980        3.02730
C        -11.60740        0.44940        2.00230
F        -11.72280        1.49520        4.16880
C        -10.02070       -1.15460       -0.92360
S         -8.43580       -1.47840       -0.28240
C        -13.27260        0.63120       -0.66830
C        -14.28430        0.65260       -1.59190
S        -13.95200       -0.43290       -2.92890
C        -15.49460        1.39110       -1.55600
C        -15.78930        2.48310       -0.80310
C        -17.22590        2.85020       -0.59430
O        -18.16070        2.45050       -1.24390
C        -17.21950        3.73590        0.58310
C        -18.29340        4.26420        1.29830
O        -19.54970        4.00100        0.91180
C        -18.00080        5.05840        2.41250
C        -16.69530        5.30250        2.79440
C        -15.62150        4.78420        2.08120
C        -15.89280        4.00580        0.97050
C        -14.98800        3.36660        0.01570
C        -13.68680        3.73770       -0.19960
C        -12.96550        4.63140        0.61780
N        -12.30640        5.31810        1.25980
C        -12.91660        3.30690       -1.30010
N        -12.25290        3.02460       -2.19290
H          9.31820        5.42430        3.69230
H         14.44530        6.95810        5.36420
H         16.67740        6.29240        4.58170
H         13.31440        1.50230        3.96230
H         14.46040        2.52910        5.87400
H         13.32240        4.96310        7.83320
H         12.86120        3.64800        8.90410
H         14.39690        3.57710        8.02440
H         10.69380        3.67700        7.51590
H          9.54470        2.65750        5.61500
H         11.44240       -0.63420        4.89740
H         12.42750       -2.69490        3.98540
H         13.09860       -3.24390        0.33680
H         12.37060       -4.16450        1.66330
H         13.95930       -3.44100        1.86620
H         12.11970       -1.09830        0.03930
H         11.16060        0.97320        0.95400
H          2.66870        1.80970        0.43920
H          1.55030        0.88010       -1.53360
H          1.68380        0.06850       -3.83220
H          3.25630       -0.22210       -4.59260
H          2.57180       -1.41740       -3.49590
H          5.33740       -0.04940       -3.25000
H          6.46720        0.89790       -1.29440
H          4.21240        4.06740       -0.12750
H          3.26430        5.94070        1.14650
H          2.56390        6.91380        3.20480
H          3.89810        6.74400        4.34880
H          2.40070        5.86020        4.61740
H          4.13940        3.91250        4.79470
H          5.06220        2.02220        3.52390
H          8.43840       -2.82750        0.99300
H         10.56820       -3.38410       -0.09400
H         10.79560       -3.22050       -2.54330
H          8.31070       -1.68410       -4.74130
H          9.92170       -2.41050       -4.65400
H          8.89090       -4.68030       -4.56420
H          7.28370       -3.96000       -4.63540
H          8.37830       -3.81360       -6.01600
H          6.74660       -1.91340       -2.81790
H         -8.50970       -5.35610       -1.76780
H         -9.86910       -6.94890       -3.06140
H         -9.28250       -7.46860       -5.39640
H         -6.80850       -5.62050       -7.35010
H         -8.05100       -6.88060       -7.39690
H         -6.46290       -8.48240       -6.33320
H         -5.79510       -7.83470       -7.83530
H         -5.22640       -7.22710       -6.27590
H         -5.97630       -4.78620       -5.15820
H          0.99620       -1.36320        1.39340
H         -0.24150       -2.63460        1.17470
H          2.55350       -3.07990        2.29940
H          1.37200       -4.35040        1.96160
H          1.03020       -3.12010        3.18380
H         -2.98080       -1.30680       -0.54450
H         -1.62910       -1.51320        0.55880
H         -1.26270        0.42090       -0.94790
H         -0.04790       -0.82350       -1.27170
H         -1.42150       -0.62510       -2.36350
H         -8.99180       -3.06280       -3.49460
H        -12.78190       -0.93380       -5.30350
H        -10.71320       -5.54080       -6.93400
H        -12.24680       -5.11410       -7.71370
H        -13.48530       -6.33380       -5.91370
H        -12.33450       -7.40380       -6.71880
H        -11.95320       -6.72900       -5.12850
H         -9.59760        3.27370        4.20170
H         -8.24640        3.13550        3.06100
H         -7.67110        2.38790        5.37360
H         -8.90490        1.13030        5.27040
H         -7.67760        0.06550        3.38130
H         -6.62330        0.23780        4.78280
H         -6.47660        1.35470        3.42390
H        -12.56420       -0.03370        2.08020
H        -13.30690        1.18640        0.25030
H        -16.31410        1.00570       -2.15410
H        -20.18870        4.43350        1.49290
H        -18.81630        5.48310        2.98270
H        -16.50600        5.91100        3.66550
H        -14.61220        4.98040        2.40230
