249

C          8.07100        8.50850        5.84140
C          7.47390        9.74410        5.75970
C          7.87700       10.81630        6.68860
O          8.82990       10.81630        7.43640
C          6.84180       11.87060        6.53150
C          5.96040       11.50270        5.49770
C          4.87450       12.30150        5.18670
C          4.68440       13.47090        5.90970
C          5.56350       13.84070        6.91470
Br         5.25670       15.45230        7.85460
C          6.66420       13.04240        7.24670
Cl         7.74750       13.49680        8.49320
C          6.42920       10.24510        4.91320
C          6.11770        9.81320        3.64420
C          5.18890       10.45130        2.80590
N          4.45040       10.93990        2.07300
C          6.80230        8.77750        2.98170
N          7.37530        7.98820        2.37330
C          7.55990        7.27950        5.42210
C          8.26450        6.06150        5.32550
N          9.61580        5.93840        5.40940
C         10.19710        4.68940        5.70710
C          9.73690        3.93180        6.77900
C         10.33310        2.72090        7.07610
C         11.39390        2.24160        6.32020
C         12.05710        0.93890        6.64170
C         11.84820        3.00980        5.25200
C         11.26370        4.22040        4.94530
C         10.49630        6.99520        5.07780
C         11.59490        7.24760        5.89160
C         12.46810        8.26900        5.57230
C         12.26910        9.05380        4.44270
C         13.19770       10.18410        4.12570
C         11.17790        8.77550        3.62670
C         10.30050        7.75330        3.92830
C          7.38280        4.99430        5.04810
S          7.58700        3.29320        4.80970
C          5.87770        3.11620        4.45430
C          5.17710        4.31420        4.57060
N          3.80930        4.47690        4.43960
C          3.31060        5.66620        3.87730
C          2.16730        6.26000        4.40300
C          1.65550        7.40680        3.82950
C          2.26900        7.99820        2.73180
C          1.69050        9.21620        2.08350
C          3.42710        7.41280        2.23120
C          3.94360        6.25950        2.78770
C          2.92320        3.48480        4.87510
C          3.22350        2.70810        5.99170
C          2.41010        1.65270        6.34840
C          1.25920        1.35870        5.62570
C          0.41550        0.17540        5.98950
C          0.92870        2.18000        4.55530
C          1.74690        3.22510        4.17460
C          6.05530        5.37160        4.89870
S          5.82790        7.06550        5.12990
C          5.37980        1.83240        4.08000
C          5.77720        0.59750        4.55070
C          6.76280        0.37110        5.62120
C          6.46280        0.81000        6.90610
C          7.31440        0.54940        7.96160
C          8.47810       -0.16480        7.73800
C          8.78830       -0.58890        6.45930
C          7.94810       -0.32990        5.38540
C          8.35730       -0.75180        4.00330
C          8.91740        0.43540        3.21810
C          5.02350       -0.43850        3.96680
S          4.96980       -2.16340        4.24790
C          3.67390       -2.28470        3.10410
C          2.79670       -3.25260        2.58530
C          2.58830       -4.61030        2.91580
C          1.45740       -5.30220        2.35740
N          1.34470       -6.53790        2.81850
S          2.55660       -6.81290        3.85620
N          3.27200       -5.36340        3.76280
C          0.66390       -4.64710        1.39050
C         -0.44200       -5.06400        0.62470
S         -1.50620       -6.42330        0.47510
C         -2.35620       -5.59140       -0.80330
C         -3.48970       -5.92740       -1.57440
C         -4.25240       -7.16720       -1.37340
C         -5.62570       -7.18940       -1.10670
C         -6.44410       -5.94300       -0.89260
C         -7.68590       -5.86490       -1.77970
C         -6.24070       -8.42530       -0.93330
C         -5.53530       -9.60950       -1.01970
C         -4.16730       -9.57690       -1.22620
C         -3.53390       -8.36140       -1.38160
C         -3.77570       -4.93490       -2.48650
S         -2.70270       -3.54780       -2.34960
C         -1.82210       -4.33680       -1.09340
C         -0.73280       -4.03140       -0.26870
N          0.13060       -2.98210       -0.07870
C          0.97540       -3.32960        0.96260
C          1.94570       -2.57850        1.66820
N          2.26270       -1.22870        1.67040
C          3.31010       -1.06020        2.53880
C          4.08050       -0.00200        3.03560
S          4.14710        1.70880        2.82920
C          1.43030       -0.09040        1.33190
C         -0.00060       -0.25110        1.83160
C          0.42240       -2.09330       -1.18170
C          1.00860       -2.86200       -2.36510
C         -4.76240       -4.95130       -3.52440
C         -4.97940       -5.95790       -4.45140
N         -4.18270       -7.07710       -4.61700
C         -4.79550       -8.28670       -4.98410
C         -6.02320       -8.63970       -4.43060
C         -6.63470       -9.82140       -4.79520
C         -6.04360      -10.68320       -5.71120
C         -6.72440      -11.95640       -6.11030
C         -4.82040      -10.32070       -6.26160
C         -4.20160       -9.13680       -5.91220
C         -2.79220       -6.97010       -4.49250
C         -2.13810       -5.77800       -4.79730
C         -0.77830       -5.65210       -4.59370
C         -0.02560       -6.70570       -4.09360
C          1.43650       -6.55100       -3.80550
C         -0.67230       -7.91290       -3.85470
C         -2.03070       -8.05190       -4.05470
C         -6.07630       -5.63730       -5.28590
S         -6.82110       -6.43190       -6.61570
C         -7.96030       -5.09100       -6.81620
C         -7.68720       -4.03290       -5.92090
N         -8.26330       -2.78800       -5.90620
C         -8.71340       -2.11370       -7.05140
C         -8.20280       -2.37680       -8.32080
C         -8.68840       -1.69760       -9.42000
C         -9.67340       -0.72440       -9.29200
C        -10.19580       -0.00620      -10.49590
C        -10.14210       -0.43080       -8.01710
C         -9.68100       -1.11720       -6.91270
C         -8.13770       -2.00760       -4.72390
C         -7.53740       -0.75500       -4.77850
C         -7.42960        0.01000       -3.63350
C         -7.91420       -0.45110       -2.41640
C         -7.80290        0.37240       -1.17160
C         -8.51190       -1.70600       -2.37420
C         -8.62520       -2.48130       -3.51040
C         -6.63990       -4.39120       -5.04260
S         -5.81840       -3.57090       -3.75640
C         -8.91620       -5.26900       -7.82030
C        -10.09380       -4.60050       -8.06350
C        -10.64220       -4.55430       -9.43520
O        -10.26740       -5.18040      -10.40250
C        -11.70450       -3.52220       -9.38900
C        -12.45940       -3.00150      -10.42080
C        -13.37520       -2.00060      -10.13260
C        -13.52030       -1.56310       -8.82440
Br       -14.75110       -0.15970       -8.46020
C        -12.78720       -2.09230       -7.76960
C        -11.86060       -3.07450       -8.06650
C        -10.92810       -3.80880       -7.21090
C        -10.99390       -3.90510       -5.83790
C        -11.78950       -3.07910       -5.02610
N        -12.38200       -2.39510       -4.31780
C        -10.30980       -4.89850       -5.11900
N         -9.79860       -5.72420       -4.50380
H          9.00230        8.48700        6.39730
H          4.17520       12.03020        4.41330
H          3.84140       14.10800        5.69040
H          8.92350        4.30120        7.38610
H          9.96710        2.14480        7.91200
H         11.57530        0.45560        7.48660
H         12.01430        0.27050        5.78300
H         13.10730        1.09950        6.88320
H         12.67190        2.65070        4.65230
H         11.62260        4.80900        4.11430
H         11.75320        6.64650        6.77500
H         13.31350        8.46430        6.21540
H         14.21380        9.95110        4.43560
H         12.88130       11.08060        4.65980
H         13.19240       10.40590        3.06130
H         11.01510        9.36100        2.73380
H          9.46240        7.54620        3.27980
H          1.68110        5.81390        5.25830
H          0.76260        7.85130        4.24550
H          1.25400        8.95380        1.11960
H          2.46670        9.95810        1.90340
H          0.91390        9.65670        2.70380
H          3.92570        7.86200        1.38470
H          4.83370        5.80960        2.37220
H          4.10390        2.94140        6.57220
H          2.67010        1.04500        7.20340
H          0.29560        0.10350        7.06860
H         -0.56880        0.24080        5.53160
H          0.89460       -0.74410        5.64860
H          0.02360        1.99070        3.99670
H          1.49360        3.83180        3.31810
H          5.53830        1.34080        7.07510
H          7.06330        0.89070        8.95520
H          9.13920       -0.39660        8.56090
H          9.69850       -1.14480        6.28730
H          7.50820       -1.17120        3.46260
H          9.12260       -1.52660        4.07780
H          9.29840        0.10560        2.25440
H          9.72420        0.91250        3.77120
H          8.14220        1.17790        3.04610
H         -5.83180       -5.05470       -1.04790
H         -6.76700       -5.93500        0.15380
H         -8.38070       -6.67120       -1.56310
H         -7.42420       -5.92440       -2.83230
H         -8.20020       -4.92220       -1.61040
H         -7.29740       -8.45620       -0.71290
H         -6.04600      -10.55300       -0.89760
H         -3.59550      -10.49220       -1.25520
H         -2.46440       -8.32180       -1.51960
H          1.44360        0.10890        0.25620
H          1.88420        0.77550        1.82110
H         -0.55440        0.66350        1.63780
H         -0.50700       -1.07350        1.33540
H          0.00160       -0.44110        2.90220
H          1.14370       -1.34970       -0.85770
H         -0.50630       -1.59780       -1.48200
H          1.23120       -2.17230       -3.17490
H          1.92770       -3.36340       -2.06860
H          0.30540       -3.60800       -2.72470
H         -6.48960       -7.99100       -3.70560
H         -7.58630      -10.08070       -4.35520
H         -7.48640      -11.75110       -6.86280
H         -7.21580      -12.41580       -5.25520
H         -6.01380      -12.66330       -6.53160
H         -4.34640      -10.97090       -6.98290
H         -3.25750       -8.86360       -6.36020
H         -2.69630       -4.94430       -5.19770
H         -0.29620       -4.71510       -4.83560
H          1.59430       -6.43970       -2.73170
H          1.98990       -7.42880       -4.13260
H          1.84170       -5.67310       -4.30310
H         -0.10250       -8.75690       -3.49290
H         -2.51490       -8.99640       -3.86060
H         -7.41810       -3.10660       -8.44770
H         -8.29190       -1.92810      -10.39770
H        -11.10580        0.53920      -10.25930
H        -10.40370       -0.71070      -11.29910
H         -9.45490        0.70550      -10.86050
H        -10.89050        0.33670       -7.88570
H        -10.07840       -0.89180       -5.93380
H         -7.15500       -0.38710       -5.71950
H         -6.95720        0.97980       -3.68960
H         -7.31750        1.32340       -1.37390
H         -7.22630       -0.16080       -0.41700
H         -8.79150        0.56600       -0.75800
H         -8.90050       -2.07870       -1.43810
H         -9.08860       -3.45400       -3.46050
H         -8.66120       -6.01440       -8.56820
H        -12.33010       -3.36590      -11.42800
H        -13.97240       -1.55930      -10.91560
H        -12.93110       -1.72530       -6.76600
