
  xtb     02082200083D
 energy: -350.605790478345 gnorm: 0.000859610652 xtb: 6.4.1 (unknown)
193213  0     0  0            999 V2000
   -1.1110   -6.0712   -1.0478 C   0  0  0  0  0  0  0  0  0  0  0  0
   -2.0762   -5.8496   -2.0199 C   0  0  0  0  0  0  0  0  0  0  0  0
   -1.9142   -5.0256   -3.2116 C   0  0  0  0  0  0  0  0  0  0  0  0
   -0.9021   -4.4754   -3.6120 O   0  0  0  0  0  0  0  0  0  0  0  0
   -3.2298   -5.0238   -3.8890 C   0  0  0  0  0  0  0  0  0  0  0  0
   -4.1091   -5.8657   -3.1853 C   0  0  0  0  0  0  0  0  0  0  0  0
   -5.4137   -6.0196   -3.6224 C   0  0  0  0  0  0  0  0  0  0  0  0
   -5.8252   -5.3195   -4.7487 C   0  0  0  0  0  0  0  0  0  0  0  0
   -4.9571   -4.4829   -5.4292 C   0  0  0  0  0  0  0  0  0  0  0  0
   -5.5818   -3.5427   -6.9406 Br  0  0  0  0  0  0  0  0  0  0  0  0
   -3.6315   -4.3243   -5.0131 C   0  0  0  0  0  0  0  0  0  0  0  0
   -2.5538   -3.2957   -5.8514 Cl  0  0  0  0  0  0  0  0  0  0  0  0
   -3.4038   -6.4002   -2.0166 C   0  0  0  0  0  0  0  0  0  0  0  0
   -3.9670   -7.2438   -1.0852 C   0  0  0  0  0  0  0  0  0  0  0  0
   -3.3727   -7.6510    0.1229 C   0  0  0  0  0  0  0  0  0  0  0  0
   -2.9868   -8.0010    1.1486 N   0  0  0  0  0  0  0  0  0  0  0  0
   -5.2533   -7.8049   -1.2025 C   0  0  0  0  0  0  0  0  0  0  0  0
   -6.2812   -8.3165   -1.2455 N   0  0  0  0  0  0  0  0  0  0  0  0
    0.1091   -5.4448   -0.8543 C   0  0  0  0  0  0  0  0  0  0  0  0
    0.8940   -5.6177    0.3303 C   0  0  0  0  0  0  0  0  0  0  0  0
    0.7907   -6.6768    1.1774 N   0  0  0  0  0  0  0  0  0  0  0  0
    1.2047   -6.5492    2.5206 C   0  0  0  0  0  0  0  0  0  0  0  0
    2.0511   -7.5001    3.0797 C   0  0  0  0  0  0  0  0  0  0  0  0
    2.4219   -7.3994    4.4055 C   0  0  0  0  0  0  0  0  0  0  0  0
    1.9646   -6.3563    5.2005 C   0  0  0  0  0  0  0  0  0  0  0  0
    2.3459   -6.2635    6.6445 C   0  0  0  0  0  0  0  0  0  0  0  0
    1.1332   -5.4011    4.6261 C   0  0  0  0  0  0  0  0  0  0  0  0
    0.7499   -5.4922    3.3030 C   0  0  0  0  0  0  0  0  0  0  0  0
    0.4406   -7.9684    0.7279 C   0  0  0  0  0  0  0  0  0  0  0  0
   -0.3048   -8.8048    1.5544 C   0  0  0  0  0  0  0  0  0  0  0  0
   -0.6366  -10.0753    1.1297 C   0  0  0  0  0  0  0  0  0  0  0  0
   -0.2445  -10.5411   -0.1200 C   0  0  0  0  0  0  0  0  0  0  0  0
   -0.6431  -11.9108   -0.5746 C   0  0  0  0  0  0  0  0  0  0  0  0
    0.5148   -9.7039   -0.9288 C   0  0  0  0  0  0  0  0  0  0  0  0
    0.8642   -8.4343   -0.5133 C   0  0  0  0  0  0  0  0  0  0  0  0
    1.7825   -4.5431    0.4913 C   0  0  0  0  0  0  0  0  0  0  0  0
    2.8439   -3.9828    1.7596 S   0  0  0  0  0  0  0  0  0  0  0  0
    3.2716   -2.5652    0.8065 C   0  0  0  0  0  0  0  0  0  0  0  0
    2.7285   -2.6289   -0.4801 C   0  0  0  0  0  0  0  0  0  0  0  0
    2.9735   -1.7065   -1.4892 N   0  0  0  0  0  0  0  0  0  0  0  0
    1.8574   -1.3063   -2.2543 C   0  0  0  0  0  0  0  0  0  0  0  0
    1.8584   -1.3686   -3.6423 C   0  0  0  0  0  0  0  0  0  0  0  0
    0.7332   -0.9921   -4.3502 C   0  0  0  0  0  0  0  0  0  0  0  0
   -0.4127   -0.5548   -3.6998 C   0  0  0  0  0  0  0  0  0  0  0  0
   -1.6368   -0.1484   -4.4586 C   0  0  0  0  0  0  0  0  0  0  0  0
   -0.4049   -0.5014   -2.3099 C   0  0  0  0  0  0  0  0  0  0  0  0
    0.7137   -0.8684   -1.5919 C   0  0  0  0  0  0  0  0  0  0  0  0
    4.2760   -1.4847   -1.9521 C   0  0  0  0  0  0  0  0  0  0  0  0
    4.5709   -0.3176   -2.6558 C   0  0  0  0  0  0  0  0  0  0  0  0
    5.8558   -0.0759   -3.0974 C   0  0  0  0  0  0  0  0  0  0  0  0
    6.8842   -0.9754   -2.8448 C   0  0  0  0  0  0  0  0  0  0  0  0
    8.2835   -0.7065   -3.3068 C   0  0  0  0  0  0  0  0  0  0  0  0
    6.5844   -2.1318   -2.1339 C   0  0  0  0  0  0  0  0  0  0  0  0
    5.3021   -2.3900   -1.6932 C   0  0  0  0  0  0  0  0  0  0  0  0
    1.8304   -3.7009   -0.6151 C   0  0  0  0  0  0  0  0  0  0  0  0
    0.7230   -4.1298   -1.8638 S   0  0  0  0  0  0  0  0  0  0  0  0
    3.8030   -1.3828    1.3770 C   0  0  0  0  0  0  0  0  0  0  0  0
    4.0856   -1.0822    2.7107 C   0  0  0  0  0  0  0  0  0  0  0  0
    4.3569   -2.0678    3.7518 C   0  0  0  0  0  0  0  0  0  0  0  0
    5.1337   -3.1947    3.4826 C   0  0  0  0  0  0  0  0  0  0  0  0
    5.4260   -4.0858    4.4953 C   0  0  0  0  0  0  0  0  0  0  0  0
    4.9688   -3.8588    5.7827 C   0  0  0  0  0  0  0  0  0  0  0  0
    4.2020   -2.7376    6.0739 C   0  0  0  0  0  0  0  0  0  0  0  0
    3.7218   -2.4549    7.4709 C   0  0  0  0  0  0  0  0  0  0  0  0
    2.1967   -2.4143    7.5690 C   0  0  0  0  0  0  0  0  0  0  0  0
    3.8994   -1.8555    5.0481 C   0  0  0  0  0  0  0  0  0  0  0  0
    4.0669    0.3109    2.9323 C   0  0  0  0  0  0  0  0  0  0  0  0
    4.1110    1.3203    4.3715 S   0  0  0  0  0  0  0  0  0  0  0  0
    3.7110    2.7105    3.4072 C   0  0  0  0  0  0  0  0  0  0  0  0
    3.1975    4.0119    3.5596 C   0  0  0  0  0  0  0  0  0  0  0  0
    2.7557    4.7380    4.6914 C   0  0  0  0  0  0  0  0  0  0  0  0
    1.8440    5.8413    4.5074 C   0  0  0  0  0  0  0  0  0  0  0  0
    1.4210    6.3391    5.6576 N   0  0  0  0  0  0  0  0  0  0  0  0
    2.1128    5.5141    6.8659 S   0  0  0  0  0  0  0  0  0  0  0  0
    2.9711    4.4745    5.9693 N   0  0  0  0  0  0  0  0  0  0  0  0
    1.5123    6.2557    3.1969 C   0  0  0  0  0  0  0  0  0  0  0  0
    0.5618    7.1514    2.6642 C   0  0  0  0  0  0  0  0  0  0  0  0
   -0.8247    8.0311    3.2089 S   0  0  0  0  0  0  0  0  0  0  0  0
   -1.3105    8.2688    1.5461 C   0  0  0  0  0  0  0  0  0  0  0  0
   -2.5166    8.6988    0.9494 C   0  0  0  0  0  0  0  0  0  0  0  0
   -3.6429    9.3145    1.6444 C   0  0  0  0  0  0  0  0  0  0  0  0
   -4.3849   10.3135    1.0147 C   0  0  0  0  0  0  0  0  0  0  0  0
   -5.4471   10.9027    1.6715 C   0  0  0  0  0  0  0  0  0  0  0  0
   -5.7810   10.5058    2.9547 C   0  0  0  0  0  0  0  0  0  0  0  0
   -5.0511    9.5146    3.5992 C   0  0  0  0  0  0  0  0  0  0  0  0
   -5.4416    9.0414    4.9691 C   0  0  0  0  0  0  0  0  0  0  0  0
   -6.4526    7.8979    4.8627 C   0  0  0  0  0  0  0  0  0  0  0  0
   -3.9854    8.9272    2.9359 C   0  0  0  0  0  0  0  0  0  0  0  0
   -2.4837    8.4985   -0.4194 C   0  0  0  0  0  0  0  0  0  0  0  0
   -0.9343    7.9016   -0.9875 S   0  0  0  0  0  0  0  0  0  0  0  0
   -0.3712    7.7723    0.6357 C   0  0  0  0  0  0  0  0  0  0  0  0
    0.6989    7.1320    1.2713 C   0  0  0  0  0  0  0  0  0  0  0  0
    1.7187    6.2753    0.9068 N   0  0  0  0  0  0  0  0  0  0  0  0
    2.1574    5.6718    2.0812 C   0  0  0  0  0  0  0  0  0  0  0  0
    2.8852    4.4754    2.2504 C   0  0  0  0  0  0  0  0  0  0  0  0
    3.1925    3.4898    1.3378 N   0  0  0  0  0  0  0  0  0  0  0  0
    3.6567    2.4156    2.0407 C   0  0  0  0  0  0  0  0  0  0  0  0
    3.8505    1.0591    1.7755 C   0  0  0  0  0  0  0  0  0  0  0  0
    3.6757    0.0681    0.3818 S   0  0  0  0  0  0  0  0  0  0  0  0
    2.7520    3.3339   -0.0289 C   0  0  0  0  0  0  0  0  0  0  0  0
    3.9166    3.3221   -1.0156 C   0  0  0  0  0  0  0  0  0  0  0  0
    2.6326    6.5757   -0.1856 C   0  0  0  0  0  0  0  0  0  0  0  0
    2.0144    6.4631   -1.5741 C   0  0  0  0  0  0  0  0  0  0  0  0
   -3.5724    8.3888   -1.3641 C   0  0  0  0  0  0  0  0  0  0  0  0
   -4.7484    7.6960   -1.0330 C   0  0  0  0  0  0  0  0  0  0  0  0
   -4.9667    7.3213    0.2331 F   0  0  0  0  0  0  0  0  0  0  0  0
   -5.6413    7.2894   -2.0052 C   0  0  0  0  0  0  0  0  0  0  0  0
   -6.7219    6.5873   -1.6459 F   0  0  0  0  0  0  0  0  0  0  0  0
   -5.4426    7.5851   -3.3585 C   0  0  0  0  0  0  0  0  0  0  0  0
   -4.3444    8.3882   -3.6733 C   0  0  0  0  0  0  0  0  0  0  0  0
   -4.1341    8.7267   -4.9528 F   0  0  0  0  0  0  0  0  0  0  0  0
   -3.4219    8.7529   -2.7091 C   0  0  0  0  0  0  0  0  0  0  0  0
   -2.3377    9.4549   -3.0763 F   0  0  0  0  0  0  0  0  0  0  0  0
   -6.2868    7.0178   -4.3967 C   0  0  0  0  0  0  0  0  0  0  0  0
   -6.5131    5.6875   -4.4881 C   0  0  0  0  0  0  0  0  0  0  0  0
   -5.7167    4.6683   -3.7389 C   0  0  0  0  0  0  0  0  0  0  0  0
   -4.8709    4.8663   -2.8989 O   0  0  0  0  0  0  0  0  0  0  0  0
   -6.0983    3.3700   -4.3283 C   0  0  0  0  0  0  0  0  0  0  0  0
   -7.0660    3.5634   -5.3336 C   0  0  0  0  0  0  0  0  0  0  0  0
   -7.5534    2.4739   -6.0418 C   0  0  0  0  0  0  0  0  0  0  0  0
   -7.0752    1.2095   -5.7320 C   0  0  0  0  0  0  0  0  0  0  0  0
   -6.1281    1.0235   -4.7353 C   0  0  0  0  0  0  0  0  0  0  0  0
   -5.5292   -0.7211   -4.3484 Br  0  0  0  0  0  0  0  0  0  0  0  0
   -5.6148    2.1081   -4.0159 C   0  0  0  0  0  0  0  0  0  0  0  0
   -4.4416    1.8871   -2.7926 Cl  0  0  0  0  0  0  0  0  0  0  0  0
   -7.3730    4.9860   -5.4290 C   0  0  0  0  0  0  0  0  0  0  0  0
   -8.3441    5.5516   -6.2086 C   0  0  0  0  0  0  0  0  0  0  0  0
   -9.1811    4.8272   -7.0847 C   0  0  0  0  0  0  0  0  0  0  0  0
   -9.8825    4.2927   -7.8186 N   0  0  0  0  0  0  0  0  0  0  0  0
   -8.6577    6.9287   -6.2184 C   0  0  0  0  0  0  0  0  0  0  0  0
   -8.9733    8.0309   -6.2634 N   0  0  0  0  0  0  0  0  0  0  0  0
   -1.3778   -6.7823   -0.2766 H   0  0  0  0  0  0  0  0  0  0  0  0
   -6.1140   -6.6587   -3.1115 H   0  0  0  0  0  0  0  0  0  0  0  0
   -6.8400   -5.4215   -5.1011 H   0  0  0  0  0  0  0  0  0  0  0  0
    2.4096   -8.3174    2.4717 H   0  0  0  0  0  0  0  0  0  0  0  0
    3.0759   -8.1472    4.8294 H   0  0  0  0  0  0  0  0  0  0  0  0
    2.9657   -5.3842    6.8090 H   0  0  0  0  0  0  0  0  0  0  0  0
    2.9017   -7.1437    6.9573 H   0  0  0  0  0  0  0  0  0  0  0  0
    1.4577   -6.1717    7.2682 H   0  0  0  0  0  0  0  0  0  0  0  0
    0.7677   -4.5813    5.2267 H   0  0  0  0  0  0  0  0  0  0  0  0
    0.0807   -4.7607    2.8747 H   0  0  0  0  0  0  0  0  0  0  0  0
   -0.6306   -8.4508    2.5195 H   0  0  0  0  0  0  0  0  0  0  0  0
   -1.2260  -10.7098    1.7738 H   0  0  0  0  0  0  0  0  0  0  0  0
   -0.1660  -12.1653   -1.5175 H   0  0  0  0  0  0  0  0  0  0  0  0
   -0.3693  -12.6559    0.1705 H   0  0  0  0  0  0  0  0  0  0  0  0
   -1.7234  -11.9592   -0.7089 H   0  0  0  0  0  0  0  0  0  0  0  0
    0.8465  -10.0512   -1.8967 H   0  0  0  0  0  0  0  0  0  0  0  0
    1.4639   -7.8012   -1.1504 H   0  0  0  0  0  0  0  0  0  0  0  0
    2.7350   -1.7263   -4.1614 H   0  0  0  0  0  0  0  0  0  0  0  0
    0.7434   -1.0557   -5.4284 H   0  0  0  0  0  0  0  0  0  0  0  0
   -1.4937   -0.2699   -5.5292 H   0  0  0  0  0  0  0  0  0  0  0  0
   -1.8809    0.8943   -4.2565 H   0  0  0  0  0  0  0  0  0  0  0  0
   -2.4871   -0.7543   -4.1496 H   0  0  0  0  0  0  0  0  0  0  0  0
   -1.2897   -0.1679   -1.7867 H   0  0  0  0  0  0  0  0  0  0  0  0
    0.7120   -0.8253   -0.5117 H   0  0  0  0  0  0  0  0  0  0  0  0
    3.7842    0.3959   -2.8484 H   0  0  0  0  0  0  0  0  0  0  0  0
    6.0641    0.8333   -3.6429 H   0  0  0  0  0  0  0  0  0  0  0  0
    8.8974   -0.3699   -2.4706 H   0  0  0  0  0  0  0  0  0  0  0  0
    8.2986    0.0650   -4.0725 H   0  0  0  0  0  0  0  0  0  0  0  0
    8.7365   -1.6106   -3.7087 H   0  0  0  0  0  0  0  0  0  0  0  0
    7.3676   -2.8474   -1.9291 H   0  0  0  0  0  0  0  0  0  0  0  0
    5.0906   -3.3025   -1.1553 H   0  0  0  0  0  0  0  0  0  0  0  0
    5.5319   -3.3474    2.4905 H   0  0  0  0  0  0  0  0  0  0  0  0
    6.0294   -4.9564    4.2857 H   0  0  0  0  0  0  0  0  0  0  0  0
    5.2322   -4.5502    6.5708 H   0  0  0  0  0  0  0  0  0  0  0  0
    4.1092   -3.2154    8.1522 H   0  0  0  0  0  0  0  0  0  0  0  0
    4.1198   -1.4876    7.7894 H   0  0  0  0  0  0  0  0  0  0  0  0
    1.7666   -3.3599    7.2483 H   0  0  0  0  0  0  0  0  0  0  0  0
    1.7903   -1.6239    6.9436 H   0  0  0  0  0  0  0  0  0  0  0  0
    1.8928   -2.2279    8.5964 H   0  0  0  0  0  0  0  0  0  0  0  0
    3.3006   -0.9834    5.2610 H   0  0  0  0  0  0  0  0  0  0  0  0
   -4.1132   10.6398    0.0211 H   0  0  0  0  0  0  0  0  0  0  0  0
   -6.0161   11.6790    1.1813 H   0  0  0  0  0  0  0  0  0  0  0  0
   -6.6134   10.9712    3.4623 H   0  0  0  0  0  0  0  0  0  0  0  0
   -5.8845    9.8640    5.5341 H   0  0  0  0  0  0  0  0  0  0  0  0
   -4.5573    8.6928    5.5057 H   0  0  0  0  0  0  0  0  0  0  0  0
   -6.0270    7.0697    4.3009 H   0  0  0  0  0  0  0  0  0  0  0  0
   -6.7310    7.5426    5.8520 H   0  0  0  0  0  0  0  0  0  0  0  0
   -7.3501    8.2326    4.3476 H   0  0  0  0  0  0  0  0  0  0  0  0
   -3.4283    8.1412    3.4226 H   0  0  0  0  0  0  0  0  0  0  0  0
    2.0392    4.1226   -0.2567 H   0  0  0  0  0  0  0  0  0  0  0  0
    2.2271    2.3743   -0.1031 H   0  0  0  0  0  0  0  0  0  0  0  0
    4.5136    4.2278   -0.9415 H   0  0  0  0  0  0  0  0  0  0  0  0
    4.5627    2.4693   -0.8229 H   0  0  0  0  0  0  0  0  0  0  0  0
    3.5327    3.2400   -2.0283 H   0  0  0  0  0  0  0  0  0  0  0  0
    3.4819    5.9003   -0.0854 H   0  0  0  0  0  0  0  0  0  0  0  0
    3.0107    7.5976   -0.0499 H   0  0  0  0  0  0  0  0  0  0  0  0
    1.4280    5.5549   -1.6828 H   0  0  0  0  0  0  0  0  0  0  0  0
    1.3672    7.3096   -1.7801 H   0  0  0  0  0  0  0  0  0  0  0  0
    2.8070    6.4542   -2.3175 H   0  0  0  0  0  0  0  0  0  0  0  0
   -6.6785    7.7040   -5.1356 H   0  0  0  0  0  0  0  0  0  0  0  0
   -8.2853    2.5878   -6.8238 H   0  0  0  0  0  0  0  0  0  0  0  0
   -7.4388    0.3498   -6.2741 H   0  0  0  0  0  0  0  0  0  0  0  0
  1  2  2  0  0  0  0
  2  3  1  0  0  0  0
  3  4  2  0  0  0  0
  3  5  1  0  0  0  0
  5  6  2  0  0  0  0
  6  7  1  0  0  0  0
  7  8  2  0  0  0  0
  8  9  1  0  0  0  0
  9 10  1  0  0  0  0
  9 11  2  0  0  0  0
 11 12  1  0  0  0  0
  6 13  1  0  0  0  0
 13 14  2  0  0  0  0
 14 15  1  0  0  0  0
 15 16  3  0  0  0  0
 14 17  1  0  0  0  0
 17 18  3  0  0  0  0
  1 19  1  0  0  0  0
 19 20  2  0  0  0  0
 20 21  1  0  0  0  0
 21 22  1  0  0  0  0
 22 23  2  0  0  0  0
 23 24  1  0  0  0  0
 24 25  2  0  0  0  0
 25 26  1  0  0  0  0
 25 27  1  0  0  0  0
 27 28  2  0  0  0  0
 21 29  1  0  0  0  0
 29 30  2  0  0  0  0
 30 31  1  0  0  0  0
 31 32  2  0  0  0  0
 32 33  1  0  0  0  0
 32 34  1  0  0  0  0
 34 35  2  0  0  0  0
 20 36  1  0  0  0  0
 36 37  1  0  0  0  0
 37 38  1  0  0  0  0
 38 39  2  0  0  0  0
 39 40  1  0  0  0  0
 40 41  1  0  0  0  0
 41 42  2  0  0  0  0
 42 43  1  0  0  0  0
 43 44  2  0  0  0  0
 44 45  1  0  0  0  0
 44 46  1  0  0  0  0
 46 47  2  0  0  0  0
 40 48  1  0  0  0  0
 48 49  2  0  0  0  0
 49 50  1  0  0  0  0
 50 51  2  0  0  0  0
 51 52  1  0  0  0  0
 51 53  1  0  0  0  0
 53 54  2  0  0  0  0
 39 55  1  0  0  0  0
 55 56  1  0  0  0  0
 38 57  1  0  0  0  0
 57 58  2  0  0  0  0
 58 59  1  0  0  0  0
 59 60  2  0  0  0  0
 60 61  1  0  0  0  0
 61 62  2  0  0  0  0
 62 63  1  0  0  0  0
 63 64  1  0  0  0  0
 64 65  1  0  0  0  0
 63 66  2  0  0  0  0
 58 67  1  0  0  0  0
 67 68  1  0  0  0  0
 68 69  1  0  0  0  0
 69 70  1  0  0  0  0
 70 71  1  0  0  0  0
 71 72  1  0  0  0  0
 72 73  2  0  0  0  0
 73 74  1  0  0  0  0
 74 75  1  0  0  0  0
 72 76  1  0  0  0  0
 76 77  1  0  0  0  0
 77 78  1  0  0  0  0
 78 79  1  0  0  0  0
 79 80  1  0  0  0  0
 80 81  1  0  0  0  0
 81 82  2  0  0  0  0
 82 83  1  0  0  0  0
 83 84  2  0  0  0  0
 84 85  1  0  0  0  0
 85 86  1  0  0  0  0
 86 87  1  0  0  0  0
 85 88  2  0  0  0  0
 80 89  2  0  0  0  0
 89 90  1  0  0  0  0
 90 91  1  0  0  0  0
 91 92  1  0  0  0  0
 92 93  1  0  0  0  0
 93 94  1  0  0  0  0
 94 95  1  0  0  0  0
 95 96  1  0  0  0  0
 96 97  1  0  0  0  0
 97 98  1  0  0  0  0
 98 99  1  0  0  0  0
 96100  1  0  0  0  0
100101  1  0  0  0  0
 93102  1  0  0  0  0
102103  1  0  0  0  0
 89104  1  0  0  0  0
104105  2  0  0  0  0
105106  1  0  0  0  0
105107  1  0  0  0  0
107108  1  0  0  0  0
107109  2  0  0  0  0
109110  1  0  0  0  0
110111  1  0  0  0  0
110112  2  0  0  0  0
112113  1  0  0  0  0
109114  1  0  0  0  0
114115  2  0  0  0  0
115116  1  0  0  0  0
116117  2  0  0  0  0
116118  1  0  0  0  0
118119  2  0  0  0  0
119120  1  0  0  0  0
120121  2  0  0  0  0
121122  1  0  0  0  0
122123  1  0  0  0  0
122124  2  0  0  0  0
124125  1  0  0  0  0
119126  1  0  0  0  0
126127  2  0  0  0  0
127128  1  0  0  0  0
128129  3  0  0  0  0
127130  1  0  0  0  0
130131  3  0  0  0  0
 13  2  1  0  0  0  0
 56 19  1  0  0  0  0
 99 57  1  0  0  0  0
112104  1  0  0  0  0
126115  1  0  0  0  0
 11  5  1  0  0  0  0
 28 22  1  0  0  0  0
 35 29  1  0  0  0  0
 55 36  2  0  0  0  0
 66 59  1  0  0  0  0
 98 67  2  0  0  0  0
124118  1  0  0  0  0
 47 41  1  0  0  0  0
 54 48  1  0  0  0  0
 97 69  2  0  0  0  0
 95 70  2  0  0  0  0
 75 71  2  0  0  0  0
 94 76  2  0  0  0  0
 92 77  2  0  0  0  0
 91 79  2  0  0  0  0
 88 81  1  0  0  0  0
  1132  1  0  0  0  0
  7133  1  0  0  0  0
  8134  1  0  0  0  0
 23135  1  0  0  0  0
 24136  1  0  0  0  0
 26137  1  0  0  0  0
 26138  1  0  0  0  0
 26139  1  0  0  0  0
 27140  1  0  0  0  0
 28141  1  0  0  0  0
 30142  1  0  0  0  0
 31143  1  0  0  0  0
 33144  1  0  0  0  0
 33145  1  0  0  0  0
 33146  1  0  0  0  0
 34147  1  0  0  0  0
 35148  1  0  0  0  0
 42149  1  0  0  0  0
 43150  1  0  0  0  0
 45151  1  0  0  0  0
 45152  1  0  0  0  0
 45153  1  0  0  0  0
 46154  1  0  0  0  0
 47155  1  0  0  0  0
 49156  1  0  0  0  0
 50157  1  0  0  0  0
 52158  1  0  0  0  0
 52159  1  0  0  0  0
 52160  1  0  0  0  0
 53161  1  0  0  0  0
 54162  1  0  0  0  0
 60163  1  0  0  0  0
 61164  1  0  0  0  0
 62165  1  0  0  0  0
 64166  1  0  0  0  0
 64167  1  0  0  0  0
 65168  1  0  0  0  0
 65169  1  0  0  0  0
 65170  1  0  0  0  0
 66171  1  0  0  0  0
 82172  1  0  0  0  0
 83173  1  0  0  0  0
 84174  1  0  0  0  0
 86175  1  0  0  0  0
 86176  1  0  0  0  0
 87177  1  0  0  0  0
 87178  1  0  0  0  0
 87179  1  0  0  0  0
 88180  1  0  0  0  0
100181  1  0  0  0  0
100182  1  0  0  0  0
101183  1  0  0  0  0
101184  1  0  0  0  0
101185  1  0  0  0  0
102186  1  0  0  0  0
102187  1  0  0  0  0
103188  1  0  0  0  0
103189  1  0  0  0  0
103190  1  0  0  0  0
114191  1  0  0  0  0
120192  1  0  0  0  0
121193  1  0  0  0  0
M  END
