212

C          6.47540        8.09410        0.34830
C          6.17950        9.44180        0.22850
C          4.82180        9.97910        0.35040
O          3.79720        9.36160        0.57000
C          4.93660       11.41890        0.00930
C          6.27150       11.71520       -0.31590
C          6.62710       13.00020       -0.68480
C          5.64410       13.98060       -0.70810
C          4.33400       13.68780       -0.36710
Br         3.04520       15.07300       -0.38560
C          3.95440       12.39110       -0.00470
Cl         2.33800       12.02600        0.43580
C          7.06620       10.49690       -0.15480
C          8.43920       10.42790       -0.19330
C          9.17320        9.26550        0.11240
N          9.82960        8.36210        0.38210
C          9.27710       11.52590       -0.45540
N         10.00880       12.39260       -0.64070
C          5.73860        7.15960        1.06830
C          4.82800        7.30690        2.14430
N          4.62760        8.42670        2.89100
C          5.57250        9.45870        2.99200
C          5.14650       10.78530        3.00620
C          6.07050       11.81260        3.06060
C          7.43280       11.55040        3.10820
C          8.43990       12.65630        3.11240
C          7.84660       10.22000        3.14500
C          6.93650        9.18630        3.08960
C          3.42620        8.57430        3.62260
C          2.19460        8.35630        3.01280
C          1.03350        8.50000        3.74430
C          1.06990        8.86620        5.08640
C         -0.20120        9.00120        5.86630
C          2.30460        9.10660        5.67460
C          3.47600        8.96440        4.95530
C          4.20760        6.06930        2.42940
S          3.01740        5.55890        3.58010
C          3.10340        3.91550        2.98510
C          4.06630        3.76170        1.99520
N          4.41470        2.55230        1.42080
C          4.41370        1.37790        2.19270
C          4.87330        1.39130        3.50540
C          4.81460        0.24530        4.27440
C          4.28230       -0.93330        3.76920
C          4.14730       -2.15340        4.62710
C          3.85070       -0.94560        2.44700
C          3.92150        0.18670        1.66230
C          4.75170        2.50510        0.06050
C          4.09370        3.31600       -0.85980
C          4.44290        3.27480       -2.19560
C          5.43890        2.42130       -2.65070
C          5.83010        2.38810       -4.09620
C          6.08210        1.60570       -1.72550
C          5.75190        1.64540       -0.38680
C          4.67800        4.99680        1.68270
S          5.92200        5.46290        0.58600
C          2.19870        2.86440        3.36630
C          1.97590        2.22180        4.56530
C          2.46450        2.66020        5.87200
C          3.01130        1.73920        6.76170
C          3.46520        2.16000        7.99690
C          3.37890        3.49330        8.35750
C          2.81270        4.42190        7.49300
C          2.75720        5.87630        7.86110
C          4.08500        6.55080        7.51240
C          2.34950        3.99100        6.26000
C          1.22350        1.03870        4.37310
S          0.73310       -0.24850        5.44830
C          0.00280       -1.07240        4.11020
C         -0.71210       -2.25520        3.83540
C         -1.24850       -3.27910        4.64910
C         -2.09250       -4.28540        4.05360
N         -2.58040       -5.12650        4.95140
S         -2.02370       -4.70540        6.41160
N         -1.13960       -3.42730        5.95980
C         -2.25350       -4.31180        2.64940
C         -2.89970       -5.19490        1.76290
S         -3.92360       -6.59050        1.80920
C         -3.95590       -6.60210        0.06110
C         -4.58470       -7.44150       -0.87760
C         -5.31200       -8.65450       -0.49820
C         -5.01290       -9.87350       -1.10370
C         -5.67320      -11.01860       -0.70300
C         -6.62920      -10.96080        0.29720
C         -6.92800       -9.75640        0.92110
C         -7.98710       -9.68090        1.98260
C         -9.34810       -9.36800        1.35710
C         -6.26040       -8.60940        0.51700
C         -4.33790       -7.01280       -2.17370
S         -3.27480       -5.61230       -2.23070
C         -3.19660       -5.57600       -0.50760
C         -2.58900       -4.77610        0.46430
N         -1.78130       -3.66530        0.50280
C         -1.60100       -3.34980        1.83740
C         -0.96820       -2.24360        2.44060
N         -0.47790       -1.07460        1.88770
C          0.12110       -0.37540        2.90510
C          0.82450        0.82420        3.05680
S          1.38180        2.07590        2.01510
C         -1.01620       -0.37290        0.73940
C         -1.99720        0.71880        1.16640
C         -0.83690       -3.41070       -0.56820
C          0.05950       -4.62310       -0.81890
C         -4.88010       -7.49380       -3.39460
C         -5.98660       -8.29690       -3.59790
C         -6.26460       -8.53710       -4.94290
C         -7.37810       -9.37520       -5.42110
C         -8.55940       -8.78530       -5.87140
C         -9.58270       -9.60070       -6.33030
C         -9.45350      -10.98160       -6.35060
C        -10.55690      -11.84480       -6.88200
C         -8.27390      -11.54670       -5.88640
C         -7.23070      -10.76400       -5.41770
C         -5.97020      -11.38850       -4.90350
C         -8.72360       -7.29390       -5.86210
C         -5.35010       -7.93900       -5.80680
S         -4.16610       -7.02310       -4.90570
C         -5.41800       -7.95280       -7.21370
C         -4.47920       -7.57240       -8.12510
C         -4.89540       -7.13580       -9.48970
O         -5.98300       -7.28730      -10.00150
C         -3.71950       -6.43650      -10.02410
C         -2.67390       -6.54890       -9.12790
S         -1.22050       -5.79520       -9.65620
C         -2.02890       -5.28170      -11.12750
C         -1.45930       -4.54830      -12.15580
C         -2.24180       -4.23830      -13.25040
C         -3.57270       -4.65300      -13.32570
C         -4.14590       -5.38260      -12.30950
C         -3.37630       -5.70640      -11.19020
C         -3.05280       -7.35590       -7.99490
C         -2.17790       -8.00380       -7.15730
C         -0.79720       -7.73080       -7.17350
N          0.32730       -7.50000       -7.16010
C         -2.56790       -9.05470       -6.30650
N         -2.85120       -9.95980       -5.65850
H          7.32200        7.70270       -0.20270
H          7.63840       13.25480       -0.95510
H          5.89910       14.99010       -0.99130
H          4.09010       11.00430        2.96400
H          5.72290       12.83550        3.05200
H          9.17600       12.50170        3.89900
H          7.96040       13.62020        3.26110
H          8.97490       12.68270        2.16250
H          8.90060        9.99290        3.21090
H          7.28130        8.16360        3.11770
H          2.16450        8.10550        1.96410
H          0.07960        8.33270        3.26600
H         -0.86000        9.73000        5.39620
H         -0.00230        9.31920        6.88640
H         -0.72930        8.04870        5.89530
H          2.35290        9.40690        6.71110
H          4.43240        9.15130        5.42170
H          5.27210        2.30360        3.92450
H          5.18890        0.27440        5.28710
H          4.79100       -2.08800        5.50070
H          4.40120       -3.05150        4.06780
H          3.11680       -2.25490        4.97080
H          3.44130       -1.85510        2.03060
H          3.57620        0.16590        0.63880
H          3.30170        3.97080       -0.52600
H          3.92470        3.91310       -2.89660
H          6.73180        2.98130       -4.25150
H          6.04170        1.37010       -4.41650
H          5.04220        2.79910       -4.72270
H          6.86100        0.93540       -2.05920
H          6.26690        1.01410        0.32220
H          3.08550        0.70120        6.47880
H          3.89020        1.44280        8.68360
H          3.74140        3.81530        9.32330
H          2.56750        5.98200        8.93120
H          1.95160        6.37020        7.31460
H          4.25990        6.49650        6.44020
H          4.90770        6.05540        8.02320
H          4.07140        7.59640        7.80930
H          1.86300        4.69600        5.60200
H         -4.25760       -9.91790       -1.87440
H         -5.43680      -11.96430       -1.16840
H         -7.14160      -11.86130        0.60340
H         -8.04550      -10.63210        2.51480
H         -7.73240       -8.90050        2.70220
H         -9.62370      -10.14080        0.64270
H        -10.11610       -9.31500        2.12500
H         -9.31440       -8.41510        0.83340
H         -6.48670       -7.66490        0.99050
H         -1.54740       -1.07990        0.10560
H         -0.18630        0.07210        0.18090
H         -2.42470        1.18700        0.28430
H         -2.80150        0.28850        1.75950
H         -1.49900        1.48340        1.75550
H         -1.39420       -3.16740       -1.47880
H         -0.20430       -2.56970       -0.28980
H         -0.51970       -5.47590       -1.16090
H          0.79380       -4.37940       -1.58160
H          0.58130       -4.89910        0.09510
H         -6.59160       -8.67580       -2.79470
H        -10.49950       -9.14750       -6.68010
H        -10.56180      -12.81520       -6.39120
H        -11.52500      -11.37030       -6.73940
H        -10.41600      -12.00860       -7.95090
H         -8.16430      -12.62200       -5.89070
H         -5.88470      -11.22830       -3.82860
H         -5.96620      -12.45850       -5.09440
H         -5.09130      -10.94640       -5.37110
H         -9.77660       -7.02620       -5.89970
H         -8.23210       -6.84930       -6.72810
H         -8.28100       -6.85910       -4.96750
H         -6.38530       -8.22130       -7.62750
H         -0.42970       -4.23150      -12.09660
H         -1.81660       -3.66710      -14.06170
H         -4.15680       -4.39540      -14.19620
H         -5.17250       -5.71100      -12.35270
