
  xtb     02052215563D
 energy: -313.617833544566 gnorm: 0.000269422679 xtb: 6.4.1 (unknown)
163182  0     0  0            999 V2000
    9.9153    5.3417    1.2657 C   0  0  0  0  0  0  0  0  0  0  0  0
   10.3045    6.6427    1.1501 C   0  0  0  0  0  0  0  0  0  0  0  0
    9.4754    7.7158    0.5496 C   0  0  0  0  0  0  0  0  0  0  0  0
    8.3358    7.6388    0.1515 O   0  0  0  0  0  0  0  0  0  0  0  0
   10.2781    8.9529    0.6928 C   0  0  0  0  0  0  0  0  0  0  0  0
   11.4567    8.6730    1.4083 C   0  0  0  0  0  0  0  0  0  0  0  0
   12.3550    9.6908    1.6895 C   0  0  0  0  0  0  0  0  0  0  0  0
   12.0666   10.9729    1.2465 C   0  0  0  0  0  0  0  0  0  0  0  0
   10.9062   11.2433    0.5371 C   0  0  0  0  0  0  0  0  0  0  0  0
   10.5758   13.0087   -0.0476 Br  0  0  0  0  0  0  0  0  0  0  0  0
    9.9827   10.2320    0.2511 C   0  0  0  0  0  0  0  0  0  0  0  0
    8.5491   10.5594   -0.6245 Cl  0  0  0  0  0  0  0  0  0  0  0  0
   11.4918    7.2454    1.7187 C   0  0  0  0  0  0  0  0  0  0  0  0
   12.5053    6.6003    2.3783 C   0  0  0  0  0  0  0  0  0  0  0  0
   12.5654    5.2112    2.6207 C   0  0  0  0  0  0  0  0  0  0  0  0
   12.7022    4.0938    2.8467 N   0  0  0  0  0  0  0  0  0  0  0  0
   13.6449    7.2423    2.9071 C   0  0  0  0  0  0  0  0  0  0  0  0
   14.5909    7.7033    3.3658 N   0  0  0  0  0  0  0  0  0  0  0  0
    8.8684    4.7166    0.5293 C   0  0  0  0  0  0  0  0  0  0  0  0
    8.5588    5.0308   -0.8178 C   0  0  0  0  0  0  0  0  0  0  0  0
    7.4814    4.3732   -1.5129 C   0  0  0  0  0  0  0  0  0  0  0  0
    7.3324    4.8460   -2.7518 N   0  0  0  0  0  0  0  0  0  0  0  0
    8.4625    5.9424   -3.0306 S   0  0  0  0  0  0  0  0  0  0  0  0
    9.1953    5.8971   -1.6027 N   0  0  0  0  0  0  0  0  0  0  0  0
    6.7090    3.3522   -0.9098 C   0  0  0  0  0  0  0  0  0  0  0  0
    7.0538    3.0141    0.4091 C   0  0  0  0  0  0  0  0  0  0  0  0
    6.4954    1.9903    1.2225 C   0  0  0  0  0  0  0  0  0  0  0  0
    7.0740    1.9025    2.4484 C   0  0  0  0  0  0  0  0  0  0  0  0
    6.7226    0.9480    3.5042 C   0  0  0  0  0  0  0  0  0  0  0  0
    5.8448    0.1256    3.4022 O   0  0  0  0  0  0  0  0  0  0  0  0
    7.5062    1.1075    4.5734 O   0  0  0  0  0  0  0  0  0  0  0  0
    7.2702    0.2486    5.6890 C   0  0  0  0  0  0  0  0  0  0  0  0
    6.1351    0.7681    6.5592 C   0  0  0  0  0  0  0  0  0  0  0  0
    8.3412    3.0718    2.6937 S   0  0  0  0  0  0  0  0  0  0  0  0
    8.1167    3.6778    1.0825 C   0  0  0  0  0  0  0  0  0  0  0  0
    5.6428    2.7192   -1.6309 C   0  0  0  0  0  0  0  0  0  0  0  0
    5.6191    2.3377   -2.9633 C   0  0  0  0  0  0  0  0  0  0  0  0
    6.7704    2.3937   -3.8616 C   0  0  0  0  0  0  0  0  0  0  0  0
    6.6038    2.7955   -5.1833 C   0  0  0  0  0  0  0  0  0  0  0  0
    7.6994    2.8756   -6.0214 C   0  0  0  0  0  0  0  0  0  0  0  0
    8.9619    2.5564   -5.5545 C   0  0  0  0  0  0  0  0  0  0  0  0
    9.1441    2.1341   -4.2426 C   0  0  0  0  0  0  0  0  0  0  0  0
   10.5057    1.7429   -3.7438 C   0  0  0  0  0  0  0  0  0  0  0  0
   10.7609    0.2550   -3.9918 C   0  0  0  0  0  0  0  0  0  0  0  0
    8.0400    2.0429   -3.4111 C   0  0  0  0  0  0  0  0  0  0  0  0
    4.3698    1.7933   -3.3167 C   0  0  0  0  0  0  0  0  0  0  0  0
    3.7630    1.0613   -4.7847 S   0  0  0  0  0  0  0  0  0  0  0  0
    2.2738    0.7135   -3.9715 C   0  0  0  0  0  0  0  0  0  0  0  0
    1.0614    0.0460   -4.2024 C   0  0  0  0  0  0  0  0  0  0  0  0
    0.6232   -0.7306   -5.2981 C   0  0  0  0  0  0  0  0  0  0  0  0
   -0.5891   -1.4874   -5.1709 C   0  0  0  0  0  0  0  0  0  0  0  0
   -0.8377   -2.2265   -6.2406 N   0  0  0  0  0  0  0  0  0  0  0  0
    0.3457   -1.9850   -7.3182 S   0  0  0  0  0  0  0  0  0  0  0  0
    1.2252   -0.9315   -6.4597 N   0  0  0  0  0  0  0  0  0  0  0  0
   -1.3705   -1.3375   -4.0039 C   0  0  0  0  0  0  0  0  0  0  0  0
   -2.6082   -1.8895   -3.6384 C   0  0  0  0  0  0  0  0  0  0  0  0
   -3.7478   -3.0646   -4.2040 S   0  0  0  0  0  0  0  0  0  0  0  0
   -4.7234   -2.7700   -2.7842 C   0  0  0  0  0  0  0  0  0  0  0  0
   -5.9221   -3.3344   -2.3086 C   0  0  0  0  0  0  0  0  0  0  0  0
   -6.7091   -4.3441   -3.0133 C   0  0  0  0  0  0  0  0  0  0  0  0
   -8.0927   -4.2196   -3.1112 C   0  0  0  0  0  0  0  0  0  0  0  0
   -8.8279   -5.1980   -3.7514 C   0  0  0  0  0  0  0  0  0  0  0  0
   -8.1956   -6.3059   -4.2887 C   0  0  0  0  0  0  0  0  0  0  0  0
   -6.8148   -6.4376   -4.2116 C   0  0  0  0  0  0  0  0  0  0  0  0
   -6.1307   -7.6697   -4.7285 C   0  0  0  0  0  0  0  0  0  0  0  0
   -6.0551   -8.7245   -3.6222 C   0  0  0  0  0  0  0  0  0  0  0  0
   -6.0800   -5.4446   -3.5831 C   0  0  0  0  0  0  0  0  0  0  0  0
   -6.2998   -2.7671   -1.1051 C   0  0  0  0  0  0  0  0  0  0  0  0
   -5.2015   -1.5063   -0.5729 S   0  0  0  0  0  0  0  0  0  0  0  0
   -4.1943   -1.7829   -1.9474 C   0  0  0  0  0  0  0  0  0  0  0  0
   -2.9747   -1.2943   -2.4277 C   0  0  0  0  0  0  0  0  0  0  0  0
   -2.0051   -0.4221   -2.0153 N   0  0  0  0  0  0  0  0  0  0  0  0
   -0.9882   -0.4508   -2.9562 C   0  0  0  0  0  0  0  0  0  0  0  0
    0.2972    0.1480   -3.0039 C   0  0  0  0  0  0  0  0  0  0  0  0
    1.0469    0.8383   -2.0669 N   0  0  0  0  0  0  0  0  0  0  0  0
    2.2426    1.1603   -2.6467 C   0  0  0  0  0  0  0  0  0  0  0  0
    3.4453    1.7649   -2.2680 C   0  0  0  0  0  0  0  0  0  0  0  0
    4.1166    2.4135   -0.8180 S   0  0  0  0  0  0  0  0  0  0  0  0
    0.9065    0.9120   -0.6298 C   0  0  0  0  0  0  0  0  0  0  0  0
    0.9054   -0.4743    0.0086 C   0  0  0  0  0  0  0  0  0  0  0  0
   -2.3224    0.5767   -1.0178 C   0  0  0  0  0  0  0  0  0  0  0  0
   -2.3507    1.9797   -1.6174 C   0  0  0  0  0  0  0  0  0  0  0  0
   -7.3567   -3.1888   -0.2292 C   0  0  0  0  0  0  0  0  0  0  0  0
   -7.6044   -4.5674   -0.0132 C   0  0  0  0  0  0  0  0  0  0  0  0
   -8.5810   -5.0189    0.9440 C   0  0  0  0  0  0  0  0  0  0  0  0
   -8.6769   -6.3488    0.9577 N   0  0  0  0  0  0  0  0  0  0  0  0
   -7.6043   -6.9588   -0.0662 S   0  0  0  0  0  0  0  0  0  0  0  0
   -6.9826   -5.5863   -0.6057 N   0  0  0  0  0  0  0  0  0  0  0  0
   -9.3303   -4.1101    1.7271 C   0  0  0  0  0  0  0  0  0  0  0  0
   -9.1408   -2.7470    1.4386 C   0  0  0  0  0  0  0  0  0  0  0  0
   -9.8001   -1.6414    2.0347 C   0  0  0  0  0  0  0  0  0  0  0  0
   -9.3642   -0.4409    1.5646 C   0  0  0  0  0  0  0  0  0  0  0  0
   -9.8681    0.8806    1.9583 C   0  0  0  0  0  0  0  0  0  0  0  0
  -10.7078    1.0572    2.8049 O   0  0  0  0  0  0  0  0  0  0  0  0
   -9.2835    1.8469    1.2433 O   0  0  0  0  0  0  0  0  0  0  0  0
   -9.6830    3.1896    1.5211 C   0  0  0  0  0  0  0  0  0  0  0  0
   -8.9342    3.7566    2.7182 C   0  0  0  0  0  0  0  0  0  0  0  0
   -8.0969   -0.5801    0.3875 S   0  0  0  0  0  0  0  0  0  0  0  0
   -8.1534   -2.3199    0.5075 C   0  0  0  0  0  0  0  0  0  0  0  0
  -10.2374   -4.5576    2.7335 C   0  0  0  0  0  0  0  0  0  0  0  0
  -10.0057   -5.6250    3.5498 C   0  0  0  0  0  0  0  0  0  0  0  0
   -8.6616   -6.2102    3.7852 C   0  0  0  0  0  0  0  0  0  0  0  0
   -7.5966   -5.8230    3.3609 O   0  0  0  0  0  0  0  0  0  0  0  0
   -8.8724   -7.2806    4.7855 C   0  0  0  0  0  0  0  0  0  0  0  0
  -10.2194   -7.2924    5.1912 C   0  0  0  0  0  0  0  0  0  0  0  0
  -10.6449   -8.1975    6.1513 C   0  0  0  0  0  0  0  0  0  0  0  0
   -9.7206   -9.0822    6.6867 C   0  0  0  0  0  0  0  0  0  0  0  0
   -8.3952   -9.0710    6.2791 C   0  0  0  0  0  0  0  0  0  0  0  0
   -7.1876  -10.3084    7.0395 Br  0  0  0  0  0  0  0  0  0  0  0  0
   -7.9438   -8.1598    5.3184 C   0  0  0  0  0  0  0  0  0  0  0  0
   -6.3097   -8.1403    4.8104 Cl  0  0  0  0  0  0  0  0  0  0  0  0
  -10.9452   -6.2663    4.4451 C   0  0  0  0  0  0  0  0  0  0  0  0
  -12.2883   -6.0123    4.5440 C   0  0  0  0  0  0  0  0  0  0  0  0
  -13.1612   -6.6817    5.4272 C   0  0  0  0  0  0  0  0  0  0  0  0
  -13.9202   -7.1852    6.1258 N   0  0  0  0  0  0  0  0  0  0  0  0
  -12.9890   -5.0558    3.7788 C   0  0  0  0  0  0  0  0  0  0  0  0
  -13.6300   -4.3078    3.1890 N   0  0  0  0  0  0  0  0  0  0  0  0
   10.4105    4.7037    1.9885 H   0  0  0  0  0  0  0  0  0  0  0  0
   13.2630    9.5118    2.2404 H   0  0  0  0  0  0  0  0  0  0  0  0
   12.7535   11.7791    1.4533 H   0  0  0  0  0  0  0  0  0  0  0  0
    5.7069    1.3254    0.9226 H   0  0  0  0  0  0  0  0  0  0  0  0
    7.0350   -0.7545    5.3180 H   0  0  0  0  0  0  0  0  0  0  0  0
    8.2142    0.2341    6.2367 H   0  0  0  0  0  0  0  0  0  0  0  0
    6.0237    0.1288    7.4301 H   0  0  0  0  0  0  0  0  0  0  0  0
    5.2039    0.7635    5.9977 H   0  0  0  0  0  0  0  0  0  0  0  0
    6.3469    1.7830    6.8872 H   0  0  0  0  0  0  0  0  0  0  0  0
    5.6235    3.0693   -5.5411 H   0  0  0  0  0  0  0  0  0  0  0  0
    7.5687    3.1964   -7.0442 H   0  0  0  0  0  0  0  0  0  0  0  0
    9.8160    2.6330   -6.2117 H   0  0  0  0  0  0  0  0  0  0  0  0
   11.2694    2.3296   -4.2584 H   0  0  0  0  0  0  0  0  0  0  0  0
   10.5818    1.9485   -2.6735 H   0  0  0  0  0  0  0  0  0  0  0  0
   11.7475   -0.0263   -3.6318 H   0  0  0  0  0  0  0  0  0  0  0  0
   10.0171   -0.3476   -3.4754 H   0  0  0  0  0  0  0  0  0  0  0  0
   10.7016    0.0337   -5.0550 H   0  0  0  0  0  0  0  0  0  0  0  0
    8.1673    1.6966   -2.3943 H   0  0  0  0  0  0  0  0  0  0  0  0
   -8.5849   -3.3536   -2.6921 H   0  0  0  0  0  0  0  0  0  0  0  0
   -9.9010   -5.0992   -3.8279 H   0  0  0  0  0  0  0  0  0  0  0  0
   -8.7788   -7.0740   -4.7758 H   0  0  0  0  0  0  0  0  0  0  0  0
   -6.6820   -8.0755   -5.5786 H   0  0  0  0  0  0  0  0  0  0  0  0
   -5.1212   -7.4215   -5.0604 H   0  0  0  0  0  0  0  0  0  0  0  0
   -5.5456   -9.6160   -3.9800 H   0  0  0  0  0  0  0  0  0  0  0  0
   -5.5130   -8.3323   -2.7646 H   0  0  0  0  0  0  0  0  0  0  0  0
   -7.0548   -9.0030   -3.2955 H   0  0  0  0  0  0  0  0  0  0  0  0
   -5.0076   -5.5420   -3.5044 H   0  0  0  0  0  0  0  0  0  0  0  0
    0.0162    1.4808   -0.3613 H   0  0  0  0  0  0  0  0  0  0  0  0
    1.7681    1.4745   -0.2622 H   0  0  0  0  0  0  0  0  0  0  0  0
    0.0945   -1.0873   -0.3771 H   0  0  0  0  0  0  0  0  0  0  0  0
    0.7986   -0.3846    1.0861 H   0  0  0  0  0  0  0  0  0  0  0  0
    1.8443   -0.9804   -0.2028 H   0  0  0  0  0  0  0  0  0  0  0  0
   -3.3166    0.3282   -0.6382 H   0  0  0  0  0  0  0  0  0  0  0  0
   -1.6347    0.5135   -0.1734 H   0  0  0  0  0  0  0  0  0  0  0  0
   -2.5897    2.7064   -0.8457 H   0  0  0  0  0  0  0  0  0  0  0  0
   -3.1106    2.0364   -2.3934 H   0  0  0  0  0  0  0  0  0  0  0  0
   -1.3932    2.2403   -2.0618 H   0  0  0  0  0  0  0  0  0  0  0  0
  -10.5791   -1.7161    2.7714 H   0  0  0  0  0  0  0  0  0  0  0  0
  -10.7617    3.2044    1.7079 H   0  0  0  0  0  0  0  0  0  0  0  0
   -9.4529    3.7454    0.6100 H   0  0  0  0  0  0  0  0  0  0  0  0
   -9.2149    4.7958    2.8622 H   0  0  0  0  0  0  0  0  0  0  0  0
   -9.1884    3.1965    3.6147 H   0  0  0  0  0  0  0  0  0  0  0  0
   -7.8609    3.6965    2.5543 H   0  0  0  0  0  0  0  0  0  0  0  0
  -11.1509   -3.9898    2.8489 H   0  0  0  0  0  0  0  0  0  0  0  0
  -11.6666   -8.2288    6.4905 H   0  0  0  0  0  0  0  0  0  0  0  0
  -10.0317   -9.7952    7.4346 H   0  0  0  0  0  0  0  0  0  0  0  0
  1  2  2  0  0  0  0
  2  3  1  0  0  0  0
  3  4  2  0  0  0  0
  3  5  1  0  0  0  0
  5  6  2  0  0  0  0
  6  7  1  0  0  0  0
  7  8  2  0  0  0  0
  8  9  1  0  0  0  0
  9 10  1  0  0  0  0
  9 11  2  0  0  0  0
 11 12  1  0  0  0  0
  6 13  1  0  0  0  0
 13 14  2  0  0  0  0
 14 15  1  0  0  0  0
 15 16  3  0  0  0  0
 14 17  1  0  0  0  0
 17 18  3  0  0  0  0
  1 19  1  0  0  0  0
 19 20  1  0  0  0  0
 20 21  1  0  0  0  0
 21 22  2  0  0  0  0
 22 23  1  0  0  0  0
 23 24  1  0  0  0  0
 21 25  1  0  0  0  0
 25 26  2  0  0  0  0
 26 27  1  0  0  0  0
 27 28  2  0  0  0  0
 28 29  1  0  0  0  0
 29 30  2  0  0  0  0
 29 31  1  0  0  0  0
 31 32  1  0  0  0  0
 32 33  1  0  0  0  0
 28 34  1  0  0  0  0
 34 35  1  0  0  0  0
 25 36  1  0  0  0  0
 36 37  2  0  0  0  0
 37 38  1  0  0  0  0
 38 39  2  0  0  0  0
 39 40  1  0  0  0  0
 40 41  2  0  0  0  0
 41 42  1  0  0  0  0
 42 43  1  0  0  0  0
 43 44  1  0  0  0  0
 42 45  2  0  0  0  0
 37 46  1  0  0  0  0
 46 47  1  0  0  0  0
 47 48  1  0  0  0  0
 48 49  1  0  0  0  0
 49 50  1  0  0  0  0
 50 51  1  0  0  0  0
 51 52  2  0  0  0  0
 52 53  1  0  0  0  0
 53 54  1  0  0  0  0
 51 55  1  0  0  0  0
 55 56  1  0  0  0  0
 56 57  1  0  0  0  0
 57 58  1  0  0  0  0
 58 59  1  0  0  0  0
 59 60  1  0  0  0  0
 60 61  2  0  0  0  0
 61 62  1  0  0  0  0
 62 63  2  0  0  0  0
 63 64  1  0  0  0  0
 64 65  1  0  0  0  0
 65 66  1  0  0  0  0
 64 67  2  0  0  0  0
 59 68  2  0  0  0  0
 68 69  1  0  0  0  0
 69 70  1  0  0  0  0
 70 71  1  0  0  0  0
 71 72  1  0  0  0  0
 72 73  1  0  0  0  0
 73 74  1  0  0  0  0
 74 75  1  0  0  0  0
 75 76  1  0  0  0  0
 76 77  1  0  0  0  0
 77 78  1  0  0  0  0
 75 79  1  0  0  0  0
 79 80  1  0  0  0  0
 72 81  1  0  0  0  0
 81 82  1  0  0  0  0
 68 83  1  0  0  0  0
 83 84  1  0  0  0  0
 84 85  1  0  0  0  0
 85 86  2  0  0  0  0
 86 87  1  0  0  0  0
 87 88  1  0  0  0  0
 85 89  1  0  0  0  0
 89 90  2  0  0  0  0
 90 91  1  0  0  0  0
 91 92  2  0  0  0  0
 92 93  1  0  0  0  0
 93 94  2  0  0  0  0
 93 95  1  0  0  0  0
 95 96  1  0  0  0  0
 96 97  1  0  0  0  0
 92 98  1  0  0  0  0
 98 99  1  0  0  0  0
 89100  1  0  0  0  0
100101  2  0  0  0  0
101102  1  0  0  0  0
102103  2  0  0  0  0
102104  1  0  0  0  0
104105  2  0  0  0  0
105106  1  0  0  0  0
106107  2  0  0  0  0
107108  1  0  0  0  0
108109  1  0  0  0  0
108110  2  0  0  0  0
110111  1  0  0  0  0
105112  1  0  0  0  0
112113  2  0  0  0  0
113114  1  0  0  0  0
114115  3  0  0  0  0
113116  1  0  0  0  0
116117  3  0  0  0  0
 13  2  1  0  0  0  0
 35 19  2  0  0  0  0
 78 36  1  0  0  0  0
 99 83  2  0  0  0  0
112101  1  0  0  0  0
 11  5  1  0  0  0  0
 24 20  2  0  0  0  0
 35 26  1  0  0  0  0
 45 38  1  0  0  0  0
 77 46  2  0  0  0  0
 88 84  2  0  0  0  0
 99 90  1  0  0  0  0
110104  1  0  0  0  0
 76 48  2  0  0  0  0
 74 49  2  0  0  0  0
 54 50  2  0  0  0  0
 73 55  2  0  0  0  0
 71 56  2  0  0  0  0
 70 58  2  0  0  0  0
 67 60  1  0  0  0  0
  1118  1  0  0  0  0
  7119  1  0  0  0  0
  8120  1  0  0  0  0
 27121  1  0  0  0  0
 32122  1  0  0  0  0
 32123  1  0  0  0  0
 33124  1  0  0  0  0
 33125  1  0  0  0  0
 33126  1  0  0  0  0
 39127  1  0  0  0  0
 40128  1  0  0  0  0
 41129  1  0  0  0  0
 43130  1  0  0  0  0
 43131  1  0  0  0  0
 44132  1  0  0  0  0
 44133  1  0  0  0  0
 44134  1  0  0  0  0
 45135  1  0  0  0  0
 61136  1  0  0  0  0
 62137  1  0  0  0  0
 63138  1  0  0  0  0
 65139  1  0  0  0  0
 65140  1  0  0  0  0
 66141  1  0  0  0  0
 66142  1  0  0  0  0
 66143  1  0  0  0  0
 67144  1  0  0  0  0
 79145  1  0  0  0  0
 79146  1  0  0  0  0
 80147  1  0  0  0  0
 80148  1  0  0  0  0
 80149  1  0  0  0  0
 81150  1  0  0  0  0
 81151  1  0  0  0  0
 82152  1  0  0  0  0
 82153  1  0  0  0  0
 82154  1  0  0  0  0
 91155  1  0  0  0  0
 96156  1  0  0  0  0
 96157  1  0  0  0  0
 97158  1  0  0  0  0
 97159  1  0  0  0  0
 97160  1  0  0  0  0
100161  1  0  0  0  0
106162  1  0  0  0  0
107163  1  0  0  0  0
M  END
