
  xtb     02072200103D
 energy: -335.465897694498 gnorm: 0.000682748375 xtb: 6.4.1 (unknown)
193213  0     0  0            999 V2000
    8.3219    5.3912    0.5542 C   0  0  0  0  0  0  0  0  0  0  0  0
    9.6073    5.3572    0.0447 C   0  0  0  0  0  0  0  0  0  0  0  0
   10.1634    4.3176   -0.8155 C   0  0  0  0  0  0  0  0  0  0  0  0
    9.6437    3.2749   -1.1702 O   0  0  0  0  0  0  0  0  0  0  0  0
   11.5099    4.7943   -1.2068 C   0  0  0  0  0  0  0  0  0  0  0  0
   11.7471    6.0481   -0.6153 C   0  0  0  0  0  0  0  0  0  0  0  0
   12.9458    6.7029   -0.8435 C   0  0  0  0  0  0  0  0  0  0  0  0
   13.8905    6.0957   -1.6595 C   0  0  0  0  0  0  0  0  0  0  0  0
   13.6528    4.8584   -2.2358 C   0  0  0  0  0  0  0  0  0  0  0  0
   14.9823    4.0807   -3.3324 Br  0  0  0  0  0  0  0  0  0  0  0  0
   12.4484    4.1807   -2.0173 C   0  0  0  0  0  0  0  0  0  0  0  0
   12.1468    2.6504   -2.7251 Cl  0  0  0  0  0  0  0  0  0  0  0  0
   10.5822    6.4045    0.1974 C   0  0  0  0  0  0  0  0  0  0  0  0
   10.4876    7.5320    0.9811 C   0  0  0  0  0  0  0  0  0  0  0  0
   11.4552    8.5547    1.0156 C   0  0  0  0  0  0  0  0  0  0  0  0
   12.1908    9.4350    1.0781 N   0  0  0  0  0  0  0  0  0  0  0  0
    9.4461    7.8154    1.8838 C   0  0  0  0  0  0  0  0  0  0  0  0
    8.6627    8.1055    2.6744 N   0  0  0  0  0  0  0  0  0  0  0  0
    7.3012    4.4529    0.4942 C   0  0  0  0  0  0  0  0  0  0  0  0
    6.0271    4.6559    1.0969 C   0  0  0  0  0  0  0  0  0  0  0  0
    5.5676    5.8356    1.6109 N   0  0  0  0  0  0  0  0  0  0  0  0
    5.8409    7.0819    1.0178 C   0  0  0  0  0  0  0  0  0  0  0  0
    5.9554    7.2015   -0.3653 C   0  0  0  0  0  0  0  0  0  0  0  0
    6.2220    8.4314   -0.9320 C   0  0  0  0  0  0  0  0  0  0  0  0
    6.3621    9.5698   -0.1461 C   0  0  0  0  0  0  0  0  0  0  0  0
    6.6730   10.9011   -0.7564 C   0  0  0  0  0  0  0  0  0  0  0  0
    6.2176    9.4436    1.2305 C   0  0  0  0  0  0  0  0  0  0  0  0
    5.9656    8.2180    1.8137 C   0  0  0  0  0  0  0  0  0  0  0  0
    4.6724    5.7881    2.6996 C   0  0  0  0  0  0  0  0  0  0  0  0
    3.5125    6.5544    2.7026 C   0  0  0  0  0  0  0  0  0  0  0  0
    2.6486    6.4924    3.7786 C   0  0  0  0  0  0  0  0  0  0  0  0
    2.9147    5.6710    4.8671 C   0  0  0  0  0  0  0  0  0  0  0  0
    1.9671    5.5848    6.0229 C   0  0  0  0  0  0  0  0  0  0  0  0
    4.0816    4.9140    4.8563 C   0  0  0  0  0  0  0  0  0  0  0  0
    4.9556    4.9705    3.7906 C   0  0  0  0  0  0  0  0  0  0  0  0
    5.2840    3.4653    1.1008 C   0  0  0  0  0  0  0  0  0  0  0  0
    3.6964    3.0414    1.6614 S   0  0  0  0  0  0  0  0  0  0  0  0
    3.9159    1.4076    1.0564 C   0  0  0  0  0  0  0  0  0  0  0  0
    5.1186    1.2322    0.3830 C   0  0  0  0  0  0  0  0  0  0  0  0
    5.4885    0.0993   -0.3090 N   0  0  0  0  0  0  0  0  0  0  0  0
    6.8579   -0.1862   -0.4758 C   0  0  0  0  0  0  0  0  0  0  0  0
    7.7298   -0.0922    0.6033 C   0  0  0  0  0  0  0  0  0  0  0  0
    9.0786   -0.3224    0.4246 C   0  0  0  0  0  0  0  0  0  0  0  0
    9.5892   -0.6577   -0.8233 C   0  0  0  0  0  0  0  0  0  0  0  0
   11.0611   -0.8538   -1.0146 C   0  0  0  0  0  0  0  0  0  0  0  0
    8.7046   -0.7800   -1.8876 C   0  0  0  0  0  0  0  0  0  0  0  0
    7.3533   -0.5481   -1.7235 C   0  0  0  0  0  0  0  0  0  0  0  0
    4.5366   -0.7362   -0.9098 C   0  0  0  0  0  0  0  0  0  0  0  0
    3.4038   -0.2140   -1.5276 C   0  0  0  0  0  0  0  0  0  0  0  0
    2.4352   -1.0596   -2.0331 C   0  0  0  0  0  0  0  0  0  0  0  0
    2.5681   -2.4385   -1.9454 C   0  0  0  0  0  0  0  0  0  0  0  0
    1.4776   -3.3533   -2.4127 C   0  0  0  0  0  0  0  0  0  0  0  0
    3.7367   -2.9515   -1.3928 C   0  0  0  0  0  0  0  0  0  0  0  0
    4.7139   -2.1178   -0.8896 C   0  0  0  0  0  0  0  0  0  0  0  0
    5.9079    2.4063    0.4509 C   0  0  0  0  0  0  0  0  0  0  0  0
    7.4629    2.8217   -0.1697 S   0  0  0  0  0  0  0  0  0  0  0  0
    2.9427    0.3803    1.2822 C   0  0  0  0  0  0  0  0  0  0  0  0
    3.2177   -0.8798    1.7743 C   0  0  0  0  0  0  0  0  0  0  0  0
    4.4699   -1.2047    2.4556 C   0  0  0  0  0  0  0  0  0  0  0  0
    5.0697   -2.4531    2.3224 C   0  0  0  0  0  0  0  0  0  0  0  0
    6.2634   -2.7147    2.9682 C   0  0  0  0  0  0  0  0  0  0  0  0
    6.8580   -1.7529    3.7671 C   0  0  0  0  0  0  0  0  0  0  0  0
    6.2504   -0.5168    3.9494 C   0  0  0  0  0  0  0  0  0  0  0  0
    6.8590    0.5415    4.8273 C   0  0  0  0  0  0  0  0  0  0  0  0
    7.5079    1.6531    4.0000 C   0  0  0  0  0  0  0  0  0  0  0  0
    5.0603   -0.2568    3.2877 C   0  0  0  0  0  0  0  0  0  0  0  0
    2.1120   -1.7403    1.6120 C   0  0  0  0  0  0  0  0  0  0  0  0
    1.8576   -3.4273    1.9755 S   0  0  0  0  0  0  0  0  0  0  0  0
    0.2448   -3.2957    1.3594 C   0  0  0  0  0  0  0  0  0  0  0  0
   -0.9125   -4.0808    1.2259 C   0  0  0  0  0  0  0  0  0  0  0  0
   -1.2198   -5.3766    1.6957 C   0  0  0  0  0  0  0  0  0  0  0  0
   -2.5776   -5.8387    1.6200 C   0  0  0  0  0  0  0  0  0  0  0  0
   -2.7372   -7.0317    2.1708 N   0  0  0  0  0  0  0  0  0  0  0  0
   -1.3026   -7.5351    2.7292 S   0  0  0  0  0  0  0  0  0  0  0  0
   -0.4226   -6.2481    2.2932 N   0  0  0  0  0  0  0  0  0  0  0  0
   -3.5353   -5.0411    0.9563 C   0  0  0  0  0  0  0  0  0  0  0  0
   -4.8921   -5.2608    0.6642 C   0  0  0  0  0  0  0  0  0  0  0  0
   -6.1337   -6.4251    0.9777 S   0  0  0  0  0  0  0  0  0  0  0  0
   -7.2383   -5.4731    0.0115 C   0  0  0  0  0  0  0  0  0  0  0  0
   -8.6008   -5.6254   -0.3021 C   0  0  0  0  0  0  0  0  0  0  0  0
   -9.4114   -6.7059    0.2631 C   0  0  0  0  0  0  0  0  0  0  0  0
  -10.6152   -6.4324    0.9092 C   0  0  0  0  0  0  0  0  0  0  0  0
  -11.3322   -7.4607    1.4889 C   0  0  0  0  0  0  0  0  0  0  0  0
  -10.8574   -8.7607    1.4378 C   0  0  0  0  0  0  0  0  0  0  0  0
   -9.6547   -9.0491    0.8064 C   0  0  0  0  0  0  0  0  0  0  0  0
   -9.0946  -10.4416    0.8008 C   0  0  0  0  0  0  0  0  0  0  0  0
   -8.0832  -10.6063    1.9371 C   0  0  0  0  0  0  0  0  0  0  0  0
   -8.9390   -8.0125    0.2253 C   0  0  0  0  0  0  0  0  0  0  0  0
   -9.0456   -4.5926   -1.1167 C   0  0  0  0  0  0  0  0  0  0  0  0
   -7.7848   -3.4128   -1.4542 S   0  0  0  0  0  0  0  0  0  0  0  0
   -6.6524   -4.3201   -0.5201 C   0  0  0  0  0  0  0  0  0  0  0  0
   -5.3142   -4.1954   -0.1343 C   0  0  0  0  0  0  0  0  0  0  0  0
   -4.2849   -3.3080   -0.3275 N   0  0  0  0  0  0  0  0  0  0  0  0
   -3.1841   -3.7987    0.3582 C   0  0  0  0  0  0  0  0  0  0  0  0
   -1.9002   -3.2552    0.6188 C   0  0  0  0  0  0  0  0  0  0  0  0
   -1.3622   -1.9948    0.4377 N   0  0  0  0  0  0  0  0  0  0  0  0
   -0.0706   -2.0192    0.8885 C   0  0  0  0  0  0  0  0  0  0  0  0
    0.9972   -1.1244    1.0428 C   0  0  0  0  0  0  0  0  0  0  0  0
    1.2917    0.5460    0.7158 S   0  0  0  0  0  0  0  0  0  0  0  0
   -2.0036   -0.7331    0.1502 C   0  0  0  0  0  0  0  0  0  0  0  0
   -1.5890   -0.1850   -1.2160 C   0  0  0  0  0  0  0  0  0  0  0  0
   -4.3259   -2.4799   -1.5138 C   0  0  0  0  0  0  0  0  0  0  0  0
   -4.1568   -3.3239   -2.7772 C   0  0  0  0  0  0  0  0  0  0  0  0
  -10.3075   -4.4033   -1.7385 C   0  0  0  0  0  0  0  0  0  0  0  0
  -11.3295   -5.3246   -1.9055 C   0  0  0  0  0  0  0  0  0  0  0  0
  -12.4275   -4.7982   -2.5758 C   0  0  0  0  0  0  0  0  0  0  0  0
  -13.6615   -5.5756   -2.8107 C   0  0  0  0  0  0  0  0  0  0  0  0
  -14.7609   -5.1057   -2.9767 O   0  0  0  0  0  0  0  0  0  0  0  0
  -13.4184   -6.8914   -2.7902 O   0  0  0  0  0  0  0  0  0  0  0  0
  -14.5477   -7.7276   -2.9996 C   0  0  0  0  0  0  0  0  0  0  0  0
  -12.2657   -3.4535   -2.9589 C   0  0  0  0  0  0  0  0  0  0  0  0
  -10.7149   -2.8629   -2.4282 S   0  0  0  0  0  0  0  0  0  0  0  0
  -13.1945   -2.7530   -3.7405 C   0  0  0  0  0  0  0  0  0  0  0  0
  -13.1960   -1.4440   -4.1477 C   0  0  0  0  0  0  0  0  0  0  0  0
  -12.2644   -0.3936   -3.6994 C   0  0  0  0  0  0  0  0  0  0  0  0
  -11.2439   -0.5375   -3.0508 O   0  0  0  0  0  0  0  0  0  0  0  0
  -12.8366    0.8660   -4.1907 C   0  0  0  0  0  0  0  0  0  0  0  0
  -12.5502    2.1902   -4.1190 C   0  0  0  0  0  0  0  0  0  0  0  0
  -13.7238    3.1157   -4.9807 S   0  0  0  0  0  0  0  0  0  0  0  0
  -14.6047    1.7062   -5.4465 C   0  0  0  0  0  0  0  0  0  0  0  0
  -14.0168    0.5835   -4.9534 C   0  0  0  0  0  0  0  0  0  0  0  0
  -14.2199   -0.8521   -4.9906 C   0  0  0  0  0  0  0  0  0  0  0  0
  -15.1570   -1.4913   -5.7587 C   0  0  0  0  0  0  0  0  0  0  0  0
  -16.0894   -0.7587   -6.5213 C   0  0  0  0  0  0  0  0  0  0  0  0
  -16.8543   -0.1674   -7.1399 N   0  0  0  0  0  0  0  0  0  0  0  0
  -15.2588   -2.8849   -5.9461 C   0  0  0  0  0  0  0  0  0  0  0  0
  -15.3663   -4.0003   -6.1965 N   0  0  0  0  0  0  0  0  0  0  0  0
    8.0616    6.2925    1.0942 H   0  0  0  0  0  0  0  0  0  0  0  0
   13.1611    7.6643   -0.4084 H   0  0  0  0  0  0  0  0  0  0  0  0
   14.8302    6.5906   -1.8510 H   0  0  0  0  0  0  0  0  0  0  0  0
    5.8384    6.3287   -0.9909 H   0  0  0  0  0  0  0  0  0  0  0  0
    6.3130    8.5084   -2.0059 H   0  0  0  0  0  0  0  0  0  0  0  0
    6.5576   10.8732   -1.8370 H   0  0  0  0  0  0  0  0  0  0  0  0
    6.0192   11.6711   -0.3513 H   0  0  0  0  0  0  0  0  0  0  0  0
    7.7003   11.1848   -0.5271 H   0  0  0  0  0  0  0  0  0  0  0  0
    6.3221   10.3150    1.8587 H   0  0  0  0  0  0  0  0  0  0  0  0
    5.8754    8.1333    2.8849 H   0  0  0  0  0  0  0  0  0  0  0  0
    3.2913    7.1912    1.8590 H   0  0  0  0  0  0  0  0  0  0  0  0
    1.7485    7.0893    3.7681 H   0  0  0  0  0  0  0  0  0  0  0  0
    1.4074    4.6503    5.9762 H   0  0  0  0  0  0  0  0  0  0  0  0
    2.5083    5.6013    6.9667 H   0  0  0  0  0  0  0  0  0  0  0  0
    1.2580    6.4083    6.0086 H   0  0  0  0  0  0  0  0  0  0  0  0
    4.3112    4.2785    5.6991 H   0  0  0  0  0  0  0  0  0  0  0  0
    5.8678    4.3922    3.7986 H   0  0  0  0  0  0  0  0  0  0  0  0
    7.3369    0.1562    1.5764 H   0  0  0  0  0  0  0  0  0  0  0  0
    9.7485   -0.2394    1.2686 H   0  0  0  0  0  0  0  0  0  0  0  0
   11.2679   -1.4158   -1.9219 H   0  0  0  0  0  0  0  0  0  0  0  0
   11.5501    0.1169   -1.0966 H   0  0  0  0  0  0  0  0  0  0  0  0
   11.4985   -1.3760   -0.1662 H   0  0  0  0  0  0  0  0  0  0  0  0
    9.0803   -1.0459   -2.8650 H   0  0  0  0  0  0  0  0  0  0  0  0
    6.6770   -0.6337   -2.5616 H   0  0  0  0  0  0  0  0  0  0  0  0
    3.2813    0.8569   -1.6041 H   0  0  0  0  0  0  0  0  0  0  0  0
    1.5576   -0.6358   -2.5009 H   0  0  0  0  0  0  0  0  0  0  0  0
    1.8914   -4.2207   -2.9227 H   0  0  0  0  0  0  0  0  0  0  0  0
    0.7989   -2.8372   -3.0880 H   0  0  0  0  0  0  0  0  0  0  0  0
    0.9032   -3.7131   -1.5573 H   0  0  0  0  0  0  0  0  0  0  0  0
    3.8737   -4.0219   -1.3415 H   0  0  0  0  0  0  0  0  0  0  0  0
    5.6162   -2.5249   -0.4588 H   0  0  0  0  0  0  0  0  0  0  0  0
    4.6036   -3.2080    1.7087 H   0  0  0  0  0  0  0  0  0  0  0  0
    6.7339   -3.6796    2.8508 H   0  0  0  0  0  0  0  0  0  0  0  0
    7.7918   -1.9691    4.2657 H   0  0  0  0  0  0  0  0  0  0  0  0
    6.0777    0.9781    5.4546 H   0  0  0  0  0  0  0  0  0  0  0  0
    7.6092    0.0941    5.4817 H   0  0  0  0  0  0  0  0  0  0  0  0
    7.8847    2.4393    4.6510 H   0  0  0  0  0  0  0  0  0  0  0  0
    6.7843    2.0877    3.3125 H   0  0  0  0  0  0  0  0  0  0  0  0
    8.3403    1.2636    3.4182 H   0  0  0  0  0  0  0  0  0  0  0  0
    4.5688    0.6932    3.4425 H   0  0  0  0  0  0  0  0  0  0  0  0
  -10.9742   -5.4155    0.9639 H   0  0  0  0  0  0  0  0  0  0  0  0
  -12.2647   -7.2467    1.9902 H   0  0  0  0  0  0  0  0  0  0  0  0
  -11.4241   -9.5579    1.8968 H   0  0  0  0  0  0  0  0  0  0  0  0
   -8.5986  -10.6369   -0.1522 H   0  0  0  0  0  0  0  0  0  0  0  0
   -9.9000  -11.1682    0.9234 H   0  0  0  0  0  0  0  0  0  0  0  0
   -7.6680  -11.6113    1.9335 H   0  0  0  0  0  0  0  0  0  0  0  0
   -8.5629  -10.4318    2.8976 H   0  0  0  0  0  0  0  0  0  0  0  0
   -7.2700   -9.8924    1.8272 H   0  0  0  0  0  0  0  0  0  0  0  0
   -8.0057   -8.2250   -0.2756 H   0  0  0  0  0  0  0  0  0  0  0  0
   -3.0841   -0.8538    0.2374 H   0  0  0  0  0  0  0  0  0  0  0  0
   -1.6893   -0.0185    0.9194 H   0  0  0  0  0  0  0  0  0  0  0  0
   -1.7164   -0.9279   -2.0006 H   0  0  0  0  0  0  0  0  0  0  0  0
   -2.1814    0.6927   -1.4590 H   0  0  0  0  0  0  0  0  0  0  0  0
   -0.5415    0.1024   -1.1935 H   0  0  0  0  0  0  0  0  0  0  0  0
   -3.5428   -1.7332   -1.4819 H   0  0  0  0  0  0  0  0  0  0  0  0
   -5.2980   -1.9780   -1.5315 H   0  0  0  0  0  0  0  0  0  0  0  0
   -4.9524   -4.0596   -2.8581 H   0  0  0  0  0  0  0  0  0  0  0  0
   -3.2020   -3.8455   -2.7572 H   0  0  0  0  0  0  0  0  0  0  0  0
   -4.1894   -2.6828   -3.6536 H   0  0  0  0  0  0  0  0  0  0  0  0
  -11.2825   -6.3421   -1.5654 H   0  0  0  0  0  0  0  0  0  0  0  0
  -15.2442   -7.6382   -2.1633 H   0  0  0  0  0  0  0  0  0  0  0  0
  -15.0642   -7.4414   -3.9181 H   0  0  0  0  0  0  0  0  0  0  0  0
  -14.1644   -8.7419   -3.0713 H   0  0  0  0  0  0  0  0  0  0  0  0
  -14.0488   -3.3529   -4.0321 H   0  0  0  0  0  0  0  0  0  0  0  0
  -11.7362    2.6800   -3.6235 H   0  0  0  0  0  0  0  0  0  0  0  0
  -15.4893    1.8103   -6.0422 H   0  0  0  0  0  0  0  0  0  0  0  0
  1  2  2  0  0  0  0
  2  3  1  0  0  0  0
  3  4  2  0  0  0  0
  3  5  1  0  0  0  0
  5  6  2  0  0  0  0
  6  7  1  0  0  0  0
  7  8  2  0  0  0  0
  8  9  1  0  0  0  0
  9 10  1  0  0  0  0
  9 11  2  0  0  0  0
 11 12  1  0  0  0  0
  6 13  1  0  0  0  0
 13 14  2  0  0  0  0
 14 15  1  0  0  0  0
 15 16  3  0  0  0  0
 14 17  1  0  0  0  0
 17 18  3  0  0  0  0
  1 19  1  0  0  0  0
 19 20  2  0  0  0  0
 20 21  1  0  0  0  0
 21 22  1  0  0  0  0
 22 23  2  0  0  0  0
 23 24  1  0  0  0  0
 24 25  2  0  0  0  0
 25 26  1  0  0  0  0
 25 27  1  0  0  0  0
 27 28  2  0  0  0  0
 21 29  1  0  0  0  0
 29 30  2  0  0  0  0
 30 31  1  0  0  0  0
 31 32  2  0  0  0  0
 32 33  1  0  0  0  0
 32 34  1  0  0  0  0
 34 35  2  0  0  0  0
 20 36  1  0  0  0  0
 36 37  1  0  0  0  0
 37 38  1  0  0  0  0
 38 39  2  0  0  0  0
 39 40  1  0  0  0  0
 40 41  1  0  0  0  0
 41 42  2  0  0  0  0
 42 43  1  0  0  0  0
 43 44  2  0  0  0  0
 44 45  1  0  0  0  0
 44 46  1  0  0  0  0
 46 47  2  0  0  0  0
 40 48  1  0  0  0  0
 48 49  2  0  0  0  0
 49 50  1  0  0  0  0
 50 51  2  0  0  0  0
 51 52  1  0  0  0  0
 51 53  1  0  0  0  0
 53 54  2  0  0  0  0
 39 55  1  0  0  0  0
 55 56  1  0  0  0  0
 38 57  1  0  0  0  0
 57 58  2  0  0  0  0
 58 59  1  0  0  0  0
 59 60  2  0  0  0  0
 60 61  1  0  0  0  0
 61 62  2  0  0  0  0
 62 63  1  0  0  0  0
 63 64  1  0  0  0  0
 64 65  1  0  0  0  0
 63 66  2  0  0  0  0
 58 67  1  0  0  0  0
 67 68  1  0  0  0  0
 68 69  1  0  0  0  0
 69 70  1  0  0  0  0
 70 71  1  0  0  0  0
 71 72  1  0  0  0  0
 72 73  2  0  0  0  0
 73 74  1  0  0  0  0
 74 75  1  0  0  0  0
 72 76  1  0  0  0  0
 76 77  1  0  0  0  0
 77 78  1  0  0  0  0
 78 79  1  0  0  0  0
 79 80  1  0  0  0  0
 80 81  1  0  0  0  0
 81 82  2  0  0  0  0
 82 83  1  0  0  0  0
 83 84  2  0  0  0  0
 84 85  1  0  0  0  0
 85 86  1  0  0  0  0
 86 87  1  0  0  0  0
 85 88  2  0  0  0  0
 80 89  2  0  0  0  0
 89 90  1  0  0  0  0
 90 91  1  0  0  0  0
 91 92  1  0  0  0  0
 92 93  1  0  0  0  0
 93 94  1  0  0  0  0
 94 95  1  0  0  0  0
 95 96  1  0  0  0  0
 96 97  1  0  0  0  0
 97 98  1  0  0  0  0
 98 99  1  0  0  0  0
 96100  1  0  0  0  0
100101  1  0  0  0  0
 93102  1  0  0  0  0
102103  1  0  0  0  0
 89104  1  0  0  0  0
104105  2  0  0  0  0
105106  1  0  0  0  0
106107  1  0  0  0  0
107108  2  0  0  0  0
107109  1  0  0  0  0
109110  1  0  0  0  0
106111  2  0  0  0  0
111112  1  0  0  0  0
111113  1  0  0  0  0
113114  2  0  0  0  0
114115  1  0  0  0  0
115116  2  0  0  0  0
115117  1  0  0  0  0
117118  2  0  0  0  0
118119  1  0  0  0  0
119120  1  0  0  0  0
120121  2  0  0  0  0
121122  1  0  0  0  0
122123  2  0  0  0  0
123124  1  0  0  0  0
124125  3  0  0  0  0
123126  1  0  0  0  0
126127  3  0  0  0  0
 13  2  1  0  0  0  0
 56 19  1  0  0  0  0
 99 57  1  0  0  0  0
112104  1  0  0  0  0
122114  1  0  0  0  0
 11  5  1  0  0  0  0
 28 22  1  0  0  0  0
 35 29  1  0  0  0  0
 55 36  2  0  0  0  0
 66 59  1  0  0  0  0
 98 67  2  0  0  0  0
121117  1  0  0  0  0
 47 41  1  0  0  0  0
 54 48  1  0  0  0  0
 97 69  2  0  0  0  0
 95 70  2  0  0  0  0
 75 71  2  0  0  0  0
 94 76  2  0  0  0  0
 92 77  2  0  0  0  0
 91 79  2  0  0  0  0
 88 81  1  0  0  0  0
  1128  1  0  0  0  0
  7129  1  0  0  0  0
  8130  1  0  0  0  0
 23131  1  0  0  0  0
 24132  1  0  0  0  0
 26133  1  0  0  0  0
 26134  1  0  0  0  0
 26135  1  0  0  0  0
 27136  1  0  0  0  0
 28137  1  0  0  0  0
 30138  1  0  0  0  0
 31139  1  0  0  0  0
 33140  1  0  0  0  0
 33141  1  0  0  0  0
 33142  1  0  0  0  0
 34143  1  0  0  0  0
 35144  1  0  0  0  0
 42145  1  0  0  0  0
 43146  1  0  0  0  0
 45147  1  0  0  0  0
 45148  1  0  0  0  0
 45149  1  0  0  0  0
 46150  1  0  0  0  0
 47151  1  0  0  0  0
 49152  1  0  0  0  0
 50153  1  0  0  0  0
 52154  1  0  0  0  0
 52155  1  0  0  0  0
 52156  1  0  0  0  0
 53157  1  0  0  0  0
 54158  1  0  0  0  0
 60159  1  0  0  0  0
 61160  1  0  0  0  0
 62161  1  0  0  0  0
 64162  1  0  0  0  0
 64163  1  0  0  0  0
 65164  1  0  0  0  0
 65165  1  0  0  0  0
 65166  1  0  0  0  0
 66167  1  0  0  0  0
 82168  1  0  0  0  0
 83169  1  0  0  0  0
 84170  1  0  0  0  0
 86171  1  0  0  0  0
 86172  1  0  0  0  0
 87173  1  0  0  0  0
 87174  1  0  0  0  0
 87175  1  0  0  0  0
 88176  1  0  0  0  0
100177  1  0  0  0  0
100178  1  0  0  0  0
101179  1  0  0  0  0
101180  1  0  0  0  0
101181  1  0  0  0  0
102182  1  0  0  0  0
102183  1  0  0  0  0
103184  1  0  0  0  0
103185  1  0  0  0  0
103186  1  0  0  0  0
105187  1  0  0  0  0
110188  1  0  0  0  0
110189  1  0  0  0  0
110190  1  0  0  0  0
113191  1  0  0  0  0
118192  1  0  0  0  0
120193  1  0  0  0  0
M  END
