
  xtb     02082201423D
 energy: -366.194590608248 gnorm: 0.000381958470 xtb: 6.4.1 (unknown)
209231  0     0  0            999 V2000
    4.3208   -4.4450    8.5810 C   0  0  0  0  0  0  0  0  0  0  0  0
    3.6812   -5.4013    9.3327 C   0  0  0  0  0  0  0  0  0  0  0  0
    4.4774   -6.2940   10.1970 C   0  0  0  0  0  0  0  0  0  0  0  0
    5.6838   -6.4013   10.2206 O   0  0  0  0  0  0  0  0  0  0  0  0
    3.4818   -6.9918   11.0490 C   0  0  0  0  0  0  0  0  0  0  0  0
    2.1850   -6.6298   10.6380 C   0  0  0  0  0  0  0  0  0  0  0  0
    1.0783   -7.1203   11.3084 C   0  0  0  0  0  0  0  0  0  0  0  0
    1.2793   -7.9784   12.3805 C   0  0  0  0  0  0  0  0  0  0  0  0
    2.5562   -8.3476   12.7716 C   0  0  0  0  0  0  0  0  0  0  0  0
    2.7632   -9.5328   14.2297 Br  0  0  0  0  0  0  0  0  0  0  0  0
    3.6876   -7.8567   12.1100 C   0  0  0  0  0  0  0  0  0  0  0  0
    5.2663   -8.3088   12.5954 Cl  0  0  0  0  0  0  0  0  0  0  0  0
    2.2942   -5.7450    9.4763 C   0  0  0  0  0  0  0  0  0  0  0  0
    1.2946   -5.5444    8.5514 C   0  0  0  0  0  0  0  0  0  0  0  0
    1.5017   -4.9452    7.2944 C   0  0  0  0  0  0  0  0  0  0  0  0
    1.6434   -4.5298    6.2318 N   0  0  0  0  0  0  0  0  0  0  0  0
   -0.0103   -6.0486    8.6909 C   0  0  0  0  0  0  0  0  0  0  0  0
   -1.0846   -6.4511    8.7554 N   0  0  0  0  0  0  0  0  0  0  0  0
    3.7731   -3.2764    8.0436 C   0  0  0  0  0  0  0  0  0  0  0  0
    4.1880   -2.5724    6.8949 C   0  0  0  0  0  0  0  0  0  0  0  0
    5.2417   -2.8862    6.0875 N   0  0  0  0  0  0  0  0  0  0  0  0
    6.4469   -3.4014    6.5874 C   0  0  0  0  0  0  0  0  0  0  0  0
    6.9771   -2.9248    7.7852 C   0  0  0  0  0  0  0  0  0  0  0  0
    8.1595   -3.4434    8.2725 C   0  0  0  0  0  0  0  0  0  0  0  0
    8.8460   -4.4364    7.5817 C   0  0  0  0  0  0  0  0  0  0  0  0
   10.1039   -5.0206    8.1420 C   0  0  0  0  0  0  0  0  0  0  0  0
    8.3196   -4.8887    6.3772 C   0  0  0  0  0  0  0  0  0  0  0  0
    7.1350   -4.3825    5.8798 C   0  0  0  0  0  0  0  0  0  0  0  0
    5.1120   -2.6628    4.6990 C   0  0  0  0  0  0  0  0  0  0  0  0
    3.9498   -3.0518    4.0391 C   0  0  0  0  0  0  0  0  0  0  0  0
    3.8056   -2.7861    2.6912 C   0  0  0  0  0  0  0  0  0  0  0  0
    4.8087   -2.1456    1.9751 C   0  0  0  0  0  0  0  0  0  0  0  0
    4.6380   -1.8209    0.5230 C   0  0  0  0  0  0  0  0  0  0  0  0
    5.9788   -1.7934    2.6400 C   0  0  0  0  0  0  0  0  0  0  0  0
    6.1354   -2.0448    3.9882 C   0  0  0  0  0  0  0  0  0  0  0  0
    3.2690   -1.5445    6.5908 C   0  0  0  0  0  0  0  0  0  0  0  0
    3.1114   -0.4116    5.2960 S   0  0  0  0  0  0  0  0  0  0  0  0
    1.6057    0.1952    5.9653 C   0  0  0  0  0  0  0  0  0  0  0  0
    1.2835   -0.4107    7.1646 C   0  0  0  0  0  0  0  0  0  0  0  0
    0.0893   -0.2284    7.8909 N   0  0  0  0  0  0  0  0  0  0  0  0
   -0.7996   -1.3193    7.6971 C   0  0  0  0  0  0  0  0  0  0  0  0
   -1.1321   -2.1912    8.7295 C   0  0  0  0  0  0  0  0  0  0  0  0
   -1.9638   -3.2650    8.4867 C   0  0  0  0  0  0  0  0  0  0  0  0
   -2.4615   -3.5176    7.2126 C   0  0  0  0  0  0  0  0  0  0  0  0
   -3.3500   -4.6977    6.9747 C   0  0  0  0  0  0  0  0  0  0  0  0
   -2.1073   -2.6538    6.1855 C   0  0  0  0  0  0  0  0  0  0  0  0
   -1.2883   -1.5653    6.4201 C   0  0  0  0  0  0  0  0  0  0  0  0
    0.1422    0.4382    9.1148 C   0  0  0  0  0  0  0  0  0  0  0  0
   -1.0189    0.6059    9.8693 C   0  0  0  0  0  0  0  0  0  0  0  0
   -0.9815    1.2901   11.0650 C   0  0  0  0  0  0  0  0  0  0  0  0
    0.1996    1.8441   11.5455 C   0  0  0  0  0  0  0  0  0  0  0  0
    0.2172    2.6054   12.8365 C   0  0  0  0  0  0  0  0  0  0  0  0
    1.3462    1.6943   10.7803 C   0  0  0  0  0  0  0  0  0  0  0  0
    1.3253    1.0026    9.5845 C   0  0  0  0  0  0  0  0  0  0  0  0
    2.2341   -1.3992    7.5007 C   0  0  0  0  0  0  0  0  0  0  0  0
    2.3361   -2.5505    8.7782 S   0  0  0  0  0  0  0  0  0  0  0  0
    0.8479    1.0728    5.1323 C   0  0  0  0  0  0  0  0  0  0  0  0
   -0.1124    2.0196    5.4166 C   0  0  0  0  0  0  0  0  0  0  0  0
   -0.5377    2.5308    6.7273 C   0  0  0  0  0  0  0  0  0  0  0  0
   -1.8787    2.3941    7.0714 C   0  0  0  0  0  0  0  0  0  0  0  0
   -2.3699    2.9653    8.2280 C   0  0  0  0  0  0  0  0  0  0  0  0
   -1.5227    3.6946    9.0437 C   0  0  0  0  0  0  0  0  0  0  0  0
   -0.1905    3.8316    8.7041 C   0  0  0  0  0  0  0  0  0  0  0  0
    0.3265    3.2520    7.5534 C   0  0  0  0  0  0  0  0  0  0  0  0
    1.7616    3.4965    7.1797 C   0  0  0  0  0  0  0  0  0  0  0  0
    1.8684    4.6392    6.1680 C   0  0  0  0  0  0  0  0  0  0  0  0
   -0.6788    2.5346    4.2307 C   0  0  0  0  0  0  0  0  0  0  0  0
   -1.9320    3.7200    3.9545 S   0  0  0  0  0  0  0  0  0  0  0  0
   -1.7479    3.4776    2.2490 C   0  0  0  0  0  0  0  0  0  0  0  0
   -2.3694    3.8598    1.0480 C   0  0  0  0  0  0  0  0  0  0  0  0
   -3.5392    4.6096    0.7899 C   0  0  0  0  0  0  0  0  0  0  0  0
   -4.0899    4.6109   -0.5383 C   0  0  0  0  0  0  0  0  0  0  0  0
   -5.2308    5.2779   -0.6105 N   0  0  0  0  0  0  0  0  0  0  0  0
   -5.5793    5.8622    0.8583 S   0  0  0  0  0  0  0  0  0  0  0  0
   -4.2910    5.2817    1.6470 N   0  0  0  0  0  0  0  0  0  0  0  0
   -3.3773    3.9723   -1.5775 C   0  0  0  0  0  0  0  0  0  0  0  0
   -3.6308    3.8254   -2.9528 C   0  0  0  0  0  0  0  0  0  0  0  0
   -4.8832    4.1565   -4.1024 S   0  0  0  0  0  0  0  0  0  0  0  0
   -3.9045    3.4142   -5.3501 C   0  0  0  0  0  0  0  0  0  0  0  0
   -4.1332    3.1314   -6.7047 C   0  0  0  0  0  0  0  0  0  0  0  0
   -5.3800    3.4294   -7.4250 C   0  0  0  0  0  0  0  0  0  0  0  0
   -5.8049    4.7393   -7.6629 C   0  0  0  0  0  0  0  0  0  0  0  0
   -4.9785    5.9275   -7.2600 C   0  0  0  0  0  0  0  0  0  0  0  0
   -3.7653    6.1013   -8.1748 C   0  0  0  0  0  0  0  0  0  0  0  0
   -6.9996    4.9285   -8.3452 C   0  0  0  0  0  0  0  0  0  0  0  0
   -7.7639    3.8600   -8.7765 C   0  0  0  0  0  0  0  0  0  0  0  0
   -7.3392    2.5653   -8.5322 C   0  0  0  0  0  0  0  0  0  0  0  0
   -6.1517    2.3548   -7.8606 C   0  0  0  0  0  0  0  0  0  0  0  0
   -3.0838    2.4065   -7.2574 C   0  0  0  0  0  0  0  0  0  0  0  0
   -1.7788    2.1465   -6.1094 S   0  0  0  0  0  0  0  0  0  0  0  0
   -2.6716    2.9513   -4.8770 C   0  0  0  0  0  0  0  0  0  0  0  0
   -2.5193    3.1840   -3.5077 C   0  0  0  0  0  0  0  0  0  0  0  0
   -1.5897    2.9182   -2.5340 N   0  0  0  0  0  0  0  0  0  0  0  0
   -2.1189    3.3582   -1.3327 C   0  0  0  0  0  0  0  0  0  0  0  0
   -1.6866    3.1795    0.0030 C   0  0  0  0  0  0  0  0  0  0  0  0
   -0.7056    2.3792    0.5586 N   0  0  0  0  0  0  0  0  0  0  0  0
   -0.7503    2.5552    1.9163 C   0  0  0  0  0  0  0  0  0  0  0  0
   -0.1420    2.0104    3.0535 C   0  0  0  0  0  0  0  0  0  0  0  0
    1.0838    0.8463    3.3993 S   0  0  0  0  0  0  0  0  0  0  0  0
   -0.0263    1.2336   -0.0067 C   0  0  0  0  0  0  0  0  0  0  0  0
    1.4910    1.4152   -0.0459 C   0  0  0  0  0  0  0  0  0  0  0  0
   -0.1920    2.8073   -2.8933 C   0  0  0  0  0  0  0  0  0  0  0  0
    0.2936    4.0574   -3.6271 C   0  0  0  0  0  0  0  0  0  0  0  0
   -2.9562    2.0050   -8.6162 C   0  0  0  0  0  0  0  0  0  0  0  0
   -3.6642    3.0038   -9.8502 S   0  0  0  0  0  0  0  0  0  0  0  0
   -3.0547    2.0119  -11.1652 C   0  0  0  0  0  0  0  0  0  0  0  0
   -2.3369    0.9532  -10.6243 C   0  0  0  0  0  0  0  0  0  0  0  0
   -1.4053   -0.3013  -11.3387 S   0  0  0  0  0  0  0  0  0  0  0  0
   -0.9670   -0.9234   -9.7536 C   0  0  0  0  0  0  0  0  0  0  0  0
   -0.1510   -2.0958   -9.6909 C   0  0  0  0  0  0  0  0  0  0  0  0
    0.5730   -2.6075   -8.6337 C   0  0  0  0  0  0  0  0  0  0  0  0
    1.2729   -3.7694   -8.9648 C   0  0  0  0  0  0  0  0  0  0  0  0
    1.0909   -4.1506  -10.2722 C   0  0  0  0  0  0  0  0  0  0  0  0
    1.6736   -5.3122  -10.9355 C   0  0  0  0  0  0  0  0  0  0  0  0
    2.4033   -6.1094  -10.3962 O   0  0  0  0  0  0  0  0  0  0  0  0
    1.3026   -5.3681  -12.2233 O   0  0  0  0  0  0  0  0  0  0  0  0
    1.7802   -6.4732  -12.9878 C   0  0  0  0  0  0  0  0  0  0  0  0
    0.8886   -7.6943  -12.8129 C   0  0  0  0  0  0  0  0  0  0  0  0
    0.0445   -3.0690  -11.1175 S   0  0  0  0  0  0  0  0  0  0  0  0
   -1.5297   -0.1894   -8.7399 C   0  0  0  0  0  0  0  0  0  0  0  0
   -2.2714    0.9365   -9.1998 C   0  0  0  0  0  0  0  0  0  0  0  0
   -1.4633   -0.6900   -7.1023 Cl  0  0  0  0  0  0  0  0  0  0  0  0
   -3.2901    2.4797  -12.4680 C   0  0  0  0  0  0  0  0  0  0  0  0
   -3.1696    1.8186  -13.6619 C   0  0  0  0  0  0  0  0  0  0  0  0
   -3.0952    0.3561  -13.8364 C   0  0  0  0  0  0  0  0  0  0  0  0
   -3.2061   -0.4949  -12.9679 O   0  0  0  0  0  0  0  0  0  0  0  0
   -2.9924    0.1645  -15.2764 C   0  0  0  0  0  0  0  0  0  0  0  0
   -2.8548   -1.1627  -16.3427 S   0  0  0  0  0  0  0  0  0  0  0  0
   -2.8978   -0.0841  -17.7149 C   0  0  0  0  0  0  0  0  0  0  0  0
   -2.8052   -0.6354  -19.0899 C   0  0  0  0  0  0  0  0  0  0  0  0
   -3.0201    1.2265  -17.3480 C   0  0  0  0  0  0  0  0  0  0  0  0
   -3.0769    1.3753  -15.9490 C   0  0  0  0  0  0  0  0  0  0  0  0
   -3.2050    2.4424  -14.9763 C   0  0  0  0  0  0  0  0  0  0  0  0
   -3.2977    3.7735  -15.2873 C   0  0  0  0  0  0  0  0  0  0  0  0
   -3.3077    4.2197  -16.6257 C   0  0  0  0  0  0  0  0  0  0  0  0
   -3.3207    4.6043  -17.7068 N   0  0  0  0  0  0  0  0  0  0  0  0
   -3.3862    4.8355  -14.3662 C   0  0  0  0  0  0  0  0  0  0  0  0
   -3.4531    5.7513  -13.6760 N   0  0  0  0  0  0  0  0  0  0  0  0
    5.3847   -4.6117    8.4485 H   0  0  0  0  0  0  0  0  0  0  0  0
    0.0763   -6.8437   11.0255 H   0  0  0  0  0  0  0  0  0  0  0  0
    0.4319   -8.3701   12.9218 H   0  0  0  0  0  0  0  0  0  0  0  0
    6.4549   -2.1500    8.3279 H   0  0  0  0  0  0  0  0  0  0  0  0
    8.5566   -3.0722    9.2056 H   0  0  0  0  0  0  0  0  0  0  0  0
    9.8539   -5.7904    8.8725 H   0  0  0  0  0  0  0  0  0  0  0  0
   10.6944   -4.2598    8.6476 H   0  0  0  0  0  0  0  0  0  0  0  0
   10.7056   -5.4773    7.3602 H   0  0  0  0  0  0  0  0  0  0  0  0
    8.8387   -5.6579    5.8246 H   0  0  0  0  0  0  0  0  0  0  0  0
    6.7288   -4.7506    4.9495 H   0  0  0  0  0  0  0  0  0  0  0  0
    3.1663   -3.5565    4.5852 H   0  0  0  0  0  0  0  0  0  0  0  0
    2.8965   -3.0845    2.1905 H   0  0  0  0  0  0  0  0  0  0  0  0
    4.4886   -0.7481    0.3983 H   0  0  0  0  0  0  0  0  0  0  0  0
    3.7777   -2.3388    0.1071 H   0  0  0  0  0  0  0  0  0  0  0  0
    5.5251   -2.1013   -0.0417 H   0  0  0  0  0  0  0  0  0  0  0  0
    6.7731   -1.3038    2.0956 H   0  0  0  0  0  0  0  0  0  0  0  0
    7.0419   -1.7559    4.4995 H   0  0  0  0  0  0  0  0  0  0  0  0
   -0.7296   -2.0263    9.7187 H   0  0  0  0  0  0  0  0  0  0  0  0
   -2.2176   -3.9358    9.2944 H   0  0  0  0  0  0  0  0  0  0  0  0
   -4.3254   -4.5331    7.4325 H   0  0  0  0  0  0  0  0  0  0  0  0
   -2.9154   -5.5873    7.4270 H   0  0  0  0  0  0  0  0  0  0  0  0
   -3.4923   -4.8722    5.9114 H   0  0  0  0  0  0  0  0  0  0  0  0
   -2.4746   -2.8340    5.1854 H   0  0  0  0  0  0  0  0  0  0  0  0
   -1.0194   -0.9020    5.6116 H   0  0  0  0  0  0  0  0  0  0  0  0
   -1.9509    0.1997    9.5075 H   0  0  0  0  0  0  0  0  0  0  0  0
   -1.8918    1.4020   11.6366 H   0  0  0  0  0  0  0  0  0  0  0  0
    1.2303    2.6973   13.2205 H   0  0  0  0  0  0  0  0  0  0  0  0
   -0.1824    3.6092   12.6863 H   0  0  0  0  0  0  0  0  0  0  0  0
   -0.3989    2.1107   13.5848 H   0  0  0  0  0  0  0  0  0  0  0  0
    2.2784    2.1194   11.1252 H   0  0  0  0  0  0  0  0  0  0  0  0
    2.2364    0.9031    9.0127 H   0  0  0  0  0  0  0  0  0  0  0  0
   -2.5336    1.8294    6.4239 H   0  0  0  0  0  0  0  0  0  0  0  0
   -3.4119    2.8507    8.4857 H   0  0  0  0  0  0  0  0  0  0  0  0
   -1.9002    4.1580    9.9426 H   0  0  0  0  0  0  0  0  0  0  0  0
    0.4676    4.4037    9.3420 H   0  0  0  0  0  0  0  0  0  0  0  0
    2.3247    3.7575    8.0775 H   0  0  0  0  0  0  0  0  0  0  0  0
    2.2068    2.5962    6.7544 H   0  0  0  0  0  0  0  0  0  0  0  0
    2.9098    4.8290    5.9175 H   0  0  0  0  0  0  0  0  0  0  0  0
    1.3322    4.3924    5.2544 H   0  0  0  0  0  0  0  0  0  0  0  0
    1.4372    5.5486    6.5800 H   0  0  0  0  0  0  0  0  0  0  0  0
   -5.5970    6.8248   -7.3157 H   0  0  0  0  0  0  0  0  0  0  0  0
   -4.6390    5.8215   -6.2289 H   0  0  0  0  0  0  0  0  0  0  0  0
   -3.2135    6.9970   -7.9002 H   0  0  0  0  0  0  0  0  0  0  0  0
   -3.0973    5.2467   -8.0948 H   0  0  0  0  0  0  0  0  0  0  0  0
   -4.0806    6.1910   -9.2116 H   0  0  0  0  0  0  0  0  0  0  0  0
   -7.3348    5.9366   -8.5419 H   0  0  0  0  0  0  0  0  0  0  0  0
   -8.6896    4.0369   -9.3033 H   0  0  0  0  0  0  0  0  0  0  0  0
   -7.9292    1.7236   -8.8621 H   0  0  0  0  0  0  0  0  0  0  0  0
   -5.8100    1.3486   -7.6618 H   0  0  0  0  0  0  0  0  0  0  0  0
   -0.4343    1.0348   -0.9979 H   0  0  0  0  0  0  0  0  0  0  0  0
   -0.2523    0.3671    0.6256 H   0  0  0  0  0  0  0  0  0  0  0  0
    1.7747    2.3449   -0.5342 H   0  0  0  0  0  0  0  0  0  0  0  0
    1.8932    1.4317    0.9633 H   0  0  0  0  0  0  0  0  0  0  0  0
    1.9427    0.5855   -0.5825 H   0  0  0  0  0  0  0  0  0  0  0  0
   -0.0634    1.9281   -3.5331 H   0  0  0  0  0  0  0  0  0  0  0  0
    0.3964    2.6910   -1.9899 H   0  0  0  0  0  0  0  0  0  0  0  0
    1.3561    3.9663   -3.8354 H   0  0  0  0  0  0  0  0  0  0  0  0
    0.1314    4.9405   -3.0124 H   0  0  0  0  0  0  0  0  0  0  0  0
   -0.2312    4.1879   -4.5692 H   0  0  0  0  0  0  0  0  0  0  0  0
    0.6120   -2.1502   -7.6633 H   0  0  0  0  0  0  0  0  0  0  0  0
    1.8964   -4.3232   -8.2867 H   0  0  0  0  0  0  0  0  0  0  0  0
    1.7750   -6.1254  -14.0228 H   0  0  0  0  0  0  0  0  0  0  0  0
    2.8039   -6.7036  -12.6742 H   0  0  0  0  0  0  0  0  0  0  0  0
    0.9155   -8.0275  -11.7782 H   0  0  0  0  0  0  0  0  0  0  0  0
    1.2429   -8.4987  -13.4509 H   0  0  0  0  0  0  0  0  0  0  0  0
   -0.1371   -7.4517  -13.0803 H   0  0  0  0  0  0  0  0  0  0  0  0
   -3.6050    3.5153  -12.5069 H   0  0  0  0  0  0  0  0  0  0  0  0
   -2.8464    0.1705  -19.8181 H   0  0  0  0  0  0  0  0  0  0  0  0
   -1.8724   -1.1830  -19.2215 H   0  0  0  0  0  0  0  0  0  0  0  0
   -3.6249   -1.3270  -19.2822 H   0  0  0  0  0  0  0  0  0  0  0  0
   -3.0679    2.0338  -18.0553 H   0  0  0  0  0  0  0  0  0  0  0  0
  1  2  2  0  0  0  0
  2  3  1  0  0  0  0
  3  4  2  0  0  0  0
  3  5  1  0  0  0  0
  5  6  2  0  0  0  0
  6  7  1  0  0  0  0
  7  8  2  0  0  0  0
  8  9  1  0  0  0  0
  9 10  1  0  0  0  0
  9 11  2  0  0  0  0
 11 12  1  0  0  0  0
  6 13  1  0  0  0  0
 13 14  2  0  0  0  0
 14 15  1  0  0  0  0
 15 16  3  0  0  0  0
 14 17  1  0  0  0  0
 17 18  3  0  0  0  0
  1 19  1  0  0  0  0
 19 20  2  0  0  0  0
 20 21  1  0  0  0  0
 21 22  1  0  0  0  0
 22 23  2  0  0  0  0
 23 24  1  0  0  0  0
 24 25  2  0  0  0  0
 25 26  1  0  0  0  0
 25 27  1  0  0  0  0
 27 28  2  0  0  0  0
 21 29  1  0  0  0  0
 29 30  2  0  0  0  0
 30 31  1  0  0  0  0
 31 32  2  0  0  0  0
 32 33  1  0  0  0  0
 32 34  1  0  0  0  0
 34 35  2  0  0  0  0
 20 36  1  0  0  0  0
 36 37  1  0  0  0  0
 37 38  1  0  0  0  0
 38 39  2  0  0  0  0
 39 40  1  0  0  0  0
 40 41  1  0  0  0  0
 41 42  2  0  0  0  0
 42 43  1  0  0  0  0
 43 44  2  0  0  0  0
 44 45  1  0  0  0  0
 44 46  1  0  0  0  0
 46 47  2  0  0  0  0
 40 48  1  0  0  0  0
 48 49  2  0  0  0  0
 49 50  1  0  0  0  0
 50 51  2  0  0  0  0
 51 52  1  0  0  0  0
 51 53  1  0  0  0  0
 53 54  2  0  0  0  0
 39 55  1  0  0  0  0
 55 56  1  0  0  0  0
 38 57  1  0  0  0  0
 57 58  2  0  0  0  0
 58 59  1  0  0  0  0
 59 60  2  0  0  0  0
 60 61  1  0  0  0  0
 61 62  2  0  0  0  0
 62 63  1  0  0  0  0
 63 64  2  0  0  0  0
 64 65  1  0  0  0  0
 65 66  1  0  0  0  0
 58 67  1  0  0  0  0
 67 68  1  0  0  0  0
 68 69  1  0  0  0  0
 69 70  1  0  0  0  0
 70 71  1  0  0  0  0
 71 72  1  0  0  0  0
 72 73  2  0  0  0  0
 73 74  1  0  0  0  0
 74 75  1  0  0  0  0
 72 76  1  0  0  0  0
 76 77  1  0  0  0  0
 77 78  1  0  0  0  0
 78 79  1  0  0  0  0
 79 80  1  0  0  0  0
 80 81  1  0  0  0  0
 81 82  2  0  0  0  0
 82 83  1  0  0  0  0
 83 84  1  0  0  0  0
 82 85  1  0  0  0  0
 85 86  2  0  0  0  0
 86 87  1  0  0  0  0
 87 88  2  0  0  0  0
 80 89  2  0  0  0  0
 89 90  1  0  0  0  0
 90 91  1  0  0  0  0
 91 92  1  0  0  0  0
 92 93  1  0  0  0  0
 93 94  1  0  0  0  0
 94 95  1  0  0  0  0
 95 96  1  0  0  0  0
 96 97  1  0  0  0  0
 97 98  1  0  0  0  0
 98 99  1  0  0  0  0
 96100  1  0  0  0  0
100101  1  0  0  0  0
 93102  1  0  0  0  0
102103  1  0  0  0  0
 89104  1  0  0  0  0
104105  1  0  0  0  0
105106  1  0  0  0  0
106107  2  0  0  0  0
107108  1  0  0  0  0
108109  1  0  0  0  0
109110  1  0  0  0  0
110111  2  0  0  0  0
111112  1  0  0  0  0
112113  2  0  0  0  0
113114  1  0  0  0  0
114115  2  0  0  0  0
114116  1  0  0  0  0
116117  1  0  0  0  0
117118  1  0  0  0  0
113119  1  0  0  0  0
109120  2  0  0  0  0
120121  1  0  0  0  0
120122  1  0  0  0  0
106123  1  0  0  0  0
123124  2  0  0  0  0
124125  1  0  0  0  0
125126  2  0  0  0  0
125127  1  0  0  0  0
127128  1  0  0  0  0
128129  1  0  0  0  0
129130  1  0  0  0  0
129131  2  0  0  0  0
131132  1  0  0  0  0
132133  1  0  0  0  0
133134  2  0  0  0  0
134135  1  0  0  0  0
135136  3  0  0  0  0
134137  1  0  0  0  0
137138  3  0  0  0  0
 13  2  1  0  0  0  0
 56 19  1  0  0  0  0
 99 57  1  0  0  0  0
121104  2  0  0  0  0
133124  1  0  0  0  0
 11  5  1  0  0  0  0
 28 22  1  0  0  0  0
 35 29  1  0  0  0  0
 55 36  2  0  0  0  0
 64 59  1  0  0  0  0
 98 67  2  0  0  0  0
121107  1  0  0  0  0
132127  2  0  0  0  0
 47 41  1  0  0  0  0
 54 48  1  0  0  0  0
 97 69  2  0  0  0  0
119110  1  0  0  0  0
 95 70  2  0  0  0  0
 75 71  2  0  0  0  0
 94 76  2  0  0  0  0
 92 77  2  0  0  0  0
 91 79  2  0  0  0  0
 88 81  1  0  0  0  0
  1139  1  0  0  0  0
  7140  1  0  0  0  0
  8141  1  0  0  0  0
 23142  1  0  0  0  0
 24143  1  0  0  0  0
 26144  1  0  0  0  0
 26145  1  0  0  0  0
 26146  1  0  0  0  0
 27147  1  0  0  0  0
 28148  1  0  0  0  0
 30149  1  0  0  0  0
 31150  1  0  0  0  0
 33151  1  0  0  0  0
 33152  1  0  0  0  0
 33153  1  0  0  0  0
 34154  1  0  0  0  0
 35155  1  0  0  0  0
 42156  1  0  0  0  0
 43157  1  0  0  0  0
 45158  1  0  0  0  0
 45159  1  0  0  0  0
 45160  1  0  0  0  0
 46161  1  0  0  0  0
 47162  1  0  0  0  0
 49163  1  0  0  0  0
 50164  1  0  0  0  0
 52165  1  0  0  0  0
 52166  1  0  0  0  0
 52167  1  0  0  0  0
 53168  1  0  0  0  0
 54169  1  0  0  0  0
 60170  1  0  0  0  0
 61171  1  0  0  0  0
 62172  1  0  0  0  0
 63173  1  0  0  0  0
 65174  1  0  0  0  0
 65175  1  0  0  0  0
 66176  1  0  0  0  0
 66177  1  0  0  0  0
 66178  1  0  0  0  0
 83179  1  0  0  0  0
 83180  1  0  0  0  0
 84181  1  0  0  0  0
 84182  1  0  0  0  0
 84183  1  0  0  0  0
 85184  1  0  0  0  0
 86185  1  0  0  0  0
 87186  1  0  0  0  0
 88187  1  0  0  0  0
100188  1  0  0  0  0
100189  1  0  0  0  0
101190  1  0  0  0  0
101191  1  0  0  0  0
101192  1  0  0  0  0
102193  1  0  0  0  0
102194  1  0  0  0  0
103195  1  0  0  0  0
103196  1  0  0  0  0
103197  1  0  0  0  0
111198  1  0  0  0  0
112199  1  0  0  0  0
117200  1  0  0  0  0
117201  1  0  0  0  0
118202  1  0  0  0  0
118203  1  0  0  0  0
118204  1  0  0  0  0
123205  1  0  0  0  0
130206  1  0  0  0  0
130207  1  0  0  0  0
130208  1  0  0  0  0
131209  1  0  0  0  0
M  END
