
  xtb     02062210563D
 energy: -351.387183869328 gnorm: 0.000651495376 xtb: 6.4.1 (unknown)
203224  0     0  0            999 V2000
   -3.1654   -2.0431   -9.9011 C   0  0  0  0  0  0  0  0  0  0  0  0
   -2.8012   -2.6753  -11.0795 C   0  0  0  0  0  0  0  0  0  0  0  0
   -2.0246   -3.9166  -11.1174 C   0  0  0  0  0  0  0  0  0  0  0  0
   -1.6069   -4.5581  -10.1721 O   0  0  0  0  0  0  0  0  0  0  0  0
   -1.9740   -4.3049  -12.5491 C   0  0  0  0  0  0  0  0  0  0  0  0
   -2.6965   -3.3699  -13.3103 C   0  0  0  0  0  0  0  0  0  0  0  0
   -2.8016   -3.5242  -14.6810 C   0  0  0  0  0  0  0  0  0  0  0  0
   -2.1658   -4.6045  -15.2785 C   0  0  0  0  0  0  0  0  0  0  0  0
   -1.4378   -5.5112  -14.5262 C   0  0  0  0  0  0  0  0  0  0  0  0
   -0.5634   -6.9429  -15.4009 Br  0  0  0  0  0  0  0  0  0  0  0  0
   -1.3341   -5.3791  -13.1374 C   0  0  0  0  0  0  0  0  0  0  0  0
   -0.4189   -6.4873  -12.2021 Cl  0  0  0  0  0  0  0  0  0  0  0  0
   -3.1984   -2.3315  -12.4091 C   0  0  0  0  0  0  0  0  0  0  0  0
   -3.7874   -1.1509  -12.7995 C   0  0  0  0  0  0  0  0  0  0  0  0
   -4.0465   -0.8032  -14.1365 C   0  0  0  0  0  0  0  0  0  0  0  0
   -4.2603   -0.4614  -15.2130 N   0  0  0  0  0  0  0  0  0  0  0  0
   -4.1210   -0.1109  -11.9110 C   0  0  0  0  0  0  0  0  0  0  0  0
   -4.3885    0.7891  -11.2487 N   0  0  0  0  0  0  0  0  0  0  0  0
   -2.4833   -2.1144   -8.6921 C   0  0  0  0  0  0  0  0  0  0  0  0
   -1.1390   -2.4431   -8.3847 C   0  0  0  0  0  0  0  0  0  0  0  0
   -0.1117   -2.5807   -9.2668 N   0  0  0  0  0  0  0  0  0  0  0  0
    1.0260   -3.3333   -8.8921 C   0  0  0  0  0  0  0  0  0  0  0  0
    2.2966   -2.8017   -9.0845 C   0  0  0  0  0  0  0  0  0  0  0  0
    3.4089   -3.5436   -8.7427 C   0  0  0  0  0  0  0  0  0  0  0  0
    3.2817   -4.8223   -8.2107 C   0  0  0  0  0  0  0  0  0  0  0  0
    4.4983   -5.6090   -7.8368 C   0  0  0  0  0  0  0  0  0  0  0  0
    2.0067   -5.3428   -8.0292 C   0  0  0  0  0  0  0  0  0  0  0  0
    0.8842   -4.6107   -8.3626 C   0  0  0  0  0  0  0  0  0  0  0  0
   -0.1042   -1.9921  -10.5384 C   0  0  0  0  0  0  0  0  0  0  0  0
    0.4426   -2.6854  -11.6167 C   0  0  0  0  0  0  0  0  0  0  0  0
    0.4163   -2.1351  -12.8848 C   0  0  0  0  0  0  0  0  0  0  0  0
   -0.1465   -0.8871  -13.1138 C   0  0  0  0  0  0  0  0  0  0  0  0
   -0.2279   -0.3082  -14.4907 C   0  0  0  0  0  0  0  0  0  0  0  0
   -0.6431   -0.1785  -12.0212 C   0  0  0  0  0  0  0  0  0  0  0  0
   -0.6238   -0.7154  -10.7519 C   0  0  0  0  0  0  0  0  0  0  0  0
   -0.9523   -2.4849   -6.9846 C   0  0  0  0  0  0  0  0  0  0  0  0
    0.3949   -2.8630   -5.9606 S   0  0  0  0  0  0  0  0  0  0  0  0
   -0.5635   -2.5081   -4.5291 C   0  0  0  0  0  0  0  0  0  0  0  0
   -1.8680   -2.1401   -4.8404 C   0  0  0  0  0  0  0  0  0  0  0  0
   -2.8710   -1.8544   -3.9284 N   0  0  0  0  0  0  0  0  0  0  0  0
   -3.7878   -0.8444   -4.2733 C   0  0  0  0  0  0  0  0  0  0  0  0
   -3.3232    0.3485   -4.8223 C   0  0  0  0  0  0  0  0  0  0  0  0
   -4.2141    1.3329   -5.1971 C   0  0  0  0  0  0  0  0  0  0  0  0
   -5.5836    1.1623   -5.0278 C   0  0  0  0  0  0  0  0  0  0  0  0
   -6.5384    2.2312   -5.4609 C   0  0  0  0  0  0  0  0  0  0  0  0
   -6.0363   -0.0259   -4.4681 C   0  0  0  0  0  0  0  0  0  0  0  0
   -5.1558   -1.0232   -4.0974 C   0  0  0  0  0  0  0  0  0  0  0  0
   -3.0639   -2.6354   -2.7855 C   0  0  0  0  0  0  0  0  0  0  0  0
   -2.6806   -3.9750   -2.7570 C   0  0  0  0  0  0  0  0  0  0  0  0
   -2.8323   -4.7203   -1.6065 C   0  0  0  0  0  0  0  0  0  0  0  0
   -3.3916   -4.1669   -0.4597 C   0  0  0  0  0  0  0  0  0  0  0  0
   -3.5379   -4.9871    0.7852 C   0  0  0  0  0  0  0  0  0  0  0  0
   -3.8007   -2.8406   -0.5048 C   0  0  0  0  0  0  0  0  0  0  0  0
   -3.6312   -2.0763   -1.6423 C   0  0  0  0  0  0  0  0  0  0  0  0
   -2.0670   -2.1228   -6.2391 C   0  0  0  0  0  0  0  0  0  0  0  0
   -3.4123   -1.7160   -7.2354 S   0  0  0  0  0  0  0  0  0  0  0  0
    0.0564   -2.5341   -3.2473 C   0  0  0  0  0  0  0  0  0  0  0  0
    1.1392   -3.2916   -2.8367 C   0  0  0  0  0  0  0  0  0  0  0  0
    1.7334   -4.4190   -3.5561 C   0  0  0  0  0  0  0  0  0  0  0  0
    0.9381   -5.3908   -4.1583 C   0  0  0  0  0  0  0  0  0  0  0  0
    1.5234   -6.4964   -4.7420 C   0  0  0  0  0  0  0  0  0  0  0  0
    2.8987   -6.6542   -4.7205 C   0  0  0  0  0  0  0  0  0  0  0  0
    3.7077   -5.6960   -4.1254 C   0  0  0  0  0  0  0  0  0  0  0  0
    5.1937   -5.8852   -4.0192 C   0  0  0  0  0  0  0  0  0  0  0  0
    5.5569   -6.4173   -2.6311 C   0  0  0  0  0  0  0  0  0  0  0  0
    3.1142   -4.5805   -3.5545 C   0  0  0  0  0  0  0  0  0  0  0  0
    1.5655   -2.9148   -1.5475 C   0  0  0  0  0  0  0  0  0  0  0  0
    2.8338   -3.5089   -0.5031 S   0  0  0  0  0  0  0  0  0  0  0  0
    2.3411   -2.3748    0.7071 C   0  0  0  0  0  0  0  0  0  0  0  0
    2.6877   -1.9978    2.0176 C   0  0  0  0  0  0  0  0  0  0  0  0
    3.5931   -2.5251    2.9662 C   0  0  0  0  0  0  0  0  0  0  0  0
    3.5878   -2.0019    4.3088 C   0  0  0  0  0  0  0  0  0  0  0  0
    4.4308   -2.6441    5.1014 N   0  0  0  0  0  0  0  0  0  0  0  0
    5.1742   -3.7960    4.2407 S   0  0  0  0  0  0  0  0  0  0  0  0
    4.4467   -3.5258    2.8198 N   0  0  0  0  0  0  0  0  0  0  0  0
    2.7822   -0.8801    4.6083 C   0  0  0  0  0  0  0  0  0  0  0  0
    2.6424   -0.0717    5.7508 C   0  0  0  0  0  0  0  0  0  0  0  0
    3.1901   -0.0187    7.3914 S   0  0  0  0  0  0  0  0  0  0  0  0
    2.2759    1.4533    7.6261 C   0  0  0  0  0  0  0  0  0  0  0  0
    2.1000    2.3087    8.7291 C   0  0  0  0  0  0  0  0  0  0  0  0
    2.7884    2.1341   10.0082 C   0  0  0  0  0  0  0  0  0  0  0  0
    2.8926    0.8709   10.5840 C   0  0  0  0  0  0  0  0  0  0  0  0
    3.5564    0.7143   11.7863 C   0  0  0  0  0  0  0  0  0  0  0  0
    4.1240    1.8060   12.4188 C   0  0  0  0  0  0  0  0  0  0  0  0
    4.0396    3.0731   11.8531 C   0  0  0  0  0  0  0  0  0  0  0  0
    4.7047    4.2502   12.5068 C   0  0  0  0  0  0  0  0  0  0  0  0
    6.1504    4.3805   12.0234 C   0  0  0  0  0  0  0  0  0  0  0  0
    3.3749    3.2242   10.6470 C   0  0  0  0  0  0  0  0  0  0  0  0
    1.2766    3.3772    8.4057 C   0  0  0  0  0  0  0  0  0  0  0  0
    0.7372    3.3389    6.7446 S   0  0  0  0  0  0  0  0  0  0  0  0
    1.5988    1.8718    6.4767 C   0  0  0  0  0  0  0  0  0  0  0  0
    1.8103    0.9982    5.4031 C   0  0  0  0  0  0  0  0  0  0  0  0
    1.4153    0.8817    4.0931 N   0  0  0  0  0  0  0  0  0  0  0  0
    1.9730   -0.2849    3.6059 C   0  0  0  0  0  0  0  0  0  0  0  0
    1.8092   -0.9414    2.3679 C   0  0  0  0  0  0  0  0  0  0  0  0
    0.9178   -0.7160    1.3324 N   0  0  0  0  0  0  0  0  0  0  0  0
    1.2523   -1.5861    0.3226 C   0  0  0  0  0  0  0  0  0  0  0  0
    0.8075   -1.8970   -0.9679 C   0  0  0  0  0  0  0  0  0  0  0  0
   -0.4392   -1.3567   -2.0319 S   0  0  0  0  0  0  0  0  0  0  0  0
   -0.4550   -0.2725    1.4725 C   0  0  0  0  0  0  0  0  0  0  0  0
   -1.3994   -1.4596    1.6569 C   0  0  0  0  0  0  0  0  0  0  0  0
    1.0653    2.0520    3.3117 C   0  0  0  0  0  0  0  0  0  0  0  0
    2.1534    3.1228    3.3867 C   0  0  0  0  0  0  0  0  0  0  0  0
    0.7467    4.3730    9.3027 C   0  0  0  0  0  0  0  0  0  0  0  0
    0.3939    4.0168   10.6224 C   0  0  0  0  0  0  0  0  0  0  0  0
   -0.1959    4.9023   11.4878 C   0  0  0  0  0  0  0  0  0  0  0  0
   -0.4674    6.2338   11.1148 C   0  0  0  0  0  0  0  0  0  0  0  0
   -0.0733    6.6001    9.8348 C   0  0  0  0  0  0  0  0  0  0  0  0
   -0.2153    7.9095    9.1556 C   0  0  0  0  0  0  0  0  0  0  0  0
   -0.6705    8.9435    9.5762 O   0  0  0  0  0  0  0  0  0  0  0  0
    0.3245    7.7270    7.8962 N   0  0  0  0  0  0  0  0  0  0  0  0
    0.3566    8.7582    6.8814 C   0  0  0  0  0  0  0  0  0  0  0  0
   -0.8748    8.6822    5.9861 C   0  0  0  0  0  0  0  0  0  0  0  0
    0.7802    6.4357    7.6833 C   0  0  0  0  0  0  0  0  0  0  0  0
    1.3235    6.0681    6.6701 O   0  0  0  0  0  0  0  0  0  0  0  0
    0.4986    5.6971    8.9386 C   0  0  0  0  0  0  0  0  0  0  0  0
   -1.0888    7.1756   12.0129 C   0  0  0  0  0  0  0  0  0  0  0  0
   -2.0808    6.9235   12.8946 C   0  0  0  0  0  0  0  0  0  0  0  0
   -2.3604    7.8743   14.0141 C   0  0  0  0  0  0  0  0  0  0  0  0
   -1.9408    8.9992   14.1302 O   0  0  0  0  0  0  0  0  0  0  0  0
   -3.1931    7.1091   14.9633 C   0  0  0  0  0  0  0  0  0  0  0  0
   -3.6362    7.4742   16.2215 C   0  0  0  0  0  0  0  0  0  0  0  0
   -4.3914    6.5687   16.9484 C   0  0  0  0  0  0  0  0  0  0  0  0
   -4.6838    5.3184   16.4115 C   0  0  0  0  0  0  0  0  0  0  0  0
   -5.6098    4.2031   17.3394 Cl  0  0  0  0  0  0  0  0  0  0  0  0
   -4.2507    4.9393   15.1448 C   0  0  0  0  0  0  0  0  0  0  0  0
   -3.5030    5.8493   14.4167 C   0  0  0  0  0  0  0  0  0  0  0  0
   -2.9477    5.7696   13.0669 C   0  0  0  0  0  0  0  0  0  0  0  0
   -3.3593    4.9083   12.0881 C   0  0  0  0  0  0  0  0  0  0  0  0
   -3.0078    5.0229   10.7255 C   0  0  0  0  0  0  0  0  0  0  0  0
   -2.8161    5.0904    9.5962 N   0  0  0  0  0  0  0  0  0  0  0  0
   -4.2623    3.8450   12.3046 C   0  0  0  0  0  0  0  0  0  0  0  0
   -4.9738    2.9533   12.4265 N   0  0  0  0  0  0  0  0  0  0  0  0
   -4.0864   -1.4726   -9.8878 H   0  0  0  0  0  0  0  0  0  0  0  0
   -3.3608   -2.8335  -15.2898 H   0  0  0  0  0  0  0  0  0  0  0  0
   -2.2315   -4.7426  -16.3467 H   0  0  0  0  0  0  0  0  0  0  0  0
    2.4035   -1.8110   -9.5021 H   0  0  0  0  0  0  0  0  0  0  0  0
    4.3934   -3.1249   -8.8927 H   0  0  0  0  0  0  0  0  0  0  0  0
    5.2902   -5.4689   -8.5696 H   0  0  0  0  0  0  0  0  0  0  0  0
    4.2679   -6.6683   -7.7624 H   0  0  0  0  0  0  0  0  0  0  0  0
    4.8692   -5.2710   -6.8696 H   0  0  0  0  0  0  0  0  0  0  0  0
    1.8902   -6.3392   -7.6312 H   0  0  0  0  0  0  0  0  0  0  0  0
   -0.1046   -5.0280   -8.2554 H   0  0  0  0  0  0  0  0  0  0  0  0
    0.8750   -3.6613  -11.4552 H   0  0  0  0  0  0  0  0  0  0  0  0
    0.8276   -2.6959  -13.7115 H   0  0  0  0  0  0  0  0  0  0  0  0
    0.2695   -0.9498  -15.2132 H   0  0  0  0  0  0  0  0  0  0  0  0
   -1.2693   -0.1920  -14.7914 H   0  0  0  0  0  0  0  0  0  0  0  0
    0.2337    0.6776  -14.5187 H   0  0  0  0  0  0  0  0  0  0  0  0
   -1.0589    0.8071  -12.1720 H   0  0  0  0  0  0  0  0  0  0  0  0
   -1.0164   -0.1477   -9.9217 H   0  0  0  0  0  0  0  0  0  0  0  0
   -2.2602    0.4954   -4.9503 H   0  0  0  0  0  0  0  0  0  0  0  0
   -3.8422    2.2515   -5.6269 H   0  0  0  0  0  0  0  0  0  0  0  0
   -6.6049    2.2510   -6.5487 H   0  0  0  0  0  0  0  0  0  0  0  0
   -7.5329    2.0524   -5.0604 H   0  0  0  0  0  0  0  0  0  0  0  0
   -6.1960    3.2104   -5.1313 H   0  0  0  0  0  0  0  0  0  0  0  0
   -7.0966   -0.1809   -4.3310 H   0  0  0  0  0  0  0  0  0  0  0  0
   -5.5233   -1.9481   -3.6779 H   0  0  0  0  0  0  0  0  0  0  0  0
   -2.2715   -4.4311   -3.6460 H   0  0  0  0  0  0  0  0  0  0  0  0
   -2.5197   -5.7546   -1.5997 H   0  0  0  0  0  0  0  0  0  0  0  0
   -4.0766   -5.9097    0.5744 H   0  0  0  0  0  0  0  0  0  0  0  0
   -4.0753   -4.4367    1.5531 H   0  0  0  0  0  0  0  0  0  0  0  0
   -2.5573   -5.2583    1.1766 H   0  0  0  0  0  0  0  0  0  0  0  0
   -4.2511   -2.3921    0.3689 H   0  0  0  0  0  0  0  0  0  0  0  0
   -3.9305   -1.0391   -1.6507 H   0  0  0  0  0  0  0  0  0  0  0  0
   -0.1364   -5.2897   -4.1417 H   0  0  0  0  0  0  0  0  0  0  0  0
    0.9005   -7.2517   -5.1989 H   0  0  0  0  0  0  0  0  0  0  0  0
    3.3472   -7.5337   -5.1600 H   0  0  0  0  0  0  0  0  0  0  0  0
    5.7015   -4.9313   -4.1796 H   0  0  0  0  0  0  0  0  0  0  0  0
    5.5386   -6.5919   -4.7767 H   0  0  0  0  0  0  0  0  0  0  0  0
    6.6334   -6.5426   -2.5416 H   0  0  0  0  0  0  0  0  0  0  0  0
    5.2205   -5.7279   -1.8603 H   0  0  0  0  0  0  0  0  0  0  0  0
    5.0797   -7.3796   -2.4598 H   0  0  0  0  0  0  0  0  0  0  0  0
    3.7363   -3.8239   -3.0994 H   0  0  0  0  0  0  0  0  0  0  0  0
    2.4403    0.0204   10.0973 H   0  0  0  0  0  0  0  0  0  0  0  0
    3.6306   -0.2663   12.2325 H   0  0  0  0  0  0  0  0  0  0  0  0
    4.6407    1.6760   13.3588 H   0  0  0  0  0  0  0  0  0  0  0  0
    4.6977    4.1240   13.5913 H   0  0  0  0  0  0  0  0  0  0  0  0
    4.1591    5.1650   12.2651 H   0  0  0  0  0  0  0  0  0  0  0  0
    6.7121    3.4809   12.2646 H   0  0  0  0  0  0  0  0  0  0  0  0
    6.1769    4.5206   10.9452 H   0  0  0  0  0  0  0  0  0  0  0  0
    6.6350    5.2309   12.4971 H   0  0  0  0  0  0  0  0  0  0  0  0
    3.3191    4.2007   10.1864 H   0  0  0  0  0  0  0  0  0  0  0  0
   -0.5395    0.3734    2.3435 H   0  0  0  0  0  0  0  0  0  0  0  0
   -0.7306    0.2862    0.5727 H   0  0  0  0  0  0  0  0  0  0  0  0
   -1.0950   -2.0495    2.5190 H   0  0  0  0  0  0  0  0  0  0  0  0
   -2.4093   -1.0955    1.8216 H   0  0  0  0  0  0  0  0  0  0  0  0
   -1.4035   -2.0984    0.7778 H   0  0  0  0  0  0  0  0  0  0  0  0
    0.1200    2.4601    3.6843 H   0  0  0  0  0  0  0  0  0  0  0  0
    0.9527    1.7529    2.2705 H   0  0  0  0  0  0  0  0  0  0  0  0
    3.1146    2.7016    3.0995 H   0  0  0  0  0  0  0  0  0  0  0  0
    1.9086    3.9313    2.7034 H   0  0  0  0  0  0  0  0  0  0  0  0
    2.2345    3.5374    4.3869 H   0  0  0  0  0  0  0  0  0  0  0  0
    0.5688    3.0020   10.9447 H   0  0  0  0  0  0  0  0  0  0  0  0
   -0.4463    4.5783   12.4879 H   0  0  0  0  0  0  0  0  0  0  0  0
    0.3959    9.7199    7.3981 H   0  0  0  0  0  0  0  0  0  0  0  0
    1.2658    8.6136    6.2925 H   0  0  0  0  0  0  0  0  0  0  0  0
   -1.7780    8.8019    6.5798 H   0  0  0  0  0  0  0  0  0  0  0  0
   -0.9105    7.7206    5.4793 H   0  0  0  0  0  0  0  0  0  0  0  0
   -0.8378    9.4715    5.2406 H   0  0  0  0  0  0  0  0  0  0  0  0
   -0.6950    8.1865   12.0075 H   0  0  0  0  0  0  0  0  0  0  0  0
   -3.3941    8.4476   16.6187 H   0  0  0  0  0  0  0  0  0  0  0  0
   -4.7552    6.8219   17.9315 H   0  0  0  0  0  0  0  0  0  0  0  0
   -4.4921    3.9606   14.7633 H   0  0  0  0  0  0  0  0  0  0  0  0
  1  2  2  0  0  0  0
  2  3  1  0  0  0  0
  3  4  2  0  0  0  0
  3  5  1  0  0  0  0
  5  6  2  0  0  0  0
  6  7  1  0  0  0  0
  7  8  2  0  0  0  0
  8  9  1  0  0  0  0
  9 10  1  0  0  0  0
  9 11  2  0  0  0  0
 11 12  1  0  0  0  0
  6 13  1  0  0  0  0
 13 14  2  0  0  0  0
 14 15  1  0  0  0  0
 15 16  3  0  0  0  0
 14 17  1  0  0  0  0
 17 18  3  0  0  0  0
  1 19  1  0  0  0  0
 19 20  2  0  0  0  0
 20 21  1  0  0  0  0
 21 22  1  0  0  0  0
 22 23  2  0  0  0  0
 23 24  1  0  0  0  0
 24 25  2  0  0  0  0
 25 26  1  0  0  0  0
 25 27  1  0  0  0  0
 27 28  2  0  0  0  0
 21 29  1  0  0  0  0
 29 30  2  0  0  0  0
 30 31  1  0  0  0  0
 31 32  2  0  0  0  0
 32 33  1  0  0  0  0
 32 34  1  0  0  0  0
 34 35  2  0  0  0  0
 20 36  1  0  0  0  0
 36 37  1  0  0  0  0
 37 38  1  0  0  0  0
 38 39  2  0  0  0  0
 39 40  1  0  0  0  0
 40 41  1  0  0  0  0
 41 42  2  0  0  0  0
 42 43  1  0  0  0  0
 43 44  2  0  0  0  0
 44 45  1  0  0  0  0
 44 46  1  0  0  0  0
 46 47  2  0  0  0  0
 40 48  1  0  0  0  0
 48 49  2  0  0  0  0
 49 50  1  0  0  0  0
 50 51  2  0  0  0  0
 51 52  1  0  0  0  0
 51 53  1  0  0  0  0
 53 54  2  0  0  0  0
 39 55  1  0  0  0  0
 55 56  1  0  0  0  0
 38 57  1  0  0  0  0
 57 58  2  0  0  0  0
 58 59  1  0  0  0  0
 59 60  2  0  0  0  0
 60 61  1  0  0  0  0
 61 62  2  0  0  0  0
 62 63  1  0  0  0  0
 63 64  1  0  0  0  0
 64 65  1  0  0  0  0
 63 66  2  0  0  0  0
 58 67  1  0  0  0  0
 67 68  1  0  0  0  0
 68 69  1  0  0  0  0
 69 70  1  0  0  0  0
 70 71  1  0  0  0  0
 71 72  1  0  0  0  0
 72 73  2  0  0  0  0
 73 74  1  0  0  0  0
 74 75  1  0  0  0  0
 72 76  1  0  0  0  0
 76 77  1  0  0  0  0
 77 78  1  0  0  0  0
 78 79  1  0  0  0  0
 79 80  1  0  0  0  0
 80 81  1  0  0  0  0
 81 82  2  0  0  0  0
 82 83  1  0  0  0  0
 83 84  2  0  0  0  0
 84 85  1  0  0  0  0
 85 86  1  0  0  0  0
 86 87  1  0  0  0  0
 85 88  2  0  0  0  0
 80 89  2  0  0  0  0
 89 90  1  0  0  0  0
 90 91  1  0  0  0  0
 91 92  1  0  0  0  0
 92 93  1  0  0  0  0
 93 94  1  0  0  0  0
 94 95  1  0  0  0  0
 95 96  1  0  0  0  0
 96 97  1  0  0  0  0
 97 98  1  0  0  0  0
 98 99  1  0  0  0  0
 96100  1  0  0  0  0
100101  1  0  0  0  0
 93102  1  0  0  0  0
102103  1  0  0  0  0
 89104  1  0  0  0  0
104105  2  0  0  0  0
105106  1  0  0  0  0
106107  2  0  0  0  0
107108  1  0  0  0  0
108109  1  0  0  0  0
109110  2  0  0  0  0
109111  1  0  0  0  0
111112  1  0  0  0  0
112113  1  0  0  0  0
111114  1  0  0  0  0
114115  2  0  0  0  0
114116  1  0  0  0  0
107117  1  0  0  0  0
117118  2  0  0  0  0
118119  1  0  0  0  0
119120  2  0  0  0  0
119121  1  0  0  0  0
121122  2  0  0  0  0
122123  1  0  0  0  0
123124  2  0  0  0  0
124125  1  0  0  0  0
124126  1  0  0  0  0
126127  2  0  0  0  0
127128  1  0  0  0  0
128129  2  0  0  0  0
129130  1  0  0  0  0
130131  3  0  0  0  0
129132  1  0  0  0  0
132133  3  0  0  0  0
 13  2  1  0  0  0  0
 56 19  1  0  0  0  0
 99 57  1  0  0  0  0
116104  1  0  0  0  0
128118  1  0  0  0  0
 11  5  1  0  0  0  0
 28 22  1  0  0  0  0
 35 29  1  0  0  0  0
 55 36  2  0  0  0  0
 66 59  1  0  0  0  0
 98 67  2  0  0  0  0
116108  2  0  0  0  0
127121  1  0  0  0  0
 47 41  1  0  0  0  0
 54 48  1  0  0  0  0
 97 69  2  0  0  0  0
 95 70  2  0  0  0  0
 75 71  2  0  0  0  0
 94 76  2  0  0  0  0
 92 77  2  0  0  0  0
 91 79  2  0  0  0  0
 88 81  1  0  0  0  0
  1134  1  0  0  0  0
  7135  1  0  0  0  0
  8136  1  0  0  0  0
 23137  1  0  0  0  0
 24138  1  0  0  0  0
 26139  1  0  0  0  0
 26140  1  0  0  0  0
 26141  1  0  0  0  0
 27142  1  0  0  0  0
 28143  1  0  0  0  0
 30144  1  0  0  0  0
 31145  1  0  0  0  0
 33146  1  0  0  0  0
 33147  1  0  0  0  0
 33148  1  0  0  0  0
 34149  1  0  0  0  0
 35150  1  0  0  0  0
 42151  1  0  0  0  0
 43152  1  0  0  0  0
 45153  1  0  0  0  0
 45154  1  0  0  0  0
 45155  1  0  0  0  0
 46156  1  0  0  0  0
 47157  1  0  0  0  0
 49158  1  0  0  0  0
 50159  1  0  0  0  0
 52160  1  0  0  0  0
 52161  1  0  0  0  0
 52162  1  0  0  0  0
 53163  1  0  0  0  0
 54164  1  0  0  0  0
 60165  1  0  0  0  0
 61166  1  0  0  0  0
 62167  1  0  0  0  0
 64168  1  0  0  0  0
 64169  1  0  0  0  0
 65170  1  0  0  0  0
 65171  1  0  0  0  0
 65172  1  0  0  0  0
 66173  1  0  0  0  0
 82174  1  0  0  0  0
 83175  1  0  0  0  0
 84176  1  0  0  0  0
 86177  1  0  0  0  0
 86178  1  0  0  0  0
 87179  1  0  0  0  0
 87180  1  0  0  0  0
 87181  1  0  0  0  0
 88182  1  0  0  0  0
100183  1  0  0  0  0
100184  1  0  0  0  0
101185  1  0  0  0  0
101186  1  0  0  0  0
101187  1  0  0  0  0
102188  1  0  0  0  0
102189  1  0  0  0  0
103190  1  0  0  0  0
103191  1  0  0  0  0
103192  1  0  0  0  0
105193  1  0  0  0  0
106194  1  0  0  0  0
112195  1  0  0  0  0
112196  1  0  0  0  0
113197  1  0  0  0  0
113198  1  0  0  0  0
113199  1  0  0  0  0
117200  1  0  0  0  0
122201  1  0  0  0  0
123202  1  0  0  0  0
126203  1  0  0  0  0
M  END
