
  xtb     02092206483D
 energy: -395.229558903636 gnorm: 0.000508667386 xtb: 6.4.1 (unknown)
229253  0     0  0            999 V2000
    9.9368    4.5638    3.4667 C   0  0  0  0  0  0  0  0  0  0  0  0
   11.3081    4.6879    3.6127 C   0  0  0  0  0  0  0  0  0  0  0  0
   12.2748    3.9381    2.8066 C   0  0  0  0  0  0  0  0  0  0  0  0
   12.0377    3.1319    1.9277 O   0  0  0  0  0  0  0  0  0  0  0  0
   13.6048    4.4752    3.1893 C   0  0  0  0  0  0  0  0  0  0  0  0
   13.4385    5.4948    4.1426 C   0  0  0  0  0  0  0  0  0  0  0  0
   14.5415    6.1615    4.6454 C   0  0  0  0  0  0  0  0  0  0  0  0
   15.8028    5.7878    4.2011 C   0  0  0  0  0  0  0  0  0  0  0  0
   15.9625    4.7683    3.2774 C   0  0  0  0  0  0  0  0  0  0  0  0
   17.7082    4.2799    2.7368 Br  0  0  0  0  0  0  0  0  0  0  0  0
   14.8574    4.0934    2.7477 C   0  0  0  0  0  0  0  0  0  0  0  0
   15.0483    2.8181    1.6172 Cl  0  0  0  0  0  0  0  0  0  0  0  0
   12.0110    5.6190    4.4400 C   0  0  0  0  0  0  0  0  0  0  0  0
   11.4676    6.3651    5.4599 C   0  0  0  0  0  0  0  0  0  0  0  0
   10.1042    6.3350    5.8109 C   0  0  0  0  0  0  0  0  0  0  0  0
    9.0131    6.3322    6.1711 N   0  0  0  0  0  0  0  0  0  0  0  0
   12.2180    7.1760    6.3290 C   0  0  0  0  0  0  0  0  0  0  0  0
   12.7882    7.8370    7.0767 N   0  0  0  0  0  0  0  0  0  0  0  0
    9.2576    3.4434    2.9995 C   0  0  0  0  0  0  0  0  0  0  0  0
    9.6196    2.0753    2.9382 C   0  0  0  0  0  0  0  0  0  0  0  0
   10.7114    1.4964    3.5128 N   0  0  0  0  0  0  0  0  0  0  0  0
   11.3530    2.0430    4.6328 C   0  0  0  0  0  0  0  0  0  0  0  0
   12.7419    1.9894    4.7372 C   0  0  0  0  0  0  0  0  0  0  0  0
   13.3820    2.5656    5.8189 C   0  0  0  0  0  0  0  0  0  0  0  0
   12.6648    3.2041    6.8214 C   0  0  0  0  0  0  0  0  0  0  0  0
   13.3552    3.8806    7.9630 C   0  0  0  0  0  0  0  0  0  0  0  0
   11.2741    3.2106    6.7332 C   0  0  0  0  0  0  0  0  0  0  0  0
   10.6232    2.6394    5.6609 C   0  0  0  0  0  0  0  0  0  0  0  0
   11.2270    0.2947    2.9783 C   0  0  0  0  0  0  0  0  0  0  0  0
   11.5899   -0.7422    3.8327 C   0  0  0  0  0  0  0  0  0  0  0  0
   12.1429   -1.8958    3.3162 C   0  0  0  0  0  0  0  0  0  0  0  0
   12.3461   -2.0443    1.9476 C   0  0  0  0  0  0  0  0  0  0  0  0
   12.9783   -3.2942    1.4160 C   0  0  0  0  0  0  0  0  0  0  0  0
   11.9666   -1.0077    1.1046 C   0  0  0  0  0  0  0  0  0  0  0  0
   11.4120    0.1533    1.6079 C   0  0  0  0  0  0  0  0  0  0  0  0
    8.6018    1.3269    2.3039 C   0  0  0  0  0  0  0  0  0  0  0  0
    8.4179   -0.3456    1.8926 S   0  0  0  0  0  0  0  0  0  0  0  0
    6.7947   -0.0488    1.2978 C   0  0  0  0  0  0  0  0  0  0  0  0
    6.4402    1.2939    1.3676 C   0  0  0  0  0  0  0  0  0  0  0  0
    5.2673    1.8556    0.8912 N   0  0  0  0  0  0  0  0  0  0  0  0
    4.6451    1.3920   -0.2737 C   0  0  0  0  0  0  0  0  0  0  0  0
    3.2539    1.4024   -0.3720 C   0  0  0  0  0  0  0  0  0  0  0  0
    2.6292    0.8686   -1.4798 C   0  0  0  0  0  0  0  0  0  0  0  0
    3.3612    0.3069   -2.5190 C   0  0  0  0  0  0  0  0  0  0  0  0
    2.6775   -0.3467   -3.6803 C   0  0  0  0  0  0  0  0  0  0  0  0
    4.7471    0.3455   -2.4360 C   0  0  0  0  0  0  0  0  0  0  0  0
    5.3878    0.8804   -1.3357 C   0  0  0  0  0  0  0  0  0  0  0  0
    4.7081    2.9253    1.6136 C   0  0  0  0  0  0  0  0  0  0  0  0
    4.1906    4.0339    0.9519 C   0  0  0  0  0  0  0  0  0  0  0  0
    3.6590    5.0843    1.6739 C   0  0  0  0  0  0  0  0  0  0  0  0
    3.6368    5.0638    3.0629 C   0  0  0  0  0  0  0  0  0  0  0  0
    3.0875    6.2131    3.8500 C   0  0  0  0  0  0  0  0  0  0  0  0
    4.1526    3.9496    3.7152 C   0  0  0  0  0  0  0  0  0  0  0  0
    4.6771    2.8888    3.0055 C   0  0  0  0  0  0  0  0  0  0  0  0
    7.4727    2.0575    1.9595 C   0  0  0  0  0  0  0  0  0  0  0  0
    7.6156    3.7185    2.3923 S   0  0  0  0  0  0  0  0  0  0  0  0
    5.9476   -1.0897    0.7946 C   0  0  0  0  0  0  0  0  0  0  0  0
    6.1728   -1.9985   -0.2176 C   0  0  0  0  0  0  0  0  0  0  0  0
    7.4635   -2.2970   -0.8421 C   0  0  0  0  0  0  0  0  0  0  0  0
    8.5439   -2.7217   -0.0764 C   0  0  0  0  0  0  0  0  0  0  0  0
    9.7367   -3.0486   -0.6931 C   0  0  0  0  0  0  0  0  0  0  0  0
    9.8604   -2.9601   -2.0681 C   0  0  0  0  0  0  0  0  0  0  0  0
    8.7860   -2.5529   -2.8492 C   0  0  0  0  0  0  0  0  0  0  0  0
    8.8807   -2.5281   -4.3473 C   0  0  0  0  0  0  0  0  0  0  0  0
    8.3224   -3.8282   -4.9301 C   0  0  0  0  0  0  0  0  0  0  0  0
    7.5919   -2.2284   -2.2245 C   0  0  0  0  0  0  0  0  0  0  0  0
    4.9685   -2.6049   -0.6343 C   0  0  0  0  0  0  0  0  0  0  0  0
    4.5883   -3.6859   -1.9517 S   0  0  0  0  0  0  0  0  0  0  0  0
    2.9116   -3.5788   -1.5291 C   0  0  0  0  0  0  0  0  0  0  0  0
    1.6621   -4.0419   -1.9843 C   0  0  0  0  0  0  0  0  0  0  0  0
    1.2838   -4.9608   -2.9881 C   0  0  0  0  0  0  0  0  0  0  0  0
   -0.1089   -5.2885   -3.1468 C   0  0  0  0  0  0  0  0  0  0  0  0
   -0.3068   -6.2039   -4.0820 N   0  0  0  0  0  0  0  0  0  0  0  0
    1.1260   -6.6148   -4.7136 S   0  0  0  0  0  0  0  0  0  0  0  0
    2.0588   -5.6396   -3.8190 N   0  0  0  0  0  0  0  0  0  0  0  0
   -1.0745   -4.5795   -2.3969 C   0  0  0  0  0  0  0  0  0  0  0  0
   -2.4780   -4.5283   -2.4729 C   0  0  0  0  0  0  0  0  0  0  0  0
   -3.7818   -5.2936   -3.3188 S   0  0  0  0  0  0  0  0  0  0  0  0
   -4.9019   -4.1977   -2.5434 C   0  0  0  0  0  0  0  0  0  0  0  0
   -6.3030   -4.0562   -2.6095 C   0  0  0  0  0  0  0  0  0  0  0  0
   -7.1571   -4.9610   -3.3835 C   0  0  0  0  0  0  0  0  0  0  0  0
   -8.2599   -5.5751   -2.7950 C   0  0  0  0  0  0  0  0  0  0  0  0
   -9.0184   -6.4703   -3.5232 C   0  0  0  0  0  0  0  0  0  0  0  0
   -8.6879   -6.7616   -4.8360 C   0  0  0  0  0  0  0  0  0  0  0  0
   -7.5920   -6.1583   -5.4380 C   0  0  0  0  0  0  0  0  0  0  0  0
   -7.1879   -6.5089   -6.8407 C   0  0  0  0  0  0  0  0  0  0  0  0
   -6.0974   -7.5820   -6.8219 C   0  0  0  0  0  0  0  0  0  0  0  0
   -6.8306   -5.2633   -4.7000 C   0  0  0  0  0  0  0  0  0  0  0  0
   -6.7353   -3.0203   -1.8009 C   0  0  0  0  0  0  0  0  0  0  0  0
   -5.4235   -2.2483   -0.9262 S   0  0  0  0  0  0  0  0  0  0  0  0
   -4.2784   -3.3011   -1.6738 C   0  0  0  0  0  0  0  0  0  0  0  0
   -2.8929   -3.4944   -1.6299 C   0  0  0  0  0  0  0  0  0  0  0  0
   -1.8146   -2.9247   -1.0038 N   0  0  0  0  0  0  0  0  0  0  0  0
   -0.6859   -3.5943   -1.4504 C   0  0  0  0  0  0  0  0  0  0  0  0
    0.6870   -3.4462   -1.1424 C   0  0  0  0  0  0  0  0  0  0  0  0
    1.3240   -2.7049   -0.1641 N   0  0  0  0  0  0  0  0  0  0  0  0
    2.6703   -2.7701   -0.4148 C   0  0  0  0  0  0  0  0  0  0  0  0
    3.8481   -2.2106    0.0934 C   0  0  0  0  0  0  0  0  0  0  0  0
    4.2683   -1.0886    1.3331 S   0  0  0  0  0  0  0  0  0  0  0  0
    0.8242   -2.4199    1.1626 C   0  0  0  0  0  0  0  0  0  0  0  0
    1.4934   -3.2999    2.2175 C   0  0  0  0  0  0  0  0  0  0  0  0
   -1.9221   -1.5719   -0.4915 C   0  0  0  0  0  0  0  0  0  0  0  0
   -1.1073   -0.5873   -1.3226 C   0  0  0  0  0  0  0  0  0  0  0  0
   -8.0415   -2.4646   -1.6752 C   0  0  0  0  0  0  0  0  0  0  0  0
   -9.0772   -2.5394   -2.5619 C   0  0  0  0  0  0  0  0  0  0  0  0
  -10.2278   -1.8238   -2.1576 C   0  0  0  0  0  0  0  0  0  0  0  0
  -11.4503   -1.6829   -2.8471 C   0  0  0  0  0  0  0  0  0  0  0  0
  -11.7116   -2.3775   -4.0911 C   0  0  0  0  0  0  0  0  0  0  0  0
  -12.3869   -1.9257   -5.1898 C   0  0  0  0  0  0  0  0  0  0  0  0
  -12.4609   -2.9023   -6.2017 C   0  0  0  0  0  0  0  0  0  0  0  0
  -13.0612   -2.6650   -7.3820 F   0  0  0  0  0  0  0  0  0  0  0  0
  -11.8730   -4.0971   -5.9084 C   0  0  0  0  0  0  0  0  0  0  0  0
  -11.7694   -5.3193   -6.7533 C   0  0  0  0  0  0  0  0  0  0  0  0
  -12.4287   -6.5254   -6.0855 C   0  0  0  0  0  0  0  0  0  0  0  0
  -11.1979   -4.0292   -4.3191 S   0  0  0  0  0  0  0  0  0  0  0  0
  -12.3968   -0.8431   -2.2665 C   0  0  0  0  0  0  0  0  0  0  0  0
  -12.1929   -0.2002   -1.0194 C   0  0  0  0  0  0  0  0  0  0  0  0
  -10.9811   -0.3631   -0.3161 C   0  0  0  0  0  0  0  0  0  0  0  0
  -10.7562    0.3230    0.9400 C   0  0  0  0  0  0  0  0  0  0  0  0
   -9.2777    1.1967    1.2236 S   0  0  0  0  0  0  0  0  0  0  0  0
   -9.8091    1.7356    2.7757 C   0  0  0  0  0  0  0  0  0  0  0  0
   -8.9565    2.5695    3.6660 C   0  0  0  0  0  0  0  0  0  0  0  0
   -8.1902    1.7154    4.6882 C   0  0  0  0  0  0  0  0  0  0  0  0
   -7.1810    0.7859    4.0271 C   0  0  0  0  0  0  0  0  0  0  0  0
  -11.0553    1.2398    3.0273 C   0  0  0  0  0  0  0  0  0  0  0  0
  -11.6074    0.4494    2.0023 C   0  0  0  0  0  0  0  0  0  0  0  0
  -11.7228    1.4952    4.1688 F   0  0  0  0  0  0  0  0  0  0  0  0
  -10.0207   -1.1546   -0.9236 C   0  0  0  0  0  0  0  0  0  0  0  0
   -8.4358   -1.4784   -0.2824 S   0  0  0  0  0  0  0  0  0  0  0  0
  -13.2726    0.6312   -0.6683 C   0  0  0  0  0  0  0  0  0  0  0  0
  -14.2843    0.6526   -1.5919 C   0  0  0  0  0  0  0  0  0  0  0  0
  -13.9520   -0.4329   -2.9289 S   0  0  0  0  0  0  0  0  0  0  0  0
  -15.4946    1.3911   -1.5560 C   0  0  0  0  0  0  0  0  0  0  0  0
  -15.7893    2.4831   -0.8031 C   0  0  0  0  0  0  0  0  0  0  0  0
  -17.2259    2.8502   -0.5943 C   0  0  0  0  0  0  0  0  0  0  0  0
  -18.1607    2.4505   -1.2439 O   0  0  0  0  0  0  0  0  0  0  0  0
  -17.2195    3.7359    0.5831 C   0  0  0  0  0  0  0  0  0  0  0  0
  -18.2934    4.2642    1.2983 C   0  0  0  0  0  0  0  0  0  0  0  0
  -19.5497    4.0010    0.9118 O   0  0  0  0  0  0  0  0  0  0  0  0
  -18.0008    5.0584    2.4125 C   0  0  0  0  0  0  0  0  0  0  0  0
  -16.6953    5.3025    2.7944 C   0  0  0  0  0  0  0  0  0  0  0  0
  -15.6215    4.7842    2.0812 C   0  0  0  0  0  0  0  0  0  0  0  0
  -15.8928    4.0058    0.9705 C   0  0  0  0  0  0  0  0  0  0  0  0
  -14.9880    3.3666    0.0157 C   0  0  0  0  0  0  0  0  0  0  0  0
  -13.6868    3.7377   -0.1996 C   0  0  0  0  0  0  0  0  0  0  0  0
  -12.9655    4.6314    0.6178 C   0  0  0  0  0  0  0  0  0  0  0  0
  -12.3064    5.3181    1.2598 N   0  0  0  0  0  0  0  0  0  0  0  0
  -12.9166    3.3069   -1.3001 C   0  0  0  0  0  0  0  0  0  0  0  0
  -12.2529    3.0246   -2.1929 N   0  0  0  0  0  0  0  0  0  0  0  0
    9.3182    5.4243    3.6923 H   0  0  0  0  0  0  0  0  0  0  0  0
   14.4453    6.9581    5.3642 H   0  0  0  0  0  0  0  0  0  0  0  0
   16.6774    6.2924    4.5817 H   0  0  0  0  0  0  0  0  0  0  0  0
   13.3144    1.5023    3.9623 H   0  0  0  0  0  0  0  0  0  0  0  0
   14.4604    2.5291    5.8740 H   0  0  0  0  0  0  0  0  0  0  0  0
   13.3224    4.9631    7.8332 H   0  0  0  0  0  0  0  0  0  0  0  0
   12.8612    3.6480    8.9041 H   0  0  0  0  0  0  0  0  0  0  0  0
   14.3969    3.5771    8.0244 H   0  0  0  0  0  0  0  0  0  0  0  0
   10.6938    3.6770    7.5159 H   0  0  0  0  0  0  0  0  0  0  0  0
    9.5447    2.6575    5.6150 H   0  0  0  0  0  0  0  0  0  0  0  0
   11.4424   -0.6342    4.8974 H   0  0  0  0  0  0  0  0  0  0  0  0
   12.4275   -2.6949    3.9854 H   0  0  0  0  0  0  0  0  0  0  0  0
   13.0986   -3.2439    0.3368 H   0  0  0  0  0  0  0  0  0  0  0  0
   12.3706   -4.1645    1.6633 H   0  0  0  0  0  0  0  0  0  0  0  0
   13.9593   -3.4410    1.8662 H   0  0  0  0  0  0  0  0  0  0  0  0
   12.1197   -1.0983    0.0393 H   0  0  0  0  0  0  0  0  0  0  0  0
   11.1606    0.9732    0.9540 H   0  0  0  0  0  0  0  0  0  0  0  0
    2.6687    1.8097    0.4392 H   0  0  0  0  0  0  0  0  0  0  0  0
    1.5503    0.8801   -1.5336 H   0  0  0  0  0  0  0  0  0  0  0  0
    1.6838    0.0685   -3.8322 H   0  0  0  0  0  0  0  0  0  0  0  0
    3.2563   -0.2221   -4.5926 H   0  0  0  0  0  0  0  0  0  0  0  0
    2.5718   -1.4174   -3.4959 H   0  0  0  0  0  0  0  0  0  0  0  0
    5.3374   -0.0494   -3.2500 H   0  0  0  0  0  0  0  0  0  0  0  0
    6.4672    0.8979   -1.2944 H   0  0  0  0  0  0  0  0  0  0  0  0
    4.2124    4.0674   -0.1275 H   0  0  0  0  0  0  0  0  0  0  0  0
    3.2643    5.9407    1.1465 H   0  0  0  0  0  0  0  0  0  0  0  0
    2.5639    6.9138    3.2048 H   0  0  0  0  0  0  0  0  0  0  0  0
    3.8981    6.7440    4.3488 H   0  0  0  0  0  0  0  0  0  0  0  0
    2.4007    5.8602    4.6174 H   0  0  0  0  0  0  0  0  0  0  0  0
    4.1394    3.9125    4.7947 H   0  0  0  0  0  0  0  0  0  0  0  0
    5.0622    2.0222    3.5239 H   0  0  0  0  0  0  0  0  0  0  0  0
    8.4384   -2.8275    0.9930 H   0  0  0  0  0  0  0  0  0  0  0  0
   10.5682   -3.3841   -0.0940 H   0  0  0  0  0  0  0  0  0  0  0  0
   10.7956   -3.2205   -2.5433 H   0  0  0  0  0  0  0  0  0  0  0  0
    8.3107   -1.6841   -4.7413 H   0  0  0  0  0  0  0  0  0  0  0  0
    9.9217   -2.4105   -4.6540 H   0  0  0  0  0  0  0  0  0  0  0  0
    8.8909   -4.6803   -4.5642 H   0  0  0  0  0  0  0  0  0  0  0  0
    7.2837   -3.9600   -4.6354 H   0  0  0  0  0  0  0  0  0  0  0  0
    8.3783   -3.8136   -6.0160 H   0  0  0  0  0  0  0  0  0  0  0  0
    6.7466   -1.9134   -2.8179 H   0  0  0  0  0  0  0  0  0  0  0  0
   -8.5097   -5.3561   -1.7678 H   0  0  0  0  0  0  0  0  0  0  0  0
   -9.8691   -6.9489   -3.0614 H   0  0  0  0  0  0  0  0  0  0  0  0
   -9.2825   -7.4686   -5.3964 H   0  0  0  0  0  0  0  0  0  0  0  0
   -6.8085   -5.6205   -7.3501 H   0  0  0  0  0  0  0  0  0  0  0  0
   -8.0510   -6.8806   -7.3969 H   0  0  0  0  0  0  0  0  0  0  0  0
   -6.4629   -8.4824   -6.3332 H   0  0  0  0  0  0  0  0  0  0  0  0
   -5.7951   -7.8347   -7.8353 H   0  0  0  0  0  0  0  0  0  0  0  0
   -5.2264   -7.2271   -6.2759 H   0  0  0  0  0  0  0  0  0  0  0  0
   -5.9763   -4.7862   -5.1582 H   0  0  0  0  0  0  0  0  0  0  0  0
    0.9962   -1.3632    1.3934 H   0  0  0  0  0  0  0  0  0  0  0  0
   -0.2415   -2.6346    1.1747 H   0  0  0  0  0  0  0  0  0  0  0  0
    2.5535   -3.0799    2.2994 H   0  0  0  0  0  0  0  0  0  0  0  0
    1.3720   -4.3504    1.9616 H   0  0  0  0  0  0  0  0  0  0  0  0
    1.0302   -3.1201    3.1838 H   0  0  0  0  0  0  0  0  0  0  0  0
   -2.9808   -1.3068   -0.5445 H   0  0  0  0  0  0  0  0  0  0  0  0
   -1.6291   -1.5132    0.5588 H   0  0  0  0  0  0  0  0  0  0  0  0
   -1.2627    0.4209   -0.9479 H   0  0  0  0  0  0  0  0  0  0  0  0
   -0.0479   -0.8235   -1.2717 H   0  0  0  0  0  0  0  0  0  0  0  0
   -1.4215   -0.6251   -2.3635 H   0  0  0  0  0  0  0  0  0  0  0  0
   -8.9918   -3.0628   -3.4946 H   0  0  0  0  0  0  0  0  0  0  0  0
  -12.7819   -0.9338   -5.3035 H   0  0  0  0  0  0  0  0  0  0  0  0
  -10.7132   -5.5408   -6.9340 H   0  0  0  0  0  0  0  0  0  0  0  0
  -12.2468   -5.1141   -7.7137 H   0  0  0  0  0  0  0  0  0  0  0  0
  -13.4853   -6.3338   -5.9137 H   0  0  0  0  0  0  0  0  0  0  0  0
  -12.3345   -7.4038   -6.7188 H   0  0  0  0  0  0  0  0  0  0  0  0
  -11.9532   -6.7290   -5.1285 H   0  0  0  0  0  0  0  0  0  0  0  0
   -9.5976    3.2737    4.2017 H   0  0  0  0  0  0  0  0  0  0  0  0
   -8.2464    3.1355    3.0610 H   0  0  0  0  0  0  0  0  0  0  0  0
   -7.6711    2.3879    5.3736 H   0  0  0  0  0  0  0  0  0  0  0  0
   -8.9049    1.1303    5.2704 H   0  0  0  0  0  0  0  0  0  0  0  0
   -7.6776    0.0655    3.3813 H   0  0  0  0  0  0  0  0  0  0  0  0
   -6.6233    0.2378    4.7828 H   0  0  0  0  0  0  0  0  0  0  0  0
   -6.4766    1.3547    3.4239 H   0  0  0  0  0  0  0  0  0  0  0  0
  -12.5642   -0.0337    2.0802 H   0  0  0  0  0  0  0  0  0  0  0  0
  -13.3069    1.1864    0.2503 H   0  0  0  0  0  0  0  0  0  0  0  0
  -16.3141    1.0057   -2.1541 H   0  0  0  0  0  0  0  0  0  0  0  0
  -20.1887    4.4335    1.4929 H   0  0  0  0  0  0  0  0  0  0  0  0
  -18.8163    5.4831    2.9827 H   0  0  0  0  0  0  0  0  0  0  0  0
  -16.5060    5.9110    3.6655 H   0  0  0  0  0  0  0  0  0  0  0  0
  -14.6122    4.9804    2.4023 H   0  0  0  0  0  0  0  0  0  0  0  0
  1  2  2  0  0  0  0
  2  3  1  0  0  0  0
  3  4  2  0  0  0  0
  3  5  1  0  0  0  0
  5  6  2  0  0  0  0
  6  7  1  0  0  0  0
  7  8  2  0  0  0  0
  8  9  1  0  0  0  0
  9 10  1  0  0  0  0
  9 11  2  0  0  0  0
 11 12  1  0  0  0  0
  6 13  1  0  0  0  0
 13 14  2  0  0  0  0
 14 15  1  0  0  0  0
 15 16  3  0  0  0  0
 14 17  1  0  0  0  0
 17 18  3  0  0  0  0
  1 19  1  0  0  0  0
 19 20  2  0  0  0  0
 20 21  1  0  0  0  0
 21 22  1  0  0  0  0
 22 23  2  0  0  0  0
 23 24  1  0  0  0  0
 24 25  2  0  0  0  0
 25 26  1  0  0  0  0
 25 27  1  0  0  0  0
 27 28  2  0  0  0  0
 21 29  1  0  0  0  0
 29 30  2  0  0  0  0
 30 31  1  0  0  0  0
 31 32  2  0  0  0  0
 32 33  1  0  0  0  0
 32 34  1  0  0  0  0
 34 35  2  0  0  0  0
 20 36  1  0  0  0  0
 36 37  1  0  0  0  0
 37 38  1  0  0  0  0
 38 39  2  0  0  0  0
 39 40  1  0  0  0  0
 40 41  1  0  0  0  0
 41 42  2  0  0  0  0
 42 43  1  0  0  0  0
 43 44  2  0  0  0  0
 44 45  1  0  0  0  0
 44 46  1  0  0  0  0
 46 47  2  0  0  0  0
 40 48  1  0  0  0  0
 48 49  2  0  0  0  0
 49 50  1  0  0  0  0
 50 51  2  0  0  0  0
 51 52  1  0  0  0  0
 51 53  1  0  0  0  0
 53 54  2  0  0  0  0
 39 55  1  0  0  0  0
 55 56  1  0  0  0  0
 38 57  1  0  0  0  0
 57 58  2  0  0  0  0
 58 59  1  0  0  0  0
 59 60  2  0  0  0  0
 60 61  1  0  0  0  0
 61 62  2  0  0  0  0
 62 63  1  0  0  0  0
 63 64  1  0  0  0  0
 64 65  1  0  0  0  0
 63 66  2  0  0  0  0
 58 67  1  0  0  0  0
 67 68  1  0  0  0  0
 68 69  1  0  0  0  0
 69 70  1  0  0  0  0
 70 71  1  0  0  0  0
 71 72  1  0  0  0  0
 72 73  2  0  0  0  0
 73 74  1  0  0  0  0
 74 75  1  0  0  0  0
 72 76  1  0  0  0  0
 76 77  1  0  0  0  0
 77 78  1  0  0  0  0
 78 79  1  0  0  0  0
 79 80  1  0  0  0  0
 80 81  1  0  0  0  0
 81 82  2  0  0  0  0
 82 83  1  0  0  0  0
 83 84  2  0  0  0  0
 84 85  1  0  0  0  0
 85 86  1  0  0  0  0
 86 87  1  0  0  0  0
 85 88  2  0  0  0  0
 80 89  2  0  0  0  0
 89 90  1  0  0  0  0
 90 91  1  0  0  0  0
 91 92  1  0  0  0  0
 92 93  1  0  0  0  0
 93 94  1  0  0  0  0
 94 95  1  0  0  0  0
 95 96  1  0  0  0  0
 96 97  1  0  0  0  0
 97 98  1  0  0  0  0
 98 99  1  0  0  0  0
 96100  1  0  0  0  0
100101  1  0  0  0  0
 93102  1  0  0  0  0
102103  1  0  0  0  0
 89104  1  0  0  0  0
104105  2  0  0  0  0
105106  1  0  0  0  0
106107  2  0  0  0  0
107108  1  0  0  0  0
108109  2  0  0  0  0
109110  1  0  0  0  0
110111  1  0  0  0  0
110112  2  0  0  0  0
112113  1  0  0  0  0
113114  1  0  0  0  0
112115  1  0  0  0  0
107116  1  0  0  0  0
116117  2  0  0  0  0
117118  1  0  0  0  0
118119  1  0  0  0  0
119120  1  0  0  0  0
120121  1  0  0  0  0
121122  1  0  0  0  0
122123  1  0  0  0  0
123124  1  0  0  0  0
121125  2  0  0  0  0
125126  1  0  0  0  0
125127  1  0  0  0  0
118128  2  0  0  0  0
128129  1  0  0  0  0
117130  1  0  0  0  0
130131  2  0  0  0  0
131132  1  0  0  0  0
131133  1  0  0  0  0
133134  2  0  0  0  0
134135  1  0  0  0  0
135136  2  0  0  0  0
135137  1  0  0  0  0
137138  2  0  0  0  0
138139  1  0  0  0  0
138140  1  0  0  0  0
140141  2  0  0  0  0
141142  1  0  0  0  0
142143  2  0  0  0  0
143144  1  0  0  0  0
144145  2  0  0  0  0
145146  1  0  0  0  0
146147  3  0  0  0  0
145148  1  0  0  0  0
148149  3  0  0  0  0
 13  2  1  0  0  0  0
 56 19  1  0  0  0  0
 99 57  1  0  0  0  0
129104  1  0  0  0  0
144134  1  0  0  0  0
 11  5  1  0  0  0  0
 28 22  1  0  0  0  0
 35 29  1  0  0  0  0
 55 36  2  0  0  0  0
 66 59  1  0  0  0  0
 98 67  2  0  0  0  0
128106  1  0  0  0  0
143137  1  0  0  0  0
 47 41  1  0  0  0  0
 54 48  1  0  0  0  0
 97 69  2  0  0  0  0
115108  1  0  0  0  0
132116  1  0  0  0  0
 95 70  2  0  0  0  0
126119  2  0  0  0  0
 75 71  2  0  0  0  0
 94 76  2  0  0  0  0
 92 77  2  0  0  0  0
 91 79  2  0  0  0  0
 88 81  1  0  0  0  0
  1150  1  0  0  0  0
  7151  1  0  0  0  0
  8152  1  0  0  0  0
 23153  1  0  0  0  0
 24154  1  0  0  0  0
 26155  1  0  0  0  0
 26156  1  0  0  0  0
 26157  1  0  0  0  0
 27158  1  0  0  0  0
 28159  1  0  0  0  0
 30160  1  0  0  0  0
 31161  1  0  0  0  0
 33162  1  0  0  0  0
 33163  1  0  0  0  0
 33164  1  0  0  0  0
 34165  1  0  0  0  0
 35166  1  0  0  0  0
 42167  1  0  0  0  0
 43168  1  0  0  0  0
 45169  1  0  0  0  0
 45170  1  0  0  0  0
 45171  1  0  0  0  0
 46172  1  0  0  0  0
 47173  1  0  0  0  0
 49174  1  0  0  0  0
 50175  1  0  0  0  0
 52176  1  0  0  0  0
 52177  1  0  0  0  0
 52178  1  0  0  0  0
 53179  1  0  0  0  0
 54180  1  0  0  0  0
 60181  1  0  0  0  0
 61182  1  0  0  0  0
 62183  1  0  0  0  0
 64184  1  0  0  0  0
 64185  1  0  0  0  0
 65186  1  0  0  0  0
 65187  1  0  0  0  0
 65188  1  0  0  0  0
 66189  1  0  0  0  0
 82190  1  0  0  0  0
 83191  1  0  0  0  0
 84192  1  0  0  0  0
 86193  1  0  0  0  0
 86194  1  0  0  0  0
 87195  1  0  0  0  0
 87196  1  0  0  0  0
 87197  1  0  0  0  0
 88198  1  0  0  0  0
100199  1  0  0  0  0
100200  1  0  0  0  0
101201  1  0  0  0  0
101202  1  0  0  0  0
101203  1  0  0  0  0
102204  1  0  0  0  0
102205  1  0  0  0  0
103206  1  0  0  0  0
103207  1  0  0  0  0
103208  1  0  0  0  0
105209  1  0  0  0  0
109210  1  0  0  0  0
113211  1  0  0  0  0
113212  1  0  0  0  0
114213  1  0  0  0  0
114214  1  0  0  0  0
114215  1  0  0  0  0
122216  1  0  0  0  0
122217  1  0  0  0  0
123218  1  0  0  0  0
123219  1  0  0  0  0
124220  1  0  0  0  0
124221  1  0  0  0  0
124222  1  0  0  0  0
126223  1  0  0  0  0
130224  1  0  0  0  0
133225  1  0  0  0  0
139226  1  0  0  0  0
140227  1  0  0  0  0
141228  1  0  0  0  0
142229  1  0  0  0  0
M  END
