246

C         -0.35990       -2.52260      -12.76890
C         -1.55000       -2.07080      -13.28880
C         -1.57450       -1.49170      -14.64470
O         -0.69340       -1.53410      -15.47490
C         -2.89190       -0.81270      -14.74840
C         -3.63800       -1.06750      -13.58210
C         -4.89190       -0.50580      -13.41880
C         -5.39230        0.30330      -14.42940
C         -4.66320        0.53910      -15.58360
Br        -5.40590        1.64000      -16.92940
C         -3.39210       -0.01780      -15.76520
Cl        -2.48930        0.27530      -17.19100
C         -2.86590       -1.97130      -12.72690
C         -3.40530       -2.78150      -11.75320
C         -2.71990       -3.88200      -11.20400
N         -2.21750       -4.83240      -10.79760
C         -4.73320       -2.68580      -11.30720
N         -5.81030       -2.64080      -10.90840
C          0.01400       -2.65900      -11.43260
C          1.22000       -3.22540      -10.96410
N          2.09810       -3.93260      -11.73040
C          1.66690       -4.70740      -12.83020
C          0.50960       -5.47510      -12.74340
C          0.10100       -6.22310      -13.82940
C          0.83310       -6.23810      -15.01130
C          0.37110       -7.02830      -16.19570
C          1.99830       -5.48280      -15.07700
C          2.41580       -4.72300      -14.00240
C          3.46640       -3.94090      -11.40150
C          4.20750       -5.11580      -11.49580
C          5.56360       -5.09840      -11.24480
C          6.21570       -3.92160      -10.89120
C          7.69960       -3.90610      -10.69210
C          5.46240       -2.76140      -10.77050
C          4.10510       -2.76280      -11.02540
C          1.37500       -3.00650       -9.58180
S          2.57460       -3.44260       -8.41000
C          1.60820       -2.73960       -7.11760
C          0.43880       -2.15130       -7.59920
N         -0.56230       -1.53750       -6.84550
C         -0.32130       -0.35950       -6.14190
C          0.79270        0.42910       -6.42710
C          1.05910        1.55780       -5.67840
C          0.22760        1.94240       -4.63420
C          0.51710        3.17880       -3.83860
C         -0.88760        1.15840       -4.36240
C         -1.16170        0.02290       -5.09510
C         -1.86880       -2.00850       -7.08970
C         -2.93820       -1.14100       -7.29330
C         -4.20230       -1.64640       -7.52040
C         -4.43660       -3.01740       -7.56490
C         -5.81870       -3.54230       -7.79160
C         -3.35610       -3.87340       -7.39800
C         -2.08830       -3.38100       -7.15900
C          0.31930       -2.32720       -8.99120
S         -0.90630       -1.90080      -10.12570
C          2.03420       -2.88300       -5.77240
C          3.11410       -3.61500       -5.30080
C          4.08900       -4.33020       -6.14230
C          5.15150       -3.61640       -6.68710
C          6.10070       -4.25450       -7.46040
C          5.98670       -5.61260       -7.69940
C          4.93920       -6.32610       -7.14760
C          3.98460       -5.70630       -6.35280
C          2.85450       -6.50620       -5.76890
C          1.62760       -6.48900       -6.68250
C          3.20190       -3.56610       -3.90290
S          4.34900       -4.24160       -2.76970
C          3.50130       -3.44580       -1.48460
C          3.65040       -3.20250       -0.11020
C          4.68440       -3.53850        0.79150
C          4.68970       -2.94150        2.09830
N          5.75670       -3.28130        2.80420
S          6.67050       -4.27320        1.90920
N          5.74410       -4.30350        0.58160
C          3.59910       -2.13300        2.48530
C          3.30840       -1.45830        3.68430
S          4.04260       -1.13790        5.21960
C          2.63060       -0.21330        5.66870
C          2.29730        0.48680        6.84630
C          3.19240        0.46690        8.01300
C          2.83100       -0.16660        9.20380
C          1.49430       -0.83290        9.37600
C          1.47490       -2.19480        8.67910
C          3.77450       -0.25180       10.21890
C          5.04120        0.28000       10.07330
C          5.39110        0.90820        8.89110
C          4.47270        0.99050        7.86390
C          1.06500        1.09530        6.72720
S          0.28590        0.75510        5.18240
C          1.64880       -0.17860        4.67710
C          2.03920       -0.89310        3.53820
N          1.53110       -1.18300        2.29610
C          2.49250       -1.91820        1.61960
C          2.57930       -2.34790        0.27260
N          1.82160       -2.05970       -0.84860
C          2.38190       -2.72290       -1.90910
C          2.20510       -2.79660       -3.29510
S          1.11080       -2.15640       -4.46420
C          0.90450       -0.96540       -1.08630
C         -0.50300       -1.45110       -1.43050
C          0.09570       -1.22280        2.11640
C         -0.55620       -2.22600        3.06850
C          0.37120        1.95580        7.63120
C          0.86670        2.84480        8.56550
N          2.22640        3.15420        8.76270
C          2.77540        2.99860       10.03580
C          4.07480        3.43220       10.29640
C          4.64660        3.22940       11.53500
C          3.95810        2.58110       12.55210
C          4.57720        2.38490       13.90300
C          2.67520        2.12840       12.28010
C          2.09050        2.32460       11.04490
C          2.66570        4.21980        7.92660
C          2.84910        4.00600        6.56770
C          3.24330        5.04710        5.74630
C          3.45950        6.31960        6.25540
C          3.90540        7.44640        5.37470
C          3.25770        6.52840        7.61600
C          2.85860        5.49840        8.44290
C         -0.18340        3.51900        9.22890
S         -0.21540        4.77270       10.40780
C         -1.98710        4.77510       10.39150
C         -2.50660        3.89410        9.41770
N         -3.80030        3.80760        8.99120
C         -4.72330        4.85520        9.10390
C         -4.34420        6.18420        8.91700
C         -5.26380        7.19770        9.08350
C         -6.58460        6.92500        9.43300
C         -7.55410        8.04210        9.65760
C         -6.96740        5.59680        9.56170
C         -6.05500        4.57100        9.40110
C         -4.23090        2.61690        8.36300
C         -3.98190        1.38110        8.95230
C         -4.39370        0.22570        8.32030
C         -5.06010        0.27260        7.09980
C         -5.47940       -0.99460        6.42070
C         -5.32070        1.51370        6.53330
C         -4.91310        2.67910        7.15380
C         -1.45870        3.16540        8.80990
S         -1.38410        1.97120        7.55800
C         -2.61800        5.64710       11.28100
C         -3.90860        5.53620       11.75160
C         -4.64840        4.25990       11.83590
O         -4.25610        3.15200       11.52450
C         -5.90510        4.62440       12.49720
S         -7.33610        3.81070       12.96040
C         -7.98960        5.31780       13.54740
Cl        -9.55130        5.36390       14.22910
C         -7.14490        6.38220       13.39600
C         -5.94190        5.97640       12.79110
C         -4.70600        6.58550       12.32940
C         -4.45360        7.93450       12.31150
C         -3.31530        8.52570       11.73290
N         -2.42580        9.06970       11.25100
C         -5.37740        8.86850       12.81610
N         -6.12650        9.64660       13.20630
H          0.42180       -2.67880      -13.50510
H         -5.47520       -0.67230      -12.52850
H         -6.36510        0.75790      -14.32230
H         -0.07360       -5.47720      -11.83470
H         -0.80160       -6.81080      -13.75100
H         -0.30840       -7.82140      -15.89410
H          1.21580       -7.46540      -16.72380
H         -0.15630       -6.37530      -16.89170
H          2.58200       -5.48100      -15.98570
H          3.31680       -4.13080      -14.06860
H          3.71390       -6.03450      -11.77510
H          6.12970       -6.01420      -11.33170
H          8.20270       -3.94750      -11.65880
H          8.01780       -2.99870      -10.18520
H          8.02390       -4.76880      -10.11430
H          5.94570       -1.83600      -10.49340
H          3.53900       -1.84500      -10.96060
H          1.45160        0.15030       -7.23680
H          1.92950        2.15390       -5.91290
H          1.58810        3.30490       -3.69400
H          0.14580        4.05880       -4.36520
H          0.03150        3.13830       -2.86630
H         -1.54900        1.43710       -3.55410
H         -2.01720       -0.58850       -4.85150
H         -2.77160       -0.07390       -7.27600
H         -5.02630       -0.96500       -7.67550
H         -5.84630       -4.62370       -7.68640
H         -6.51610       -3.09990       -7.08200
H         -6.15550       -3.28320       -8.79520
H         -3.50630       -4.94160       -7.44940
H         -1.26080       -4.06190       -7.01980
H          5.22580       -2.55570       -6.49520
H          6.92670       -3.69410       -7.86860
H          6.72070       -6.12150       -8.30580
H          4.86230       -7.38920       -7.32560
H          2.58010       -6.10750       -4.79040
H          3.18190       -7.53870       -5.63330
H          1.22540       -5.48250       -6.76490
H          1.89220       -6.83380       -7.67960
H          0.85110       -7.13750       -6.28370
H          1.30000       -0.97340       10.44090
H          0.69680       -0.20980        8.96940
H          1.63930       -2.08050        7.61000
H          0.51610       -2.68550        8.83130
H          2.26060       -2.83300        9.07690
H          3.50780       -0.74920       11.14020
H          5.75420        0.20180       10.87990
H          6.37930        1.32370        8.76510
H          4.74150        1.47160        6.93490
H          0.90550       -0.30850       -0.21600
H          1.28400       -0.38880       -1.93840
H         -0.88080       -2.15430       -0.69150
H         -0.50100       -1.94800       -2.39640
H         -1.17790       -0.60200       -1.48660
H         -0.30450       -0.22110        2.30430
H         -0.13000       -1.51970        1.09870
H         -1.62520       -2.26590        2.87760
H         -0.13480       -3.21740        2.91550
H         -0.40240       -1.93840        4.10470
H          4.64080        3.92110        9.51840
H          5.65430        3.57800       11.71160
H          4.22370        1.46380       14.36140
H          5.66180        2.34960       13.83060
H          4.31050        3.21170       14.56290
H          2.11900        1.60870       13.04760
H          1.09860        1.93890       10.86440
H          2.68460        3.02450        6.15340
H          3.38650        4.86190        4.69110
H          4.94610        7.69530        5.58250
H          3.82060        7.17820        4.32460
H          3.30810        8.33730        5.56020
H          3.40400        7.51560        8.02980
H          2.69020        5.67760        9.49490
H         -3.32590        6.42160        8.64750
H         -4.95040        8.22280        8.94910
H         -7.69440        8.61310        8.74040
H         -7.17780        8.72650       10.41720
H         -8.51910        7.66110        9.98130
H         -7.99120        5.35780        9.81070
H         -6.36270        3.54320        9.52350
H         -3.49260        1.34730        9.91300
H         -4.20100       -0.73100        8.78320
H         -6.08950       -0.78590        5.54580
H         -4.60140       -1.55720        6.10430
H         -6.04830       -1.62380        7.10300
H         -5.84480        1.57230        5.59050
H         -5.11580        3.64010        6.70350
H         -2.01070        6.46910       11.64110
H         -7.38540        7.38210       13.70510
