252

C          1.05710       -4.99130       11.47000
C          1.25490       -5.87700       12.51340
C          0.93140       -7.30020       12.50360
O          0.52330       -7.97340       11.57440
C          1.16760       -7.77570       13.88690
C          1.60620       -6.69890       14.67860
C          1.88630       -6.89680       16.02010
C          1.72330       -8.16810       16.55320
C          1.29660       -9.22610       15.76740
Br         1.10000      -10.93620       16.55000
C          1.01080       -9.04720       14.40940
Cl         0.49630      -10.35310       13.42990
C          1.69670       -5.50810       13.83140
C          2.15920       -4.28000       14.24680
C          2.39210       -3.17000       13.41370
N          2.64810       -2.22790       12.80550
C          2.50240       -3.97270       15.57740
N          2.77970       -3.65240       16.64540
C          0.65970       -5.21420       10.15950
C          0.47760       -4.16450        9.21600
N          0.48050       -2.82610        9.49410
C          0.92430       -1.93920        8.49130
C          0.19160       -0.80060        8.17320
C          0.63090        0.04420        7.17360
C          1.79930       -0.22230        6.46910
C          2.27350        0.70100        5.39000
C          2.53200       -1.35430        6.80580
C          2.10700       -2.20440        7.80640
C         -0.05620       -2.28500       10.67690
C         -1.17950       -2.85090       11.27490
C         -1.69050       -2.30690       12.43610
C         -1.11410       -1.18340       13.01800
C         -1.65200       -0.60390       14.28930
C         -0.01130       -0.60960       12.39610
C          0.52010       -1.15030       11.24260
C          0.29700       -4.68520        7.92660
S          0.05430       -3.97070        6.36860
C         -0.07850       -5.56960        5.63700
C          0.11230       -6.59510        6.55500
N          0.19390       -7.94830        6.28110
C         -0.25030       -8.81880        7.30090
C          0.54750       -9.85720        7.76720
C          0.10010      -10.66570        8.79410
C         -1.13960      -10.45870        9.38360
C         -1.62070      -11.31490       10.51330
C         -1.92970       -9.41750        8.91090
C         -1.49620       -8.60530        7.88390
C          0.88510       -8.44760        5.17490
C          0.64440       -9.74920        4.73530
C          1.31390      -10.25350        3.63980
C          2.22980       -9.48160        2.93450
C          2.91390      -10.02060        1.71520
C          2.47790       -8.19260        3.38590
C          1.83010       -7.68290        4.49430
C          0.29140       -6.07370        7.86210
S          0.48460       -6.80820        9.41270
C         -0.33350       -5.59460        4.23260
C         -1.10670       -6.43650        3.46030
C         -1.91720       -7.57700        3.90810
C         -1.71040       -8.79370        3.26460
C         -2.44140       -9.91290        3.61040
C         -3.39910       -9.82210        4.60430
C         -3.64330       -8.60370        5.21000
C         -2.92450       -7.46430        4.87120
C         -3.33080       -6.13990        5.45730
C         -4.09930       -5.31330        4.42440
C         -1.08960       -6.03870        2.10600
S         -1.91890       -6.65250        0.69510
C         -1.28860       -5.32570       -0.22500
C         -1.43840       -4.74560       -1.49690
C         -2.30280       -5.04450       -2.57420
C         -2.44930       -4.08890       -3.64020
N         -3.35980       -4.45880       -4.52670
S         -3.97230       -5.88660       -4.07120
N         -3.10500       -6.08700       -2.71870
C         -1.63070       -2.93800       -3.64920
C         -1.53250       -1.84200       -4.52710
S         -2.33070       -1.19370       -5.92220
C         -1.26260        0.19170       -5.86750
C         -1.16740        1.36610       -6.63420
C         -2.00660        1.71990       -7.78960
C         -3.36910        2.00210       -7.65780
C         -4.06980        1.94320       -6.32980
C         -3.63320        3.07460       -5.39890
C         -4.07310        2.38520       -8.79160
C         -3.46000        2.48080      -10.02680
C         -2.11510        2.18070      -10.15390
C         -1.39540        1.80340       -9.03780
C         -0.12850        2.17190       -6.20110
S          0.71630        1.49100       -4.81530
C         -0.31790        0.11120       -4.84220
C         -0.47880       -1.04580       -4.07330
N          0.08210       -1.59580       -2.94780
C         -0.64470       -2.73720       -2.64710
C         -0.64560       -3.56590       -1.50030
N         -0.05790       -3.42060       -0.25810
C         -0.45760       -4.47900        0.51430
C         -0.35050       -4.88380        1.85040
S          0.38680       -4.28940        3.29260
C          0.51480       -2.24480        0.35880
C          1.98270       -2.44660        0.73400
C          1.47880       -1.35100       -2.65720
C          2.36940       -1.74200       -3.83660
C          0.18570        3.49000       -6.63850
C          1.38000        4.18310       -6.47360
N          2.57350        3.63260       -6.02940
C          3.00590        2.38960       -6.50340
C          3.81330        1.57760       -5.70920
C          4.21100        0.33480       -6.16110
C          3.80610       -0.14490       -7.39950
C          4.21530       -1.50200       -7.88420
C          3.00650        0.67370       -8.19010
C          2.61710        1.92460       -7.75890
C          3.40370        4.42880       -5.22440
C          2.84480        5.21030       -4.21640
C          3.64810        6.01870       -3.43760
C          5.02300        6.06400       -3.63230
C          5.88660        6.96110       -2.80000
C          5.57300        5.27530       -4.63610
C          4.78000        4.47040       -5.42880
C          1.24020        5.53320       -6.86690
S          2.31300        6.88690       -6.91270
C          1.01890        7.91130       -7.54540
C         -0.14440        7.18050       -7.82460
N         -1.22750        7.61800       -8.54840
C         -2.48380        7.01740       -8.30470
C         -2.97960        6.94870       -7.00670
C         -4.22290        6.39870       -6.77350
C         -4.99070        5.89320       -7.81780
C         -6.34460        5.31650       -7.54300
C         -4.47860        5.95460       -9.10680
C         -3.24060        6.51440       -9.35580
C         -1.12180        8.56000       -9.58480
C         -2.18580        9.42330       -9.84280
C         -2.07180       10.40390      -10.80850
C         -0.90620       10.54730      -11.55120
C         -0.76960       11.61890      -12.58870
C          0.13350        9.65340      -11.31950
C          0.03180        8.67000      -10.35650
C         -0.01280        5.84820       -7.37300
S         -1.06760        4.47860       -7.37650
C          1.25290        9.29370       -7.68360
C          0.30470       10.26490       -7.57750
S         -1.31350       10.02880       -6.94560
C         -1.74930       11.66160       -7.37190
C         -3.05230       12.08740       -7.29970
C         -4.04160       11.18150       -6.87160
N         -4.83950       10.42580       -6.54020
C         -3.51230       13.35310       -7.69810
N         -3.96540       14.35520       -8.03020
N         -0.67950       12.36220       -7.82330
C         -0.74090       13.74600       -8.15410
C         -0.58160       14.13330       -9.47470
C         -0.62510       15.47860       -9.79230
C         -0.82360       16.42220       -8.79890
C         -0.96870       16.02650       -7.48010
C         -0.92270       14.68510       -7.14940
C          0.51330       11.64810       -7.96780
O          1.53500       12.13800       -8.39090
H          1.24040       -3.95080       11.70510
H          2.22320       -6.09490       16.65530
H          1.93360       -8.34230       17.59720
H         -0.72440       -0.59020        8.70510
H          0.04970        0.92120        6.92870
H          2.80920        0.15140        4.61950
H          2.95340        1.44410        5.80790
H          1.43810        1.22750        4.93480
H          3.44930       -1.57240        6.27870
H          2.68770       -3.07760        8.06610
H         -1.64400       -3.71880       10.82990
H         -2.55910       -2.75920       12.89270
H         -1.78520        0.47220       14.19380
H         -2.60550       -1.05450       14.55290
H         -0.95040       -0.77920       15.10500
H          0.45100        0.26310       12.83150
H          1.38850       -0.70610       10.78260
H          1.52250      -10.01910        7.33130
H          0.73580      -11.46220        9.15300
H         -0.92250      -12.12230       10.71860
H         -1.72800      -10.71110       11.41360
H         -2.59520      -11.74400       10.28370
H         -2.89640       -9.23890        9.35920
H         -2.11290       -7.79390        7.52870
H         -0.07750      -10.36040        5.25470
H          1.11080      -11.26480        3.31820
H          3.87460       -9.53450        1.56130
H          3.07070      -11.09340        1.80200
H          2.29960       -9.84180        0.83150
H          3.20020       -7.57590        2.86960
H          2.07910       -6.69160        4.84160
H         -0.95670       -8.85600        2.49410
H         -2.26140      -10.85030        3.10640
H         -3.97010      -10.69180        4.89360
H         -4.41980       -8.52980        5.95850
H         -3.97430       -6.31090        6.32330
H         -2.46250       -5.57280        5.79260
H         -4.42060       -4.36940        4.85890
H         -4.97690       -5.85740        4.08240
H         -3.47290       -5.10090        3.56120
H         -3.87600        0.98420       -5.84680
H         -5.14600        2.01650       -6.49820
H         -2.58840        2.96540       -5.12040
H         -3.75420        4.03620       -5.89200
H         -4.23130        3.06420       -4.49030
H         -5.12460        2.61440       -8.70020
H         -4.03130        2.78500      -10.89120
H         -1.62870        2.24310      -11.11590
H         -0.34340        1.56830       -9.11960
H         -0.04960       -2.04120        1.27630
H          0.38180       -1.39320       -0.30840
H          2.39560       -1.51370        1.10730
H          2.57490       -2.77660       -0.11660
H          2.06820       -3.19800        1.51390
H          1.60970       -0.28730       -2.43260
H          1.76820       -1.94570       -1.79710
H          2.17100       -1.11870       -4.70420
H          3.41210       -1.61800       -3.55770
H          2.19980       -2.78250       -4.10620
H          4.11530        1.92320       -4.73190
H          4.83960       -0.27860       -5.53160
H          3.33840       -2.09750       -8.13510
H          4.82540       -1.41610       -8.78290
H          4.78900       -2.02930       -7.12620
H          2.69060        0.32560       -9.16320
H          2.01000        2.55100       -8.39610
H          1.77810        5.17590       -4.04720
H          3.19940        6.62150       -2.66130
H          5.46970        7.08650       -1.80330
H          6.89440        6.56160       -2.71470
H          5.95280        7.94630       -3.26300
H          6.63940        5.30000       -4.80810
H          5.22100        3.87560       -6.21500
H         -2.39420        7.34750       -6.19140
H         -4.61390        6.38010       -5.76690
H         -7.01770        6.09870       -7.19330
H         -6.28610        4.55770       -6.76450
H         -6.76990        4.87220       -8.43930
H         -5.05700        5.56470       -9.93140
H         -2.85480        6.56720      -10.36330
H         -3.09450        9.33520       -9.26420
H         -2.90050       11.07770      -10.97490
H         -1.56170       12.35810      -12.49350
H          0.19550       12.11600      -12.50190
H         -0.82780       11.18360      -13.58660
H          1.04060        9.73210      -11.90020
H          0.85240        7.98650      -10.19920
H          2.26730        9.62830       -7.86370
H         -0.42690       13.38290      -10.23410
H         -0.50750       15.78870      -10.81940
H         -0.86410       17.47050       -9.05250
H         -1.11860       16.76210       -6.70510
H         -1.03180       14.36500       -6.12330
