
  xtb     02062216583D
 energy: -382.207806286175 gnorm: 0.000679805168 xtb: 6.4.1 (unknown)
238258  0     0  0            999 V2000
   -8.6897   -6.3960    4.7448 C   0  0  0  0  0  0  0  0  0  0  0  0
   -9.8445   -6.6577    4.0488 C   0  0  0  0  0  0  0  0  0  0  0  0
  -10.3832   -8.0308    4.0120 C   0  0  0  0  0  0  0  0  0  0  0  0
  -10.0356   -8.9710    4.6917 O   0  0  0  0  0  0  0  0  0  0  0  0
  -11.4092   -8.0119    2.9379 C   0  0  0  0  0  0  0  0  0  0  0  0
  -11.5512   -6.6974    2.4541 C   0  0  0  0  0  0  0  0  0  0  0  0
  -12.4281   -6.4239    1.4191 C   0  0  0  0  0  0  0  0  0  0  0  0
  -13.1600   -7.4712    0.8776 C   0  0  0  0  0  0  0  0  0  0  0  0
  -13.0294   -8.7619    1.3646 C   0  0  0  0  0  0  0  0  0  0  0  0
  -14.0640  -10.1432    0.5923 Br  0  0  0  0  0  0  0  0  0  0  0  0
  -12.1470   -9.0575    2.4099 C   0  0  0  0  0  0  0  0  0  0  0  0
  -11.9853  -10.6530    3.0117 Cl  0  0  0  0  0  0  0  0  0  0  0  0
  -10.6824   -5.8180    3.2372 C   0  0  0  0  0  0  0  0  0  0  0  0
  -10.8561   -4.4592    3.3654 C   0  0  0  0  0  0  0  0  0  0  0  0
  -10.2431   -3.6954    4.3764 C   0  0  0  0  0  0  0  0  0  0  0  0
   -9.8192   -3.0510    5.2288 N   0  0  0  0  0  0  0  0  0  0  0  0
  -11.7399   -3.6942    2.5826 C   0  0  0  0  0  0  0  0  0  0  0  0
  -12.4292   -3.0142    1.9648 N   0  0  0  0  0  0  0  0  0  0  0  0
   -7.7993   -5.3342    4.5610 C   0  0  0  0  0  0  0  0  0  0  0  0
   -6.7738   -4.9262    5.4379 C   0  0  0  0  0  0  0  0  0  0  0  0
   -6.5736   -5.4218    6.6916 N   0  0  0  0  0  0  0  0  0  0  0  0
   -7.6329   -5.9251    7.4808 C   0  0  0  0  0  0  0  0  0  0  0  0
   -8.8467   -5.2495    7.5523 C   0  0  0  0  0  0  0  0  0  0  0  0
   -9.8701   -5.7621    8.3244 C   0  0  0  0  0  0  0  0  0  0  0  0
   -9.7066   -6.9366    9.0500 C   0  0  0  0  0  0  0  0  0  0  0  0
  -10.8287   -7.5055    9.8610 C   0  0  0  0  0  0  0  0  0  0  0  0
   -8.4783   -7.5851    8.9919 C   0  0  0  0  0  0  0  0  0  0  0  0
   -7.4477   -7.0897    8.2175 C   0  0  0  0  0  0  0  0  0  0  0  0
   -5.2968   -5.3268    7.2768 C   0  0  0  0  0  0  0  0  0  0  0  0
   -4.1609   -5.6456    6.5353 C   0  0  0  0  0  0  0  0  0  0  0  0
   -2.9100   -5.5380    7.1069 C   0  0  0  0  0  0  0  0  0  0  0  0
   -2.7571   -5.1242    8.4260 C   0  0  0  0  0  0  0  0  0  0  0  0
   -1.3896   -5.0071    9.0243 C   0  0  0  0  0  0  0  0  0  0  0  0
   -3.8976   -4.8336    9.1638 C   0  0  0  0  0  0  0  0  0  0  0  0
   -5.1560   -4.9308    8.6025 C   0  0  0  0  0  0  0  0  0  0  0  0
   -6.0147   -3.8817    4.8689 C   0  0  0  0  0  0  0  0  0  0  0  0
   -4.7099   -2.8848    5.4240 S   0  0  0  0  0  0  0  0  0  0  0  0
   -4.7756   -1.9397    3.9564 C   0  0  0  0  0  0  0  0  0  0  0  0
   -5.7490   -2.3876    3.0750 C   0  0  0  0  0  0  0  0  0  0  0  0
   -5.9805   -1.8451    1.7979 N   0  0  0  0  0  0  0  0  0  0  0  0
   -6.9306   -0.8230    1.6756 C   0  0  0  0  0  0  0  0  0  0  0  0
   -8.0200   -0.7606    2.5438 C   0  0  0  0  0  0  0  0  0  0  0  0
   -8.9361    0.2665    2.4433 C   0  0  0  0  0  0  0  0  0  0  0  0
   -8.7985    1.2674    1.4888 C   0  0  0  0  0  0  0  0  0  0  0  0
   -9.8114    2.3664    1.3895 C   0  0  0  0  0  0  0  0  0  0  0  0
   -7.7005    1.2131    0.6409 C   0  0  0  0  0  0  0  0  0  0  0  0
   -6.7747    0.1919    0.7308 C   0  0  0  0  0  0  0  0  0  0  0  0
   -5.2077   -2.3022    0.7258 C   0  0  0  0  0  0  0  0  0  0  0  0
   -3.9217   -2.8009    0.9233 C   0  0  0  0  0  0  0  0  0  0  0  0
   -3.1619   -3.2315   -0.1483 C   0  0  0  0  0  0  0  0  0  0  0  0
   -3.6545   -3.1896   -1.4437 C   0  0  0  0  0  0  0  0  0  0  0  0
   -2.8307   -3.6486   -2.6083 C   0  0  0  0  0  0  0  0  0  0  0  0
   -4.9545   -2.7309   -1.6314 C   0  0  0  0  0  0  0  0  0  0  0  0
   -5.7245   -2.3026   -0.5709 C   0  0  0  0  0  0  0  0  0  0  0  0
   -6.4394   -3.4904    3.6048 C   0  0  0  0  0  0  0  0  0  0  0  0
   -7.7736   -4.4247    3.0436 S   0  0  0  0  0  0  0  0  0  0  0  0
   -3.8423   -0.8934    3.7059 C   0  0  0  0  0  0  0  0  0  0  0  0
   -4.0186    0.2071    2.8936 C   0  0  0  0  0  0  0  0  0  0  0  0
   -2.8423    0.9323    2.7312 C   0  0  0  0  0  0  0  0  0  0  0  0
   -2.4092    2.0865    1.8813 C   0  0  0  0  0  0  0  0  0  0  0  0
   -2.9592    3.4357    2.3911 C   0  0  0  0  0  0  0  0  0  0  0  0
   -4.4747    3.4896    2.5365 C   0  0  0  0  0  0  0  0  0  0  0  0
   -2.7834    1.8590    0.4061 C   0  0  0  0  0  0  0  0  0  0  0  0
   -2.2286    0.5557   -0.1566 C   0  0  0  0  0  0  0  0  0  0  0  0
   -0.9056    2.0409    2.0919 C   0  0  0  0  0  0  0  0  0  0  0  0
   -0.5451    1.0641    3.0427 C   0  0  0  0  0  0  0  0  0  0  0  0
   -1.7616    0.3941    3.4093 C   0  0  0  0  0  0  0  0  0  0  0  0
   -2.1985   -1.0124    4.2997 S   0  0  0  0  0  0  0  0  0  0  0  0
    0.7975    0.8219    3.3883 C   0  0  0  0  0  0  0  0  0  0  0  0
    1.1481   -0.0632    4.3709 O   0  0  0  0  0  0  0  0  0  0  0  0
    0.5686    0.1108    5.6577 C   0  0  0  0  0  0  0  0  0  0  0  0
    0.5995   -1.2212    6.3903 C   0  0  0  0  0  0  0  0  0  0  0  0
    1.7635    1.4262    2.5934 C   0  0  0  0  0  0  0  0  0  0  0  0
    1.3823    2.3400    1.5784 C   0  0  0  0  0  0  0  0  0  0  0  0
    0.0551    2.7573    1.4003 C   0  0  0  0  0  0  0  0  0  0  0  0
   -0.3403    3.7361    0.5250 O   0  0  0  0  0  0  0  0  0  0  0  0
    0.3081    4.9937    0.6314 C   0  0  0  0  0  0  0  0  0  0  0  0
    0.2156    5.5989    2.0277 C   0  0  0  0  0  0  0  0  0  0  0  0
    2.5328    2.5572    0.7544 C   0  0  0  0  0  0  0  0  0  0  0  0
    3.5968    1.7999    1.2000 C   0  0  0  0  0  0  0  0  0  0  0  0
    3.2709    1.1739    2.5343 C   0  0  0  0  0  0  0  0  0  0  0  0
    4.0429    2.0269    3.5766 C   0  0  0  0  0  0  0  0  0  0  0  0
    3.4635    2.0582    4.9835 C   0  0  0  0  0  0  0  0  0  0  0  0
    3.6783   -0.3139    2.5079 C   0  0  0  0  0  0  0  0  0  0  0  0
    4.0006   -0.9980    3.8303 C   0  0  0  0  0  0  0  0  0  0  0  0
    4.6860    1.8138    0.3298 C   0  0  0  0  0  0  0  0  0  0  0  0
    4.4440    2.5755   -0.7928 C   0  0  0  0  0  0  0  0  0  0  0  0
    2.8607    3.3175   -0.7520 S   0  0  0  0  0  0  0  0  0  0  0  0
    5.2604    2.7130   -1.9571 C   0  0  0  0  0  0  0  0  0  0  0  0
    5.9063    1.6930   -2.6425 C   0  0  0  0  0  0  0  0  0  0  0  0
    5.8056    0.3469   -2.3481 N   0  0  0  0  0  0  0  0  0  0  0  0
    4.6094   -0.2101   -1.8787 C   0  0  0  0  0  0  0  0  0  0  0  0
    4.6440   -1.2997   -1.0129 C   0  0  0  0  0  0  0  0  0  0  0  0
    3.4716   -1.8264   -0.5073 C   0  0  0  0  0  0  0  0  0  0  0  0
    2.2374   -1.2741   -0.8255 C   0  0  0  0  0  0  0  0  0  0  0  0
    0.9728   -1.7929   -0.2111 C   0  0  0  0  0  0  0  0  0  0  0  0
    2.2077   -0.2078   -1.7165 C   0  0  0  0  0  0  0  0  0  0  0  0
    3.3700    0.3083   -2.2515 C   0  0  0  0  0  0  0  0  0  0  0  0
    6.8832   -0.4860   -2.7103 C   0  0  0  0  0  0  0  0  0  0  0  0
    6.6653   -1.6757   -3.3968 C   0  0  0  0  0  0  0  0  0  0  0  0
    7.7385   -2.4367   -3.8140 C   0  0  0  0  0  0  0  0  0  0  0  0
    9.0461   -2.0364   -3.5649 C   0  0  0  0  0  0  0  0  0  0  0  0
   10.2043   -2.8194   -4.0955 C   0  0  0  0  0  0  0  0  0  0  0  0
    9.2518   -0.8661   -2.8460 C   0  0  0  0  0  0  0  0  0  0  0  0
    8.1874   -0.0983   -2.4174 C   0  0  0  0  0  0  0  0  0  0  0  0
    6.6235    2.2040   -3.7526 C   0  0  0  0  0  0  0  0  0  0  0  0
    7.6869    1.4873   -4.9053 S   0  0  0  0  0  0  0  0  0  0  0  0
    7.8729    3.0461   -5.7168 C   0  0  0  0  0  0  0  0  0  0  0  0
    7.1832    4.0864   -5.0340 C   0  0  0  0  0  0  0  0  0  0  0  0
    7.1987    5.4112   -5.3730 N   0  0  0  0  0  0  0  0  0  0  0  0
    6.0680    6.1956   -5.0662 C   0  0  0  0  0  0  0  0  0  0  0  0
    4.7921    5.7199   -5.3592 C   0  0  0  0  0  0  0  0  0  0  0  0
    3.6834    6.4765   -5.0423 C   0  0  0  0  0  0  0  0  0  0  0  0
    3.8144    7.7225   -4.4378 C   0  0  0  0  0  0  0  0  0  0  0  0
    2.5969    8.5215   -4.0896 C   0  0  0  0  0  0  0  0  0  0  0  0
    5.0919    8.1958   -4.1681 C   0  0  0  0  0  0  0  0  0  0  0  0
    6.2107    7.4455   -4.4745 C   0  0  0  0  0  0  0  0  0  0  0  0
    8.3333    6.0518   -5.9051 C   0  0  0  0  0  0  0  0  0  0  0  0
    9.6133    5.7016   -5.4822 C   0  0  0  0  0  0  0  0  0  0  0  0
   10.7155    6.3295   -6.0263 C   0  0  0  0  0  0  0  0  0  0  0  0
   10.5741    7.3293   -6.9822 C   0  0  0  0  0  0  0  0  0  0  0  0
   11.7685    7.9913   -7.5963 C   0  0  0  0  0  0  0  0  0  0  0  0
    9.2907    7.6956   -7.3699 C   0  0  0  0  0  0  0  0  0  0  0  0
    8.1791    7.0662   -6.8465 C   0  0  0  0  0  0  0  0  0  0  0  0
    6.4708    3.5736   -3.9383 C   0  0  0  0  0  0  0  0  0  0  0  0
    5.4457    4.2795   -2.7286 S   0  0  0  0  0  0  0  0  0  0  0  0
    8.5155    3.2241   -6.9355 C   0  0  0  0  0  0  0  0  0  0  0  0
    9.2837    2.3512   -7.6821 C   0  0  0  0  0  0  0  0  0  0  0  0
    9.7282    1.0205   -7.2663 C   0  0  0  0  0  0  0  0  0  0  0  0
    9.4119    0.3998   -6.2683 O   0  0  0  0  0  0  0  0  0  0  0  0
   10.6799    0.5738   -8.3083 C   0  0  0  0  0  0  0  0  0  0  0  0
   11.4107   -0.5929   -8.4180 C   0  0  0  0  0  0  0  0  0  0  0  0
   11.3287   -1.5502   -7.4833 F   0  0  0  0  0  0  0  0  0  0  0  0
   12.2485   -0.7900   -9.5090 C   0  0  0  0  0  0  0  0  0  0  0  0
   12.3426    0.1904  -10.4803 C   0  0  0  0  0  0  0  0  0  0  0  0
   11.6169    1.3731  -10.3918 C   0  0  0  0  0  0  0  0  0  0  0  0
   10.7853    1.5640   -9.3018 C   0  0  0  0  0  0  0  0  0  0  0  0
    9.8987    2.6744   -8.9419 C   0  0  0  0  0  0  0  0  0  0  0  0
    9.6950    3.7992   -9.7077 C   0  0  0  0  0  0  0  0  0  0  0  0
   10.3974    4.0918  -10.8926 C   0  0  0  0  0  0  0  0  0  0  0  0
   10.9446    4.4068  -11.8529 N   0  0  0  0  0  0  0  0  0  0  0  0
    8.7458    4.8054   -9.4478 C   0  0  0  0  0  0  0  0  0  0  0  0
    7.9750    5.6518   -9.3351 N   0  0  0  0  0  0  0  0  0  0  0  0
   -8.3996   -7.1620    5.4559 H   0  0  0  0  0  0  0  0  0  0  0  0
  -12.5434   -5.4284    1.0232 H   0  0  0  0  0  0  0  0  0  0  0  0
  -13.8452   -7.2847    0.0650 H   0  0  0  0  0  0  0  0  0  0  0  0
   -8.9889   -4.3330    6.9993 H   0  0  0  0  0  0  0  0  0  0  0  0
  -10.8102   -5.2322    8.3686 H   0  0  0  0  0  0  0  0  0  0  0  0
  -11.5730   -6.7452   10.0841 H   0  0  0  0  0  0  0  0  0  0  0  0
  -11.3165   -8.3061    9.3042 H   0  0  0  0  0  0  0  0  0  0  0  0
  -10.4590   -7.9255   10.7940 H   0  0  0  0  0  0  0  0  0  0  0  0
   -8.3294   -8.4956    9.5534 H   0  0  0  0  0  0  0  0  0  0  0  0
   -6.4994   -7.6050    8.1716 H   0  0  0  0  0  0  0  0  0  0  0  0
   -4.2665   -5.9837    5.5146 H   0  0  0  0  0  0  0  0  0  0  0  0
   -2.0358   -5.7833    6.5220 H   0  0  0  0  0  0  0  0  0  0  0  0
   -0.7699   -4.3421    8.4245 H   0  0  0  0  0  0  0  0  0  0  0  0
   -1.4392   -4.6194   10.0383 H   0  0  0  0  0  0  0  0  0  0  0  0
   -0.9028   -5.9815    9.0493 H   0  0  0  0  0  0  0  0  0  0  0  0
   -3.8023   -4.5168   10.1921 H   0  0  0  0  0  0  0  0  0  0  0  0
   -6.0344   -4.6911    9.1828 H   0  0  0  0  0  0  0  0  0  0  0  0
   -8.1589   -1.5167    3.3010 H   0  0  0  0  0  0  0  0  0  0  0  0
   -9.7784    0.2858    3.1193 H   0  0  0  0  0  0  0  0  0  0  0  0
   -9.9164    2.8761    2.3464 H   0  0  0  0  0  0  0  0  0  0  0  0
  -10.7855    1.9573    1.1236 H   0  0  0  0  0  0  0  0  0  0  0  0
   -9.5240    3.0950    0.6356 H   0  0  0  0  0  0  0  0  0  0  0  0
   -7.5588    1.9865   -0.1012 H   0  0  0  0  0  0  0  0  0  0  0  0
   -5.9199    0.1803    0.0699 H   0  0  0  0  0  0  0  0  0  0  0  0
   -3.5027   -2.8518    1.9163 H   0  0  0  0  0  0  0  0  0  0  0  0
   -2.1617   -3.5988    0.0330 H   0  0  0  0  0  0  0  0  0  0  0  0
   -3.2186   -4.5902   -2.9975 H   0  0  0  0  0  0  0  0  0  0  0  0
   -1.7946   -3.8001   -2.3158 H   0  0  0  0  0  0  0  0  0  0  0  0
   -2.8643   -2.9178   -3.4145 H   0  0  0  0  0  0  0  0  0  0  0  0
   -5.3735   -2.7165   -2.6275 H   0  0  0  0  0  0  0  0  0  0  0  0
   -6.7382   -1.9716   -0.7394 H   0  0  0  0  0  0  0  0  0  0  0  0
   -4.9623    0.4612    2.4506 H   0  0  0  0  0  0  0  0  0  0  0  0
   -2.5048    3.6432    3.3639 H   0  0  0  0  0  0  0  0  0  0  0  0
   -2.6325    4.2066    1.6923 H   0  0  0  0  0  0  0  0  0  0  0  0
   -4.9731    3.2815    1.5938 H   0  0  0  0  0  0  0  0  0  0  0  0
   -4.8209    2.7725    3.2763 H   0  0  0  0  0  0  0  0  0  0  0  0
   -4.7730    4.4835    2.8631 H   0  0  0  0  0  0  0  0  0  0  0  0
   -2.3955    2.6959   -0.1750 H   0  0  0  0  0  0  0  0  0  0  0  0
   -3.8708    1.8493    0.3215 H   0  0  0  0  0  0  0  0  0  0  0  0
   -2.6054   -0.3042    0.3938 H   0  0  0  0  0  0  0  0  0  0  0  0
   -2.5255    0.4444   -1.1972 H   0  0  0  0  0  0  0  0  0  0  0  0
   -1.1424    0.5514   -0.1065 H   0  0  0  0  0  0  0  0  0  0  0  0
    1.1544    0.8574    6.2131 H   0  0  0  0  0  0  0  0  0  0  0  0
   -0.4579    0.4810    5.5836 H   0  0  0  0  0  0  0  0  0  0  0  0
    0.1684   -1.1032    7.3803 H   0  0  0  0  0  0  0  0  0  0  0  0
    1.6238   -1.5714    6.4871 H   0  0  0  0  0  0  0  0  0  0  0  0
    0.0280   -1.9633    5.8394 H   0  0  0  0  0  0  0  0  0  0  0  0
   -0.2148    5.6215   -0.0944 H   0  0  0  0  0  0  0  0  0  0  0  0
    1.3596    4.9239    0.3323 H   0  0  0  0  0  0  0  0  0  0  0  0
   -0.8226    5.7105    2.3304 H   0  0  0  0  0  0  0  0  0  0  0  0
    0.6912    6.5756    2.0302 H   0  0  0  0  0  0  0  0  0  0  0  0
    0.7210    4.9606    2.7501 H   0  0  0  0  0  0  0  0  0  0  0  0
    5.0720    1.6649    3.6043 H   0  0  0  0  0  0  0  0  0  0  0  0
    4.0722    3.0561    3.2070 H   0  0  0  0  0  0  0  0  0  0  0  0
    3.3930    1.0632    5.4068 H   0  0  0  0  0  0  0  0  0  0  0  0
    4.1047    2.6616    5.6240 H   0  0  0  0  0  0  0  0  0  0  0  0
    2.4734    2.5090    4.9738 H   0  0  0  0  0  0  0  0  0  0  0  0
    4.5602   -0.3921    1.8679 H   0  0  0  0  0  0  0  0  0  0  0  0
    2.8749   -0.8633    2.0161 H   0  0  0  0  0  0  0  0  0  0  0  0
    4.8309   -0.5151    4.3389 H   0  0  0  0  0  0  0  0  0  0  0  0
    3.1327   -1.0095    4.4786 H   0  0  0  0  0  0  0  0  0  0  0  0
    4.2879   -2.0281    3.6267 H   0  0  0  0  0  0  0  0  0  0  0  0
    5.6176    1.3005    0.4858 H   0  0  0  0  0  0  0  0  0  0  0  0
    5.5969   -1.7276   -0.7372 H   0  0  0  0  0  0  0  0  0  0  0  0
    3.5209   -2.6730    0.1625 H   0  0  0  0  0  0  0  0  0  0  0  0
    1.1026   -2.8134    0.1418 H   0  0  0  0  0  0  0  0  0  0  0  0
    0.6913   -1.1723    0.6422 H   0  0  0  0  0  0  0  0  0  0  0  0
    0.1516   -1.7647   -0.9245 H   0  0  0  0  0  0  0  0  0  0  0  0
    1.2576    0.2224   -1.9998 H   0  0  0  0  0  0  0  0  0  0  0  0
    3.3205    1.1192   -2.9632 H   0  0  0  0  0  0  0  0  0  0  0  0
    5.6538   -1.9854   -3.6164 H   0  0  0  0  0  0  0  0  0  0  0  0
    7.5573   -3.3483   -4.3648 H   0  0  0  0  0  0  0  0  0  0  0  0
   11.0606   -2.7535   -3.4281 H   0  0  0  0  0  0  0  0  0  0  0  0
    9.9410   -3.8651   -4.2362 H   0  0  0  0  0  0  0  0  0  0  0  0
   10.4976   -2.4095   -5.0620 H   0  0  0  0  0  0  0  0  0  0  0  0
   10.2599   -0.5444   -2.6295 H   0  0  0  0  0  0  0  0  0  0  0  0
    8.3588    0.8155   -1.8656 H   0  0  0  0  0  0  0  0  0  0  0  0
    4.6798    4.7587   -5.8392 H   0  0  0  0  0  0  0  0  0  0  0  0
    2.6980    6.0973   -5.2699 H   0  0  0  0  0  0  0  0  0  0  0  0
    1.9868    8.6912   -4.9757 H   0  0  0  0  0  0  0  0  0  0  0  0
    1.9878    7.9809   -3.3659 H   0  0  0  0  0  0  0  0  0  0  0  0
    2.8693    9.4838   -3.6646 H   0  0  0  0  0  0  0  0  0  0  0  0
    5.2164    9.1626   -3.7026 H   0  0  0  0  0  0  0  0  0  0  0  0
    7.1985    7.8198   -4.2502 H   0  0  0  0  0  0  0  0  0  0  0  0
    9.7389    4.9313   -4.7354 H   0  0  0  0  0  0  0  0  0  0  0  0
   11.7033    6.0419   -5.6957 H   0  0  0  0  0  0  0  0  0  0  0  0
   11.6502    9.0733   -7.5964 H   0  0  0  0  0  0  0  0  0  0  0  0
   11.8800    7.6704   -8.6323 H   0  0  0  0  0  0  0  0  0  0  0  0
   12.6778    7.7362   -7.0579 H   0  0  0  0  0  0  0  0  0  0  0  0
    9.1588    8.4710   -8.1091 H   0  0  0  0  0  0  0  0  0  0  0  0
    7.1903    7.3452   -7.1744 H   0  0  0  0  0  0  0  0  0  0  0  0
    8.3988    4.2142   -7.3565 H   0  0  0  0  0  0  0  0  0  0  0  0
   12.8122   -1.7066   -9.5818 H   0  0  0  0  0  0  0  0  0  0  0  0
   12.9938    0.0342  -11.3265 H   0  0  0  0  0  0  0  0  0  0  0  0
   11.7118    2.1172  -11.1647 H   0  0  0  0  0  0  0  0  0  0  0  0
  1  2  2  0  0  0  0
  2  3  1  0  0  0  0
  3  4  2  0  0  0  0
  3  5  1  0  0  0  0
  5  6  2  0  0  0  0
  6  7  1  0  0  0  0
  7  8  2  0  0  0  0
  8  9  1  0  0  0  0
  9 10  1  0  0  0  0
  9 11  2  0  0  0  0
 11 12  1  0  0  0  0
  6 13  1  0  0  0  0
 13 14  2  0  0  0  0
 14 15  1  0  0  0  0
 15 16  3  0  0  0  0
 14 17  1  0  0  0  0
 17 18  3  0  0  0  0
  1 19  1  0  0  0  0
 19 20  2  0  0  0  0
 20 21  1  0  0  0  0
 21 22  1  0  0  0  0
 22 23  2  0  0  0  0
 23 24  1  0  0  0  0
 24 25  2  0  0  0  0
 25 26  1  0  0  0  0
 25 27  1  0  0  0  0
 27 28  2  0  0  0  0
 21 29  1  0  0  0  0
 29 30  2  0  0  0  0
 30 31  1  0  0  0  0
 31 32  2  0  0  0  0
 32 33  1  0  0  0  0
 32 34  1  0  0  0  0
 34 35  2  0  0  0  0
 20 36  1  0  0  0  0
 36 37  1  0  0  0  0
 37 38  1  0  0  0  0
 38 39  2  0  0  0  0
 39 40  1  0  0  0  0
 40 41  1  0  0  0  0
 41 42  2  0  0  0  0
 42 43  1  0  0  0  0
 43 44  2  0  0  0  0
 44 45  1  0  0  0  0
 44 46  1  0  0  0  0
 46 47  2  0  0  0  0
 40 48  1  0  0  0  0
 48 49  2  0  0  0  0
 49 50  1  0  0  0  0
 50 51  2  0  0  0  0
 51 52  1  0  0  0  0
 51 53  1  0  0  0  0
 53 54  2  0  0  0  0
 39 55  1  0  0  0  0
 55 56  1  0  0  0  0
 38 57  1  0  0  0  0
 57 58  2  0  0  0  0
 58 59  1  0  0  0  0
 59 60  1  0  0  0  0
 60 61  1  0  0  0  0
 61 62  1  0  0  0  0
 60 63  1  0  0  0  0
 63 64  1  0  0  0  0
 60 65  1  0  0  0  0
 65 66  2  0  0  0  0
 66 67  1  0  0  0  0
 67 68  1  0  0  0  0
 66 69  1  0  0  0  0
 69 70  1  0  0  0  0
 70 71  1  0  0  0  0
 71 72  1  0  0  0  0
 69 73  2  0  0  0  0
 73 74  1  0  0  0  0
 74 75  2  0  0  0  0
 75 76  1  0  0  0  0
 76 77  1  0  0  0  0
 77 78  1  0  0  0  0
 74 79  1  0  0  0  0
 79 80  2  0  0  0  0
 80 81  1  0  0  0  0
 81 82  1  0  0  0  0
 82 83  1  0  0  0  0
 81 84  1  0  0  0  0
 84 85  1  0  0  0  0
 80 86  1  0  0  0  0
 86 87  2  0  0  0  0
 87 88  1  0  0  0  0
 87 89  1  0  0  0  0
 89 90  2  0  0  0  0
 90 91  1  0  0  0  0
 91 92  1  0  0  0  0
 92 93  2  0  0  0  0
 93 94  1  0  0  0  0
 94 95  2  0  0  0  0
 95 96  1  0  0  0  0
 95 97  1  0  0  0  0
 97 98  2  0  0  0  0
 91 99  1  0  0  0  0
 99100  2  0  0  0  0
100101  1  0  0  0  0
101102  2  0  0  0  0
102103  1  0  0  0  0
102104  1  0  0  0  0
104105  2  0  0  0  0
 90106  1  0  0  0  0
106107  1  0  0  0  0
107108  1  0  0  0  0
108109  2  0  0  0  0
109110  1  0  0  0  0
110111  1  0  0  0  0
111112  2  0  0  0  0
112113  1  0  0  0  0
113114  2  0  0  0  0
114115  1  0  0  0  0
114116  1  0  0  0  0
116117  2  0  0  0  0
110118  1  0  0  0  0
118119  2  0  0  0  0
119120  1  0  0  0  0
120121  2  0  0  0  0
121122  1  0  0  0  0
121123  1  0  0  0  0
123124  2  0  0  0  0
109125  1  0  0  0  0
125126  1  0  0  0  0
108127  1  0  0  0  0
127128  2  0  0  0  0
128129  1  0  0  0  0
129130  2  0  0  0  0
129131  1  0  0  0  0
131132  2  0  0  0  0
132133  1  0  0  0  0
132134  1  0  0  0  0
134135  2  0  0  0  0
135136  1  0  0  0  0
136137  2  0  0  0  0
137138  1  0  0  0  0
138139  2  0  0  0  0
139140  1  0  0  0  0
140141  3  0  0  0  0
139142  1  0  0  0  0
142143  3  0  0  0  0
 13  2  1  0  0  0  0
 56 19  1  0  0  0  0
 68 57  1  0  0  0  0
 81 73  1  0  0  0  0
126 89  1  0  0  0  0
138128  1  0  0  0  0
 11  5  1  0  0  0  0
 28 22  1  0  0  0  0
 35 29  1  0  0  0  0
 55 36  2  0  0  0  0
 67 59  2  0  0  0  0
 88 79  1  0  0  0  0
 98 92  1  0  0  0  0
105 99  1  0  0  0  0
125106  2  0  0  0  0
137131  1  0  0  0  0
 47 41  1  0  0  0  0
 54 48  1  0  0  0  0
 75 65  1  0  0  0  0
117111  1  0  0  0  0
124118  1  0  0  0  0
  1144  1  0  0  0  0
  7145  1  0  0  0  0
  8146  1  0  0  0  0
 23147  1  0  0  0  0
 24148  1  0  0  0  0
 26149  1  0  0  0  0
 26150  1  0  0  0  0
 26151  1  0  0  0  0
 27152  1  0  0  0  0
 28153  1  0  0  0  0
 30154  1  0  0  0  0
 31155  1  0  0  0  0
 33156  1  0  0  0  0
 33157  1  0  0  0  0
 33158  1  0  0  0  0
 34159  1  0  0  0  0
 35160  1  0  0  0  0
 42161  1  0  0  0  0
 43162  1  0  0  0  0
 45163  1  0  0  0  0
 45164  1  0  0  0  0
 45165  1  0  0  0  0
 46166  1  0  0  0  0
 47167  1  0  0  0  0
 49168  1  0  0  0  0
 50169  1  0  0  0  0
 52170  1  0  0  0  0
 52171  1  0  0  0  0
 52172  1  0  0  0  0
 53173  1  0  0  0  0
 54174  1  0  0  0  0
 58175  1  0  0  0  0
 61176  1  0  0  0  0
 61177  1  0  0  0  0
 62178  1  0  0  0  0
 62179  1  0  0  0  0
 62180  1  0  0  0  0
 63181  1  0  0  0  0
 63182  1  0  0  0  0
 64183  1  0  0  0  0
 64184  1  0  0  0  0
 64185  1  0  0  0  0
 71186  1  0  0  0  0
 71187  1  0  0  0  0
 72188  1  0  0  0  0
 72189  1  0  0  0  0
 72190  1  0  0  0  0
 77191  1  0  0  0  0
 77192  1  0  0  0  0
 78193  1  0  0  0  0
 78194  1  0  0  0  0
 78195  1  0  0  0  0
 82196  1  0  0  0  0
 82197  1  0  0  0  0
 83198  1  0  0  0  0
 83199  1  0  0  0  0
 83200  1  0  0  0  0
 84201  1  0  0  0  0
 84202  1  0  0  0  0
 85203  1  0  0  0  0
 85204  1  0  0  0  0
 85205  1  0  0  0  0
 86206  1  0  0  0  0
 93207  1  0  0  0  0
 94208  1  0  0  0  0
 96209  1  0  0  0  0
 96210  1  0  0  0  0
 96211  1  0  0  0  0
 97212  1  0  0  0  0
 98213  1  0  0  0  0
100214  1  0  0  0  0
101215  1  0  0  0  0
103216  1  0  0  0  0
103217  1  0  0  0  0
103218  1  0  0  0  0
104219  1  0  0  0  0
105220  1  0  0  0  0
112221  1  0  0  0  0
113222  1  0  0  0  0
115223  1  0  0  0  0
115224  1  0  0  0  0
115225  1  0  0  0  0
116226  1  0  0  0  0
117227  1  0  0  0  0
119228  1  0  0  0  0
120229  1  0  0  0  0
122230  1  0  0  0  0
122231  1  0  0  0  0
122232  1  0  0  0  0
123233  1  0  0  0  0
124234  1  0  0  0  0
127235  1  0  0  0  0
134236  1  0  0  0  0
135237  1  0  0  0  0
136238  1  0  0  0  0
M  END
