256

C          6.95170        0.10080       -0.39130
C          6.80130        1.05760        0.58870
C          7.97910        1.52040        1.34840
O          9.14310        1.28340        1.11950
C          7.41610        2.28160        2.49360
C          6.02310        2.39640        2.33770
C          5.26910        3.07810        3.27620
C          5.91160        3.58820        4.39380
C          7.27970        3.45240        4.55790
Br         8.08280        4.14260        6.12390
C          8.06490        2.80730        3.59670
Cl         9.75960        2.65220        3.79000
C          5.63500        1.69460        1.11570
C          4.42040        1.80630        0.47140
C          4.23830        1.38800       -0.85690
N          4.06370        1.08960       -1.95320
C          3.28220        2.40370        1.03350
N          2.30990        2.83390        1.47190
C          6.04740       -0.86080       -0.85150
C          4.88530       -1.42540       -0.28210
N          4.35280       -1.17520        0.96100
C          2.96110       -1.37090        1.16430
C          2.03010       -0.77580        0.31850
C          0.68040       -0.87470        0.59320
C          0.21980       -1.57530        1.70100
C         -1.23740       -1.59770        2.04190
C          1.15440       -2.21890        2.50390
C          2.50780       -2.11980        2.24630
C          5.13550       -0.91360        2.09390
C          6.43750       -1.39730        2.21390
C          7.18420       -1.11600        3.33940
C          6.65770       -0.37060        4.39020
C          7.48260       -0.08000        5.60350
C          5.34670        0.07570        4.28190
C          4.59870       -0.17480        3.14900
C          4.32780       -2.38150       -1.15430
S          3.01040       -3.48970       -1.00090
C          3.33450       -4.12300       -2.61060
C          4.42700       -3.52450       -3.21790
N          4.91600       -3.84620       -4.46250
C          4.63070       -5.09710       -5.03780
C          4.22770       -5.17880       -6.36780
C          3.88430       -6.39920       -6.91310
C          3.92970       -7.56420       -6.15540
C          3.49630       -8.87160       -6.74400
C          4.36490       -7.47730       -4.83920
C          4.71840       -6.26310       -4.28320
C          5.60220       -2.87920       -5.22020
C          5.19600       -1.54830       -5.22520
C          5.89780       -0.61420       -5.96270
C          7.00240       -0.98020       -6.71990
C          7.77530        0.03670       -7.50220
C          7.38800       -2.31680       -6.72360
C          6.70360       -3.25810       -5.98280
C          5.00200       -2.55490       -2.35680
S          6.42280       -1.58400       -2.42270
C          2.38590       -5.08680       -3.08070
C          1.85700       -6.09850       -2.31950
C          0.68890       -6.62210       -2.87740
S         -0.57090       -7.62000       -2.21050
C         -1.64700       -7.03730       -3.44250
C         -3.04680       -6.73400       -3.38200
C         -3.85060       -6.84080       -2.24890
C         -4.79840       -5.86000       -2.06890
C         -5.29320       -5.35850       -0.71320
C         -4.10260       -5.42590        0.23160
C         -2.96400       -4.69330       -0.09620
C         -1.82860       -4.76410        0.68630
C         -1.81900       -5.56240        1.81930
C         -2.94760       -6.28650        2.15700
C         -4.08380       -6.22490        1.36530
C         -6.50930       -6.10530       -0.20720
C         -6.62320       -7.47810       -0.39280
C         -7.72780       -8.16220        0.08200
C         -8.73460       -7.48570        0.74890
C         -8.63100       -6.11830        0.93320
C         -7.52730       -5.43310        0.45720
C         -5.61690       -3.92330       -1.06620
C         -5.63670       -3.76360       -2.44240
C         -5.06430       -4.91290       -3.08110
C         -4.39300       -4.94180       -4.30440
C         -3.31760       -5.79700       -4.40360
C         -2.07230       -5.55790       -5.25550
C         -2.08530       -6.21370       -6.61790
C         -0.89730       -6.29590       -7.33730
C         -0.87240       -6.90890       -8.57560
C         -2.03240       -7.44710       -9.10880
C         -3.21630       -7.36570       -8.39750
C         -3.24410       -6.75280       -7.15590
C         -1.83310       -4.05870       -5.31240
C         -1.92000       -3.33610       -6.49200
C         -1.74890       -1.96130       -6.48250
C         -1.49500       -1.29560       -5.29750
C         -1.41290       -2.01110       -4.11430
C         -1.58360       -3.38140       -4.12240
C         -1.03490       -6.23840       -4.39040
C          0.30410       -5.99870       -4.07080
S          1.47660       -4.82820       -4.56820
S         -5.77410       -2.11680       -2.97970
C         -5.66050       -1.60680       -1.32520
C         -5.34790       -0.45240       -0.60900
C         -5.10520       -0.85570        0.71920
N         -5.31190       -2.20630        0.84330
C         -5.25700       -2.92120        2.09250
C         -6.42960       -2.55020        2.99860
C         -5.61430       -2.68650       -0.40750
C         -4.55300        0.15680        1.50740
C         -4.39550        1.33360        0.80260
S         -4.98400        1.21460       -0.85410
C         -3.70090        2.47390        1.30280
C         -3.80640        3.82950        1.02830
N         -4.69440        4.43310        0.14150
C         -4.64570        4.11580       -1.21990
C         -3.46110        3.66730       -1.80140
C         -3.43200        3.31380       -3.13600
C         -4.56920        3.40380       -3.92750
C         -4.53620        2.98050       -5.36420
C         -5.74200        3.87110       -3.34450
C         -5.78790        4.22260       -2.01140
C         -5.39780        5.55120        0.61230
C         -5.89010        5.54940        1.91570
C         -6.56620        6.64770        2.40780
C         -6.78100        7.76970        1.61820
C         -7.49770        8.96940        2.15840
C         -6.29000        7.76210        0.31740
C         -5.60220        6.67570       -0.18330
C         -2.90580        4.58020        1.81980
S         -2.55840        6.26450        1.90790
C         -1.29750        5.95950        3.11640
C         -1.10020        4.57420        3.33740
N         -0.05250        4.00160        3.99020
C         -0.16950        2.68380        4.47910
C          0.83480        1.75870        4.21640
C          0.73030        0.47100        4.70440
C         -0.37020        0.07910        5.45710
C         -0.49390       -1.32220        5.97340
C         -1.36470        1.01550        5.71850
C         -1.27160        2.30760        5.24070
C          1.17720        4.65560        4.16500
C          1.74640        5.41450        3.14320
C          2.91930        6.10370        3.36480
C          3.55560        6.06990        4.60480
C          4.78920        6.88360        4.84420
C          3.01210        5.26640        5.59820
C          1.84310        4.55750        5.38420
C         -2.07730        3.82850        2.64040
S         -2.43080        2.14150        2.48220
C         -0.67830        7.07770        3.66490
C         -0.01100        7.12930        4.87620
C         -0.29960        6.23870        6.00660
O         -1.10400        5.32440        6.04880
C          0.50010        6.76420        7.13660
C          0.59020        6.29820        8.43180
C          1.43190        6.95580        9.31780
C          2.15140        8.06350        8.89170
Cl         3.19000        8.87060       10.00830
C          2.06350        8.54910        7.58960
C          1.22920        7.88620        6.70920
C          0.93650        8.11850        5.29360
C          1.57670        9.02060        4.47750
C          2.57250        9.91310        4.91250
N          3.39960       10.65590        5.20400
C          1.36820        9.11100        3.08740
N          1.27780        9.21670        1.94690
H          7.94830        0.04160       -0.81890
H          4.20390        3.20320        3.17490
H          5.33630        4.09090        5.15410
H          2.36350       -0.22310       -0.54560
H         -0.02670       -0.38040       -0.05600
H         -1.85190       -1.54390        1.14600
H         -1.49580       -2.49880        2.59400
H         -1.47220       -0.73050        2.66160
H          0.81830       -2.80050        3.34990
H          3.22250       -2.61280        2.88950
H          6.86200       -2.00130        1.42660
H          8.19610       -1.48690        3.40610
H          7.60070       -0.98270        6.20330
H          8.47710        0.25740        5.31850
H          7.01410        0.68170        6.22160
H          4.90600        0.64620        5.08650
H          3.59240        0.21030        3.07280
H          4.16840       -4.27800       -6.96030
H          3.55850       -6.44680       -7.94210
H          3.85630       -8.97410       -7.76570
H          2.40710       -8.92620       -6.76630
H          3.86640       -9.70660       -6.15430
H          4.42780       -8.37230       -4.23710
H          5.06060       -6.21380       -3.25980
H          4.32680       -1.24620       -4.65990
H          5.57320        0.41580       -5.95110
H          7.17870        0.92830       -7.67710
H          8.09280       -0.37050       -8.45980
H          8.66920        0.32920       -6.95070
H          8.24300       -2.62220       -7.30940
H          7.01520       -4.29240       -5.98790
H          2.27010       -6.40200       -1.37500
H         -3.56610       -7.51190       -1.45130
H         -2.97000       -4.07360       -0.98200
H         -0.94730       -4.20310        0.41090
H         -0.93010       -5.62390        2.42970
H         -2.94630       -6.91440        3.03600
H         -4.95500       -6.80500        1.63320
H         -5.84680       -8.01550       -0.91490
H         -7.80250       -9.22860       -0.07270
H         -9.59690       -8.02030        1.11830
H         -9.41440       -5.58010        1.44670
H         -7.46530       -4.36440        0.59490
H         -4.56600       -4.16840       -5.03820
H          0.00730       -5.87080       -6.92540
H          0.05510       -6.96790       -9.12610
H         -2.01250       -7.92780      -10.07560
H         -4.12440       -7.78180       -8.80850
H         -4.17010       -6.69390       -6.60300
H         -2.12730       -3.84360       -7.42250
H         -1.82010       -1.41020       -7.40870
H         -1.36550       -0.22380       -5.29260
H         -1.21940       -1.50000       -3.18260
H         -1.53000       -3.93560       -3.19490
H         -5.26860       -3.99050        1.87970
H         -4.31110       -2.67830        2.58900
H         -6.35390       -3.08880        3.93910
H         -7.37460       -2.80880        2.52650
H         -6.42850       -1.48250        3.20350
H         -4.25430        0.05540        2.53510
H         -2.56440        3.59630       -1.20290
H         -2.50660        2.96330       -3.56980
H         -3.57870        3.22620       -5.81860
H         -5.32970        3.46190       -5.93050
H         -4.67500        1.90080       -5.43540
H         -6.63840        3.95090       -3.94250
H         -6.71040        4.56740       -1.56870
H         -5.74040        4.68020        2.54040
H         -6.93810        6.62920        3.42230
H         -8.12670        8.69900        3.00330
H         -6.77580        9.71310        2.49750
H         -8.11580        9.42990        1.39060
H         -6.43820        8.62850       -0.31110
H         -5.21060        6.69730       -1.18920
H          1.67920        2.05450        3.61230
H          1.51230       -0.24390        4.49250
H         -0.86400       -1.32410        6.99660
H         -1.20020       -1.88550        5.36290
H          0.46590       -1.83190        5.94560
H         -2.21900        0.73040        6.31540
H         -2.02290        3.04440        5.47740
H          1.26790        5.46120        2.17790
H          3.34490        6.69450        2.56700
H          4.55870        7.94700        4.78040
H          5.54370        6.66820        4.08830
H          5.20830        6.68690        5.82810
H          3.49040        5.21190        6.56650
H          1.42770        3.94330        6.16920
H         -0.78450        7.99640        3.10010
H          0.01980        5.43570        8.74070
H          1.53290        6.61440       10.33600
H          2.63220        9.41730        7.29980
