
  xtb     02062223543D
 energy: -414.053674261653 gnorm: 0.000382410657 xtb: 6.4.1 (unknown)
249274  0     0  0            999 V2000
    3.4661   -8.1604    9.7618 C   0  0  0  0  0  0  0  0  0  0  0  0
    4.2064   -8.1411   10.9293 C   0  0  0  0  0  0  0  0  0  0  0  0
    4.7809   -6.9582   11.5637 C   0  0  0  0  0  0  0  0  0  0  0  0
    4.6785   -5.7948   11.2195 O   0  0  0  0  0  0  0  0  0  0  0  0
    5.5628   -7.4572   12.7176 C   0  0  0  0  0  0  0  0  0  0  0  0
    5.4821   -8.8607   12.7594 C   0  0  0  0  0  0  0  0  0  0  0  0
    6.1489   -9.5607   13.7511 C   0  0  0  0  0  0  0  0  0  0  0  0
    6.8828   -8.8479   14.6892 C   0  0  0  0  0  0  0  0  0  0  0  0
    6.9498   -7.4644   14.6487 C   0  0  0  0  0  0  0  0  0  0  0  0
    7.9540   -6.5506   15.9644 Br  0  0  0  0  0  0  0  0  0  0  0  0
    6.2857   -6.7389   13.6537 C   0  0  0  0  0  0  0  0  0  0  0  0
    6.3573   -5.0286   13.5993 Cl  0  0  0  0  0  0  0  0  0  0  0  0
    4.6119   -9.3072   11.6696 C   0  0  0  0  0  0  0  0  0  0  0  0
    4.2337  -10.6123   11.4527 C   0  0  0  0  0  0  0  0  0  0  0  0
    4.7404  -11.7125   12.1716 C   0  0  0  0  0  0  0  0  0  0  0  0
    5.1263  -12.6550   12.7031 N   0  0  0  0  0  0  0  0  0  0  0  0
    3.2641  -11.0393   10.5265 C   0  0  0  0  0  0  0  0  0  0  0  0
    2.4530  -11.4703    9.8343 N   0  0  0  0  0  0  0  0  0  0  0  0
    2.9730   -7.1179    8.9879 C   0  0  0  0  0  0  0  0  0  0  0  0
    2.1640   -7.3236    7.8358 C   0  0  0  0  0  0  0  0  0  0  0  0
    1.9124   -8.5246    7.2331 N   0  0  0  0  0  0  0  0  0  0  0  0
    0.6435   -8.7149    6.6482 C   0  0  0  0  0  0  0  0  0  0  0  0
   -0.4991   -8.3324    7.3458 C   0  0  0  0  0  0  0  0  0  0  0  0
   -1.7458   -8.4973    6.7775 C   0  0  0  0  0  0  0  0  0  0  0  0
   -1.8867   -9.0538    5.5120 C   0  0  0  0  0  0  0  0  0  0  0  0
   -3.2384   -9.2085    4.8873 C   0  0  0  0  0  0  0  0  0  0  0  0
   -0.7399   -9.4463    4.8300 C   0  0  0  0  0  0  0  0  0  0  0  0
    0.5137   -9.2798    5.3837 C   0  0  0  0  0  0  0  0  0  0  0  0
    2.8952   -9.5177    7.0778 C   0  0  0  0  0  0  0  0  0  0  0  0
    4.2288   -9.1680    6.8775 C   0  0  0  0  0  0  0  0  0  0  0  0
    5.1855  -10.1511    6.7256 C   0  0  0  0  0  0  0  0  0  0  0  0
    4.8417  -11.4981    6.7503 C   0  0  0  0  0  0  0  0  0  0  0  0
    5.8797  -12.5675    6.6066 C   0  0  0  0  0  0  0  0  0  0  0  0
    3.5044  -11.8351    6.9235 C   0  0  0  0  0  0  0  0  0  0  0  0
    2.5378  -10.8639    7.0918 C   0  0  0  0  0  0  0  0  0  0  0  0
    1.6064   -6.1114    7.3961 C   0  0  0  0  0  0  0  0  0  0  0  0
    0.5889   -5.6738    6.0639 S   0  0  0  0  0  0  0  0  0  0  0  0
    0.6744   -3.9840    6.5418 C   0  0  0  0  0  0  0  0  0  0  0  0
    1.4792   -3.7773    7.6460 C   0  0  0  0  0  0  0  0  0  0  0  0
    1.7433   -2.5495    8.2149 N   0  0  0  0  0  0  0  0  0  0  0  0
    1.7940   -1.3945    7.4119 C   0  0  0  0  0  0  0  0  0  0  0  0
    2.5341   -1.3839    6.2356 C   0  0  0  0  0  0  0  0  0  0  0  0
    2.5593   -0.2530    5.4414 C   0  0  0  0  0  0  0  0  0  0  0  0
    1.8443    0.8837    5.7923 C   0  0  0  0  0  0  0  0  0  0  0  0
    1.8207    2.0922    4.9068 C   0  0  0  0  0  0  0  0  0  0  0  0
    1.1303    0.8735    6.9862 C   0  0  0  0  0  0  0  0  0  0  0  0
    1.1098   -0.2438    7.7948 C   0  0  0  0  0  0  0  0  0  0  0  0
    2.0452   -2.4546    9.5840 C   0  0  0  0  0  0  0  0  0  0  0  0
    3.0279   -1.5719   10.0208 C   0  0  0  0  0  0  0  0  0  0  0  0
    3.3525   -1.5041   11.3608 C   0  0  0  0  0  0  0  0  0  0  0  0
    2.7147   -2.3085   12.2968 C   0  0  0  0  0  0  0  0  0  0  0  0
    3.1078   -2.2768   13.7413 C   0  0  0  0  0  0  0  0  0  0  0  0
    1.7157   -3.1668   11.8552 C   0  0  0  0  0  0  0  0  0  0  0  0
    1.3754   -3.2400   10.5194 C   0  0  0  0  0  0  0  0  0  0  0  0
    2.0039   -5.0039    8.1318 C   0  0  0  0  0  0  0  0  0  0  0  0
    3.0969   -5.4040    9.4055 S   0  0  0  0  0  0  0  0  0  0  0  0
   -0.0848   -3.0225    5.7753 C   0  0  0  0  0  0  0  0  0  0  0  0
   -1.3277   -2.5234    6.0705 C   0  0  0  0  0  0  0  0  0  0  0  0
   -2.1192   -2.9234    7.2395 C   0  0  0  0  0  0  0  0  0  0  0  0
   -1.6427   -2.7855    8.5365 C   0  0  0  0  0  0  0  0  0  0  0  0
   -2.4077   -3.2238    9.6017 C   0  0  0  0  0  0  0  0  0  0  0  0
   -3.6415   -3.8099    9.3812 C   0  0  0  0  0  0  0  0  0  0  0  0
   -4.1371   -3.9457    8.0905 C   0  0  0  0  0  0  0  0  0  0  0  0
   -5.4495   -4.6290    7.8338 C   0  0  0  0  0  0  0  0  0  0  0  0
   -5.2243   -6.1181    7.5618 C   0  0  0  0  0  0  0  0  0  0  0  0
   -3.3701   -3.4926    7.0283 C   0  0  0  0  0  0  0  0  0  0  0  0
   -1.8070   -1.6846    5.0390 C   0  0  0  0  0  0  0  0  0  0  0  0
   -3.2781   -0.7623    4.8531 S   0  0  0  0  0  0  0  0  0  0  0  0
   -2.7168   -0.2295    3.3026 C   0  0  0  0  0  0  0  0  0  0  0  0
   -3.1683    0.5179    2.2025 C   0  0  0  0  0  0  0  0  0  0  0  0
   -4.4143    1.1381    1.9726 C   0  0  0  0  0  0  0  0  0  0  0  0
   -4.6725    1.7108    0.6849 C   0  0  0  0  0  0  0  0  0  0  0  0
   -5.8919    2.2184    0.5899 N   0  0  0  0  0  0  0  0  0  0  0  0
   -6.6496    1.9936    2.0041 S   0  0  0  0  0  0  0  0  0  0  0  0
   -5.4507    1.2401    2.7903 N   0  0  0  0  0  0  0  0  0  0  0  0
   -3.6442    1.7052   -0.2805 C   0  0  0  0  0  0  0  0  0  0  0  0
   -3.6143    2.2365   -1.5795 C   0  0  0  0  0  0  0  0  0  0  0  0
   -4.6589    3.0526   -2.6928 S   0  0  0  0  0  0  0  0  0  0  0  0
   -3.3333    3.1705   -3.8235 C   0  0  0  0  0  0  0  0  0  0  0  0
   -3.2155    3.7319   -5.1144 C   0  0  0  0  0  0  0  0  0  0  0  0
   -4.3225    4.2646   -5.9050 C   0  0  0  0  0  0  0  0  0  0  0  0
   -5.3984    4.9031   -5.2939 C   0  0  0  0  0  0  0  0  0  0  0  0
   -6.4331    5.4042   -6.0608 C   0  0  0  0  0  0  0  0  0  0  0  0
   -6.4187    5.2635   -7.4364 C   0  0  0  0  0  0  0  0  0  0  0  0
   -5.3719    4.5978   -8.0627 C   0  0  0  0  0  0  0  0  0  0  0  0
   -5.3875    4.3760   -9.5487 C   0  0  0  0  0  0  0  0  0  0  0  0
   -6.1913    3.1205   -9.8915 C   0  0  0  0  0  0  0  0  0  0  0  0
   -4.3361    4.1012   -7.2887 C   0  0  0  0  0  0  0  0  0  0  0  0
   -1.9173    3.6335   -5.5776 C   0  0  0  0  0  0  0  0  0  0  0  0
   -0.8654    2.7575   -4.4782 S   0  0  0  0  0  0  0  0  0  0  0  0
   -2.1550    2.6001   -3.3423 C   0  0  0  0  0  0  0  0  0  0  0  0
   -2.3210    2.0514   -2.0633 C   0  0  0  0  0  0  0  0  0  0  0  0
   -1.5566    1.4171   -1.1223 N   0  0  0  0  0  0  0  0  0  0  0  0
   -2.3529    1.1619   -0.0178 C   0  0  0  0  0  0  0  0  0  0  0  0
   -2.1393    0.4825    1.2163 C   0  0  0  0  0  0  0  0  0  0  0  0
   -1.1091   -0.2977    1.7132 N   0  0  0  0  0  0  0  0  0  0  0  0
   -1.4581   -0.7223    2.9651 C   0  0  0  0  0  0  0  0  0  0  0  0
   -0.9360   -1.5632    3.9599 C   0  0  0  0  0  0  0  0  0  0  0  0
    0.4848   -2.5164    4.1893 S   0  0  0  0  0  0  0  0  0  0  0  0
    0.1157   -0.7976    1.1377 C   0  0  0  0  0  0  0  0  0  0  0  0
    1.3336   -0.0419    1.6691 C   0  0  0  0  0  0  0  0  0  0  0  0
   -0.1350    1.3071   -1.3458 C   0  0  0  0  0  0  0  0  0  0  0  0
    0.2082    0.1614   -2.2992 C   0  0  0  0  0  0  0  0  0  0  0  0
   -1.3388    4.2873   -6.7117 C   0  0  0  0  0  0  0  0  0  0  0  0
   -1.4625    5.6299   -7.0477 C   0  0  0  0  0  0  0  0  0  0  0  0
   -2.1195    6.5827   -6.2933 N   0  0  0  0  0  0  0  0  0  0  0  0
   -2.1479    6.4927   -4.8950 C   0  0  0  0  0  0  0  0  0  0  0  0
   -3.2877    6.8679   -4.1875 C   0  0  0  0  0  0  0  0  0  0  0  0
   -3.3562    6.6690   -2.8240 C   0  0  0  0  0  0  0  0  0  0  0  0
   -2.2981    6.1000   -2.1233 C   0  0  0  0  0  0  0  0  0  0  0  0
   -2.4252    5.8090   -0.6595 C   0  0  0  0  0  0  0  0  0  0  0  0
   -1.1374    5.8004   -2.8231 C   0  0  0  0  0  0  0  0  0  0  0  0
   -1.0533    6.0016   -4.1873 C   0  0  0  0  0  0  0  0  0  0  0  0
   -2.7269    7.6673   -6.9484 C   0  0  0  0  0  0  0  0  0  0  0  0
   -2.6366    8.9512   -6.4208 C   0  0  0  0  0  0  0  0  0  0  0  0
   -3.2011   10.0166   -7.0936 C   0  0  0  0  0  0  0  0  0  0  0  0
   -3.8607    9.8354   -8.3024 C   0  0  0  0  0  0  0  0  0  0  0  0
   -4.4240   10.9974   -9.0606 C   0  0  0  0  0  0  0  0  0  0  0  0
   -3.9617    8.5471   -8.8120 C   0  0  0  0  0  0  0  0  0  0  0  0
   -3.4074    7.4730   -8.1471 C   0  0  0  0  0  0  0  0  0  0  0  0
   -0.7541    5.9185   -8.2405 C   0  0  0  0  0  0  0  0  0  0  0  0
   -0.6005    7.3330   -9.2176 S   0  0  0  0  0  0  0  0  0  0  0  0
    0.4867    6.4695  -10.3126 C   0  0  0  0  0  0  0  0  0  0  0  0
    0.6333    5.1030   -9.9480 C   0  0  0  0  0  0  0  0  0  0  0  0
    1.3405    4.1618  -10.6445 N   0  0  0  0  0  0  0  0  0  0  0  0
    1.4067    4.1411  -12.0502 C   0  0  0  0  0  0  0  0  0  0  0  0
    0.3096    4.5188  -12.8207 C   0  0  0  0  0  0  0  0  0  0  0  0
    0.3976    4.5097  -14.1983 C   0  0  0  0  0  0  0  0  0  0  0  0
    1.5627    4.1075  -14.8414 C   0  0  0  0  0  0  0  0  0  0  0  0
    1.6721    4.1210  -16.3345 C   0  0  0  0  0  0  0  0  0  0  0  0
    2.6387    3.6975  -14.0628 C   0  0  0  0  0  0  0  0  0  0  0  0
    2.5716    3.7160  -12.6842 C   0  0  0  0  0  0  0  0  0  0  0  0
    1.9398    3.1062   -9.9282 C   0  0  0  0  0  0  0  0  0  0  0  0
    1.8285    1.7932  -10.3729 C   0  0  0  0  0  0  0  0  0  0  0  0
    2.4174    0.7700   -9.6564 C   0  0  0  0  0  0  0  0  0  0  0  0
    3.1223    1.0255   -8.4868 C   0  0  0  0  0  0  0  0  0  0  0  0
    3.7672   -0.0823   -7.7129 C   0  0  0  0  0  0  0  0  0  0  0  0
    3.2352    2.3429   -8.0559 C   0  0  0  0  0  0  0  0  0  0  0  0
    2.6571    3.3752   -8.7653 C   0  0  0  0  0  0  0  0  0  0  0  0
   -0.0614    4.8298   -8.7595 C   0  0  0  0  0  0  0  0  0  0  0  0
   -0.2731    3.4047   -7.7935 S   0  0  0  0  0  0  0  0  0  0  0  0
    1.2099    7.0621  -11.3398 C   0  0  0  0  0  0  0  0  0  0  0  0
    1.1430    8.3367  -11.8672 C   0  0  0  0  0  0  0  0  0  0  0  0
    0.1554    9.3616  -11.5326 C   0  0  0  0  0  0  0  0  0  0  0  0
   -0.6972    9.3346  -10.6615 O   0  0  0  0  0  0  0  0  0  0  0  0
    0.3730   10.4617  -12.4962 C   0  0  0  0  0  0  0  0  0  0  0  0
   -0.3045   11.6576  -12.6194 C   0  0  0  0  0  0  0  0  0  0  0  0
    0.0830   12.5389  -13.6186 C   0  0  0  0  0  0  0  0  0  0  0  0
    1.1309   12.2023  -14.4606 C   0  0  0  0  0  0  0  0  0  0  0  0
    1.6977   13.5600  -15.9780 I   0  0  0  0  0  0  0  0  0  0  0  0
    1.8251   11.0049  -14.3462 C   0  0  0  0  0  0  0  0  0  0  0  0
    1.4371   10.1259  -13.3497 C   0  0  0  0  0  0  0  0  0  0  0  0
    1.9582    8.8145  -12.9543 C   0  0  0  0  0  0  0  0  0  0  0  0
    3.0474    8.1947  -13.5201 C   0  0  0  0  0  0  0  0  0  0  0  0
    3.6435    7.0063  -13.0580 C   0  0  0  0  0  0  0  0  0  0  0  0
    4.2132    6.0637  -12.7269 N   0  0  0  0  0  0  0  0  0  0  0  0
    3.7466    8.6898  -14.6384 C   0  0  0  0  0  0  0  0  0  0  0  0
    4.3451    9.0269  -15.5591 N   0  0  0  0  0  0  0  0  0  0  0  0
    3.2085   -9.1446    9.3912 H   0  0  0  0  0  0  0  0  0  0  0  0
    6.1131  -10.6354   13.8118 H   0  0  0  0  0  0  0  0  0  0  0  0
    7.4103   -9.3749   15.4692 H   0  0  0  0  0  0  0  0  0  0  0  0
   -0.4030   -7.9105    8.3356 H   0  0  0  0  0  0  0  0  0  0  0  0
   -2.6234   -8.1941    7.3291 H   0  0  0  0  0  0  0  0  0  0  0  0
   -4.0168   -9.2340    5.6458 H   0  0  0  0  0  0  0  0  0  0  0  0
   -3.2901  -10.1192    4.2950 H   0  0  0  0  0  0  0  0  0  0  0  0
   -3.4386   -8.3663    4.2241 H   0  0  0  0  0  0  0  0  0  0  0  0
   -0.8299   -9.8821    3.8457 H   0  0  0  0  0  0  0  0  0  0  0  0
    1.3969   -9.5789    4.8393 H   0  0  0  0  0  0  0  0  0  0  0  0
    4.5099   -8.1255    6.8447 H   0  0  0  0  0  0  0  0  0  0  0  0
    6.2165   -9.8650    6.5755 H   0  0  0  0  0  0  0  0  0  0  0  0
    5.5721  -13.3034    5.8660 H   0  0  0  0  0  0  0  0  0  0  0  0
    6.0121  -13.0880    7.5551 H   0  0  0  0  0  0  0  0  0  0  0  0
    6.8367  -12.1469    6.3086 H   0  0  0  0  0  0  0  0  0  0  0  0
    3.2163  -12.8750    6.9467 H   0  0  0  0  0  0  0  0  0  0  0  0
    1.5075  -11.1425    7.2457 H   0  0  0  0  0  0  0  0  0  0  0  0
    3.0857   -2.2665    5.9454 H   0  0  0  0  0  0  0  0  0  0  0  0
    3.1463   -0.2603    4.5338 H   0  0  0  0  0  0  0  0  0  0  0  0
    0.8559    2.1653    4.4031 H   0  0  0  0  0  0  0  0  0  0  0  0
    1.9582    2.9999    5.4910 H   0  0  0  0  0  0  0  0  0  0  0  0
    2.6009    2.0385    4.1514 H   0  0  0  0  0  0  0  0  0  0  0  0
    0.5771    1.7531    7.2815 H   0  0  0  0  0  0  0  0  0  0  0  0
    0.5591   -0.2338    8.7239 H   0  0  0  0  0  0  0  0  0  0  0  0
    3.5434   -0.9514    9.3023 H   0  0  0  0  0  0  0  0  0  0  0  0
    4.1280   -0.8238   11.6821 H   0  0  0  0  0  0  0  0  0  0  0  0
    3.7679   -3.1166   13.9597 H   0  0  0  0  0  0  0  0  0  0  0  0
    3.6365   -1.3581   13.9836 H   0  0  0  0  0  0  0  0  0  0  0  0
    2.2347   -2.3637   14.3849 H   0  0  0  0  0  0  0  0  0  0  0  0
    1.1962   -3.7904   12.5686 H   0  0  0  0  0  0  0  0  0  0  0  0
    0.5901   -3.9080   10.1964 H   0  0  0  0  0  0  0  0  0  0  0  0
   -0.6890   -2.3162    8.7084 H   0  0  0  0  0  0  0  0  0  0  0  0
   -2.0368   -3.1074   10.6100 H   0  0  0  0  0  0  0  0  0  0  0  0
   -4.2293   -4.1591   10.2181 H   0  0  0  0  0  0  0  0  0  0  0  0
   -5.9391   -4.1750    6.9701 H   0  0  0  0  0  0  0  0  0  0  0  0
   -6.1051   -4.5145    8.6990 H   0  0  0  0  0  0  0  0  0  0  0  0
   -4.7578   -6.5914    8.4235 H   0  0  0  0  0  0  0  0  0  0  0  0
   -6.1700   -6.6167    7.3616 H   0  0  0  0  0  0  0  0  0  0  0  0
   -4.5710   -6.2493    6.7015 H   0  0  0  0  0  0  0  0  0  0  0  0
   -3.7413   -3.5949    6.0184 H   0  0  0  0  0  0  0  0  0  0  0  0
   -5.4143    5.0211   -4.2223 H   0  0  0  0  0  0  0  0  0  0  0  0
   -7.2574    5.9098   -5.5798 H   0  0  0  0  0  0  0  0  0  0  0  0
   -7.2277    5.6641   -8.0298 H   0  0  0  0  0  0  0  0  0  0  0  0
   -4.3665    4.2603   -9.9199 H   0  0  0  0  0  0  0  0  0  0  0  0
   -5.8367    5.2387  -10.0455 H   0  0  0  0  0  0  0  0  0  0  0  0
   -5.7496    2.2482   -9.4147 H   0  0  0  0  0  0  0  0  0  0  0  0
   -7.2157    3.2195   -9.5397 H   0  0  0  0  0  0  0  0  0  0  0  0
   -6.2067    2.9589  -10.9669 H   0  0  0  0  0  0  0  0  0  0  0  0
   -3.5305    3.5630   -7.7679 H   0  0  0  0  0  0  0  0  0  0  0  0
    0.2062   -1.8487    1.4334 H   0  0  0  0  0  0  0  0  0  0  0  0
    0.0558   -0.7644    0.0546 H   0  0  0  0  0  0  0  0  0  0  0  0
    1.2398    1.0304    1.5075 H   0  0  0  0  0  0  0  0  0  0  0  0
    1.4328   -0.2136    2.7375 H   0  0  0  0  0  0  0  0  0  0  0  0
    2.2339   -0.3962    1.1745 H   0  0  0  0  0  0  0  0  0  0  0  0
    0.1946    2.2465   -1.8042 H   0  0  0  0  0  0  0  0  0  0  0  0
    0.3765    1.2089   -0.3923 H   0  0  0  0  0  0  0  0  0  0  0  0
   -0.1514    0.3886   -3.2990 H   0  0  0  0  0  0  0  0  0  0  0  0
    1.2856    0.0278   -2.3438 H   0  0  0  0  0  0  0  0  0  0  0  0
   -0.2519   -0.7727   -1.9834 H   0  0  0  0  0  0  0  0  0  0  0  0
   -4.1250    7.2903   -4.7222 H   0  0  0  0  0  0  0  0  0  0  0  0
   -4.2579    6.9379   -2.2931 H   0  0  0  0  0  0  0  0  0  0  0  0
   -2.7912    6.6824   -0.1228 H   0  0  0  0  0  0  0  0  0  0  0  0
   -3.1386    4.9995   -0.4996 H   0  0  0  0  0  0  0  0  0  0  0  0
   -1.4689    5.5118   -0.2352 H   0  0  0  0  0  0  0  0  0  0  0  0
   -0.2838    5.3967   -2.2965 H   0  0  0  0  0  0  0  0  0  0  0  0
   -0.1394    5.7640   -4.7126 H   0  0  0  0  0  0  0  0  0  0  0  0
   -2.1124    9.1092   -5.4895 H   0  0  0  0  0  0  0  0  0  0  0  0
   -3.1128   11.0100   -6.6774 H   0  0  0  0  0  0  0  0  0  0  0  0
   -4.5352   11.8679   -8.4191 H   0  0  0  0  0  0  0  0  0  0  0  0
   -5.3919   10.7482   -9.4910 H   0  0  0  0  0  0  0  0  0  0  0  0
   -3.7513   11.2572   -9.8781 H   0  0  0  0  0  0  0  0  0  0  0  0
   -4.4786    8.3828   -9.7461 H   0  0  0  0  0  0  0  0  0  0  0  0
   -3.5015    6.4760   -8.5491 H   0  0  0  0  0  0  0  0  0  0  0  0
   -0.6049    4.8285  -12.3361 H   0  0  0  0  0  0  0  0  0  0  0  0
   -0.4583    4.8142  -14.7834 H   0  0  0  0  0  0  0  0  0  0  0  0
    2.4004    4.8685  -16.6488 H   0  0  0  0  0  0  0  0  0  0  0  0
    0.7160    4.3555  -16.7955 H   0  0  0  0  0  0  0  0  0  0  0  0
    2.0119    3.1542  -16.7022 H   0  0  0  0  0  0  0  0  0  0  0  0
    3.5518    3.3790  -14.5424 H   0  0  0  0  0  0  0  0  0  0  0  0
    3.4233    3.4179  -12.0936 H   0  0  0  0  0  0  0  0  0  0  0  0
    1.2744    1.5810  -11.2751 H   0  0  0  0  0  0  0  0  0  0  0  0
    2.3192   -0.2463  -10.0092 H   0  0  0  0  0  0  0  0  0  0  0  0
    4.8432   -0.0836   -7.8881 H   0  0  0  0  0  0  0  0  0  0  0  0
    3.6034    0.0499   -6.6453 H   0  0  0  0  0  0  0  0  0  0  0  0
    3.3719   -1.0491   -8.0137 H   0  0  0  0  0  0  0  0  0  0  0  0
    3.7884    2.5625   -7.1545 H   0  0  0  0  0  0  0  0  0  0  0  0
    2.7613    4.3964   -8.4287 H   0  0  0  0  0  0  0  0  0  0  0  0
    1.9338    6.4055  -11.8049 H   0  0  0  0  0  0  0  0  0  0  0  0
   -1.1154   11.8957  -11.9487 H   0  0  0  0  0  0  0  0  0  0  0  0
   -0.4282   13.4814  -13.7394 H   0  0  0  0  0  0  0  0  0  0  0  0
    2.6361   10.7793  -15.0190 H   0  0  0  0  0  0  0  0  0  0  0  0
  1  2  2  0  0  0  0
  2  3  1  0  0  0  0
  3  4  2  0  0  0  0
  3  5  1  0  0  0  0
  5  6  2  0  0  0  0
  6  7  1  0  0  0  0
  7  8  2  0  0  0  0
  8  9  1  0  0  0  0
  9 10  1  0  0  0  0
  9 11  2  0  0  0  0
 11 12  1  0  0  0  0
  6 13  1  0  0  0  0
 13 14  2  0  0  0  0
 14 15  1  0  0  0  0
 15 16  3  0  0  0  0
 14 17  1  0  0  0  0
 17 18  3  0  0  0  0
  1 19  1  0  0  0  0
 19 20  2  0  0  0  0
 20 21  1  0  0  0  0
 21 22  1  0  0  0  0
 22 23  2  0  0  0  0
 23 24  1  0  0  0  0
 24 25  2  0  0  0  0
 25 26  1  0  0  0  0
 25 27  1  0  0  0  0
 27 28  2  0  0  0  0
 21 29  1  0  0  0  0
 29 30  2  0  0  0  0
 30 31  1  0  0  0  0
 31 32  2  0  0  0  0
 32 33  1  0  0  0  0
 32 34  1  0  0  0  0
 34 35  2  0  0  0  0
 20 36  1  0  0  0  0
 36 37  1  0  0  0  0
 37 38  1  0  0  0  0
 38 39  2  0  0  0  0
 39 40  1  0  0  0  0
 40 41  1  0  0  0  0
 41 42  2  0  0  0  0
 42 43  1  0  0  0  0
 43 44  2  0  0  0  0
 44 45  1  0  0  0  0
 44 46  1  0  0  0  0
 46 47  2  0  0  0  0
 40 48  1  0  0  0  0
 48 49  2  0  0  0  0
 49 50  1  0  0  0  0
 50 51  2  0  0  0  0
 51 52  1  0  0  0  0
 51 53  1  0  0  0  0
 53 54  2  0  0  0  0
 39 55  1  0  0  0  0
 55 56  1  0  0  0  0
 38 57  1  0  0  0  0
 57 58  2  0  0  0  0
 58 59  1  0  0  0  0
 59 60  2  0  0  0  0
 60 61  1  0  0  0  0
 61 62  2  0  0  0  0
 62 63  1  0  0  0  0
 63 64  1  0  0  0  0
 64 65  1  0  0  0  0
 63 66  2  0  0  0  0
 58 67  1  0  0  0  0
 67 68  1  0  0  0  0
 68 69  1  0  0  0  0
 69 70  1  0  0  0  0
 70 71  1  0  0  0  0
 71 72  1  0  0  0  0
 72 73  2  0  0  0  0
 73 74  1  0  0  0  0
 74 75  1  0  0  0  0
 72 76  1  0  0  0  0
 76 77  1  0  0  0  0
 77 78  1  0  0  0  0
 78 79  1  0  0  0  0
 79 80  1  0  0  0  0
 80 81  1  0  0  0  0
 81 82  2  0  0  0  0
 82 83  1  0  0  0  0
 83 84  2  0  0  0  0
 84 85  1  0  0  0  0
 85 86  1  0  0  0  0
 86 87  1  0  0  0  0
 85 88  2  0  0  0  0
 80 89  2  0  0  0  0
 89 90  1  0  0  0  0
 90 91  1  0  0  0  0
 91 92  1  0  0  0  0
 92 93  1  0  0  0  0
 93 94  1  0  0  0  0
 94 95  1  0  0  0  0
 95 96  1  0  0  0  0
 96 97  1  0  0  0  0
 97 98  1  0  0  0  0
 98 99  1  0  0  0  0
 96100  1  0  0  0  0
100101  1  0  0  0  0
 93102  1  0  0  0  0
102103  1  0  0  0  0
 89104  1  0  0  0  0
104105  2  0  0  0  0
105106  1  0  0  0  0
106107  1  0  0  0  0
107108  2  0  0  0  0
108109  1  0  0  0  0
109110  2  0  0  0  0
110111  1  0  0  0  0
110112  1  0  0  0  0
112113  2  0  0  0  0
106114  1  0  0  0  0
114115  2  0  0  0  0
115116  1  0  0  0  0
116117  2  0  0  0  0
117118  1  0  0  0  0
117119  1  0  0  0  0
119120  2  0  0  0  0
105121  1  0  0  0  0
121122  1  0  0  0  0
122123  1  0  0  0  0
123124  2  0  0  0  0
124125  1  0  0  0  0
125126  1  0  0  0  0
126127  2  0  0  0  0
127128  1  0  0  0  0
128129  2  0  0  0  0
129130  1  0  0  0  0
129131  1  0  0  0  0
131132  2  0  0  0  0
125133  1  0  0  0  0
133134  2  0  0  0  0
134135  1  0  0  0  0
135136  2  0  0  0  0
136137  1  0  0  0  0
136138  1  0  0  0  0
138139  2  0  0  0  0
124140  1  0  0  0  0
140141  1  0  0  0  0
123142  1  0  0  0  0
142143  2  0  0  0  0
143144  1  0  0  0  0
144145  2  0  0  0  0
144146  1  0  0  0  0
146147  2  0  0  0  0
147148  1  0  0  0  0
148149  2  0  0  0  0
149150  1  0  0  0  0
149151  1  0  0  0  0
151152  2  0  0  0  0
152153  1  0  0  0  0
153154  2  0  0  0  0
154155  1  0  0  0  0
155156  3  0  0  0  0
154157  1  0  0  0  0
157158  3  0  0  0  0
 13  2  1  0  0  0  0
 56 19  1  0  0  0  0
 99 57  1  0  0  0  0
141104  1  0  0  0  0
153143  1  0  0  0  0
 11  5  1  0  0  0  0
 28 22  1  0  0  0  0
 35 29  1  0  0  0  0
 55 36  2  0  0  0  0
 66 59  1  0  0  0  0
 98 67  2  0  0  0  0
113107  1  0  0  0  0
120114  1  0  0  0  0
140121  2  0  0  0  0
152146  1  0  0  0  0
 47 41  1  0  0  0  0
 54 48  1  0  0  0  0
 97 69  2  0  0  0  0
132126  1  0  0  0  0
139133  1  0  0  0  0
 95 70  2  0  0  0  0
 75 71  2  0  0  0  0
 94 76  2  0  0  0  0
 92 77  2  0  0  0  0
 91 79  2  0  0  0  0
 88 81  1  0  0  0  0
  1159  1  0  0  0  0
  7160  1  0  0  0  0
  8161  1  0  0  0  0
 23162  1  0  0  0  0
 24163  1  0  0  0  0
 26164  1  0  0  0  0
 26165  1  0  0  0  0
 26166  1  0  0  0  0
 27167  1  0  0  0  0
 28168  1  0  0  0  0
 30169  1  0  0  0  0
 31170  1  0  0  0  0
 33171  1  0  0  0  0
 33172  1  0  0  0  0
 33173  1  0  0  0  0
 34174  1  0  0  0  0
 35175  1  0  0  0  0
 42176  1  0  0  0  0
 43177  1  0  0  0  0
 45178  1  0  0  0  0
 45179  1  0  0  0  0
 45180  1  0  0  0  0
 46181  1  0  0  0  0
 47182  1  0  0  0  0
 49183  1  0  0  0  0
 50184  1  0  0  0  0
 52185  1  0  0  0  0
 52186  1  0  0  0  0
 52187  1  0  0  0  0
 53188  1  0  0  0  0
 54189  1  0  0  0  0
 60190  1  0  0  0  0
 61191  1  0  0  0  0
 62192  1  0  0  0  0
 64193  1  0  0  0  0
 64194  1  0  0  0  0
 65195  1  0  0  0  0
 65196  1  0  0  0  0
 65197  1  0  0  0  0
 66198  1  0  0  0  0
 82199  1  0  0  0  0
 83200  1  0  0  0  0
 84201  1  0  0  0  0
 86202  1  0  0  0  0
 86203  1  0  0  0  0
 87204  1  0  0  0  0
 87205  1  0  0  0  0
 87206  1  0  0  0  0
 88207  1  0  0  0  0
100208  1  0  0  0  0
100209  1  0  0  0  0
101210  1  0  0  0  0
101211  1  0  0  0  0
101212  1  0  0  0  0
102213  1  0  0  0  0
102214  1  0  0  0  0
103215  1  0  0  0  0
103216  1  0  0  0  0
103217  1  0  0  0  0
108218  1  0  0  0  0
109219  1  0  0  0  0
111220  1  0  0  0  0
111221  1  0  0  0  0
111222  1  0  0  0  0
112223  1  0  0  0  0
113224  1  0  0  0  0
115225  1  0  0  0  0
116226  1  0  0  0  0
118227  1  0  0  0  0
118228  1  0  0  0  0
118229  1  0  0  0  0
119230  1  0  0  0  0
120231  1  0  0  0  0
127232  1  0  0  0  0
128233  1  0  0  0  0
130234  1  0  0  0  0
130235  1  0  0  0  0
130236  1  0  0  0  0
131237  1  0  0  0  0
132238  1  0  0  0  0
134239  1  0  0  0  0
135240  1  0  0  0  0
137241  1  0  0  0  0
137242  1  0  0  0  0
137243  1  0  0  0  0
138244  1  0  0  0  0
139245  1  0  0  0  0
142246  1  0  0  0  0
147247  1  0  0  0  0
148248  1  0  0  0  0
151249  1  0  0  0  0
M  END
