193

C         -8.27980       -2.84180        4.88450
C         -9.01850       -1.85510        5.51670
C         -8.99520       -0.43170        5.20170
O         -8.30090        0.15040        4.38680
C        -10.02570        0.19120        6.06400
C        -10.63810       -0.80480        6.84530
C        -11.64220       -0.46310        7.73530
C        -12.02070        0.86920        7.83200
C        -11.41160        1.84630        7.06160
Br       -11.96700        3.64500        7.24370
C        -10.39550        1.52100        6.15670
Cl        -9.63680        2.72320        5.20160
C        -10.00680       -2.08960        6.53440
C        -10.31120       -3.28110        7.15330
C        -11.35130       -3.44360        8.08860
N        -12.19270       -3.65310        8.84250
C         -9.62200       -4.49510        6.97800
N         -9.09420       -5.51600        6.92880
C         -7.27280       -2.74330        3.93720
C         -6.58250       -3.87520        3.40930
N         -6.98120       -5.17420        3.53660
C         -8.34010       -5.54890        3.55740
C         -9.27760       -4.87500        2.77920
C        -10.60540       -5.25060        2.81910
C        -11.02850       -6.31100        3.61240
C        -12.47090       -6.70720        3.67610
C        -10.07790       -6.99870        4.35790
C         -8.74880       -6.62580        4.33970
C         -6.01180       -6.19620        3.47790
C         -6.22300       -7.32420        2.69250
C         -5.25930       -8.31080        2.62710
C         -4.07190       -8.20300        3.34000
C         -3.03540       -9.28090        3.28620
C         -3.87900       -7.08020        4.13670
C         -4.83390       -6.08700        4.21210
C         -5.42710       -3.47340        2.72250
S         -4.15690       -4.31720        1.89110
C         -3.41230       -2.78690        1.43240
C         -4.16730       -1.68970        1.84890
N         -3.90200       -0.35700        1.57950
C         -3.53560        0.08690        0.30790
C         -2.80590        1.26800        0.17270
C         -2.38740        1.69040       -1.07280
C         -2.67450        0.95500       -2.21560
C         -2.20860        1.39950       -3.56840
C         -3.41770       -0.21250       -2.07590
C         -3.84950       -0.64210       -0.83850
C         -4.28080        0.57300        2.57100
C         -3.90530        0.35560        3.89230
C         -4.33600        1.21350        4.88550
C         -5.13890        2.30590        4.58700
C         -5.65180        3.20970        5.66400
C         -5.48390        2.53060        3.25850
C         -5.06570        1.67840        2.25800
C         -5.28570       -2.09550        2.61170
S         -6.55490       -1.22250        3.39020
C         -2.13200       -2.79620        0.82020
C         -1.45080       -3.87710        0.27740
C         -2.03030       -5.19850        0.02210
C         -1.41040       -6.34640        0.50230
C         -1.96130       -7.58540        0.23550
C         -3.12140       -7.68910       -0.51090
C         -3.73830       -6.55390       -1.02090
C         -5.01080       -6.65100       -1.81180
C         -6.21830       -6.53180       -0.88070
C         -3.18230       -5.31440       -0.74930
C         -0.13910       -3.53220       -0.08590
S          1.14970       -4.43690       -0.84360
C          2.10070       -2.98990       -0.89140
C          3.31930       -2.54190       -1.42460
C          4.28860       -3.19410       -2.21860
C          5.33390       -2.41440       -2.82110
N          6.12310       -3.14070       -3.59710
S          5.60310       -4.67380       -3.56620
N          4.34700       -4.47000       -2.56580
C          5.43030       -1.04160       -2.50650
C          6.34640       -0.05090       -2.89880
S          7.70070        0.13440       -3.95880
C          7.83060        1.80410       -3.46290
C          8.67540        2.85700       -3.87120
C          9.65560        2.71900       -4.94790
C          9.75860        3.68500       -5.94660
C         10.66270        3.51210       -6.97610
C         11.46060        2.38150       -7.02570
C         11.36600        1.40710       -6.04110
C         12.18220        0.14910       -6.10850
C         11.34820       -0.99200       -6.69480
C         10.45870        1.58640       -5.00800
C          8.36130        4.03000       -3.21330
S          7.00030        3.84960       -2.11660
C          6.86950        2.17590       -2.52060
C          6.01900        1.11210       -2.19730
N          4.93000        0.88740       -1.39190
C          4.53170       -0.42470       -1.59350
C          3.39710       -1.14790       -1.15150
N          2.24120       -0.75990       -0.49550
C          1.46120       -1.87620       -0.33770
C          0.18260       -2.19070        0.13680
S         -1.12780       -1.35180        0.88050
C          1.64320        0.55540       -0.39670
C          1.44650        0.99960        1.05200
C          4.75140        1.69890       -0.20710
C          5.95740        1.59160        0.72630
C          8.98880        5.32320       -3.32880
C         10.37760        5.48060       -3.45730
F         11.18080        4.40430       -3.36840
C         10.96570        6.71130       -3.62490
C         10.18450        7.86860       -3.70470
C          8.80750        7.72040       -3.48830
F          8.03250        8.81370       -3.39890
C          8.22290        6.49230       -3.29050
C         10.79770        9.15190       -3.94950
C         10.29220       10.09630       -4.78070
C          9.23210        9.82510       -5.79410
O          8.67070        8.77780       -6.00980
C          9.10570       11.07940       -6.56710
C         10.02480       12.03180       -6.08710
C         10.09400       13.28570       -6.67620
C          9.24240       13.57170       -7.73190
C          8.33690       12.63120       -8.20070
Br         7.20140       13.08510       -9.63960
C          8.25490       11.35780       -7.62590
Cl         7.14290       10.19380       -8.20260
C         10.77200       11.45330       -4.97540
C         11.70890       12.10350       -4.21800
C         12.12380       13.43500       -4.43550
N         12.50880       14.50870       -4.56260
C         12.38410       11.54420       -3.11150
N         12.96630       11.16070       -2.19950
H         -8.50790       -3.85570        5.18640
H        -12.13340       -1.19890        8.34960
H        -12.80180        1.15550        8.51940
H         -8.96360       -4.05460        2.15060
H        -11.32350       -4.71400        2.21600
H        -13.06260       -6.14940        2.95480
H        -12.58450       -7.77130        3.47600
H        -12.86750       -6.51410        4.67260
H        -10.38520       -7.82680        4.97820
H         -8.02580       -7.15590        4.93890
H         -7.14290       -7.41710        2.13450
H         -5.43200       -9.17930        2.00820
H         -2.03800       -8.85020        3.23370
H         -3.08790       -9.89370        4.18670
H         -3.18980       -9.92660        2.42580
H         -2.96880       -6.98540        4.71030
H         -4.67860       -5.22560        4.84500
H         -2.55680        1.83880        1.05450
H         -1.81630        2.60430       -1.15530
H         -1.57780        2.28170       -3.49300
H         -1.64500        0.60680       -4.05910
H         -3.06180        1.63940       -4.20230
H         -3.66400       -0.79200       -2.95420
H         -4.43290       -1.54730       -0.75370
H         -3.28710       -0.49720        4.13480
H         -4.04780        1.02520        5.90980
H         -6.71380        3.02280        5.82180
H         -5.53670        4.25490        5.38230
H         -5.13190        3.03690        6.60310
H         -6.10870        3.37560        3.00870
H         -5.36070        1.85000        1.23330
H         -0.50690       -6.26110        1.08720
H         -1.47870       -8.47700        0.60680
H         -3.54610       -8.66160       -0.71390
H         -5.04610       -5.85140       -2.55450
H         -5.05250       -7.60700       -2.33710
H         -7.14540       -6.57110       -1.44810
H         -6.21310       -7.34390       -0.15850
H         -6.18220       -5.59270       -0.33260
H         -3.64110       -4.42080       -1.14960
H          9.12170        4.55750       -5.92360
H         10.74080        4.26230       -7.74930
H         12.16270        2.25480       -7.83730
H         13.06500        0.31040       -6.72980
H         12.51470       -0.12780       -5.10610
H         11.93180       -1.90880       -6.73270
H         11.02510       -0.74390       -7.70350
H         10.46380       -1.16680       -6.08630
H         10.38940        0.84380       -4.22680
H          0.65830        0.51230       -0.87800
H          2.25420        1.26330       -0.95770
H          1.09270        2.02640        1.07330
H          2.36820        0.93290        1.62590
H          0.70440        0.37220        1.53720
H          4.61490        2.73960       -0.51870
H          3.87150        1.36230        0.32850
H          6.11790        0.55480        1.01500
H          6.85860        1.96200        0.24600
H          5.77780        2.18070        1.62150
H         12.03770        6.77280       -3.72890
H          7.15640        6.43470       -3.13600
H         11.73610        9.32880       -3.44040
H         10.78990       14.03480       -6.33750
H          9.27960       14.54180       -8.20320
