
  xtb     02072213103D
 energy: -424.587746100088 gnorm: 0.000997249917 xtb: 6.4.1 (unknown)
256283  0     0  0            999 V2000
    6.9517    0.1008   -0.3913 C   0  0  0  0  0  0  0  0  0  0  0  0
    6.8013    1.0576    0.5887 C   0  0  0  0  0  0  0  0  0  0  0  0
    7.9791    1.5204    1.3484 C   0  0  0  0  0  0  0  0  0  0  0  0
    9.1431    1.2834    1.1195 O   0  0  0  0  0  0  0  0  0  0  0  0
    7.4161    2.2816    2.4936 C   0  0  0  0  0  0  0  0  0  0  0  0
    6.0231    2.3964    2.3377 C   0  0  0  0  0  0  0  0  0  0  0  0
    5.2691    3.0781    3.2762 C   0  0  0  0  0  0  0  0  0  0  0  0
    5.9116    3.5882    4.3938 C   0  0  0  0  0  0  0  0  0  0  0  0
    7.2797    3.4524    4.5579 C   0  0  0  0  0  0  0  0  0  0  0  0
    8.0828    4.1426    6.1239 Br  0  0  0  0  0  0  0  0  0  0  0  0
    8.0649    2.8073    3.5967 C   0  0  0  0  0  0  0  0  0  0  0  0
    9.7596    2.6522    3.7900 Cl  0  0  0  0  0  0  0  0  0  0  0  0
    5.6350    1.6946    1.1157 C   0  0  0  0  0  0  0  0  0  0  0  0
    4.4204    1.8063    0.4714 C   0  0  0  0  0  0  0  0  0  0  0  0
    4.2383    1.3880   -0.8569 C   0  0  0  0  0  0  0  0  0  0  0  0
    4.0637    1.0896   -1.9532 N   0  0  0  0  0  0  0  0  0  0  0  0
    3.2822    2.4037    1.0335 C   0  0  0  0  0  0  0  0  0  0  0  0
    2.3099    2.8339    1.4719 N   0  0  0  0  0  0  0  0  0  0  0  0
    6.0474   -0.8608   -0.8515 C   0  0  0  0  0  0  0  0  0  0  0  0
    4.8853   -1.4254   -0.2821 C   0  0  0  0  0  0  0  0  0  0  0  0
    4.3528   -1.1752    0.9610 N   0  0  0  0  0  0  0  0  0  0  0  0
    2.9611   -1.3709    1.1643 C   0  0  0  0  0  0  0  0  0  0  0  0
    2.0301   -0.7758    0.3185 C   0  0  0  0  0  0  0  0  0  0  0  0
    0.6804   -0.8747    0.5932 C   0  0  0  0  0  0  0  0  0  0  0  0
    0.2198   -1.5753    1.7010 C   0  0  0  0  0  0  0  0  0  0  0  0
   -1.2374   -1.5977    2.0419 C   0  0  0  0  0  0  0  0  0  0  0  0
    1.1544   -2.2189    2.5039 C   0  0  0  0  0  0  0  0  0  0  0  0
    2.5078   -2.1198    2.2463 C   0  0  0  0  0  0  0  0  0  0  0  0
    5.1355   -0.9136    2.0939 C   0  0  0  0  0  0  0  0  0  0  0  0
    6.4375   -1.3973    2.2139 C   0  0  0  0  0  0  0  0  0  0  0  0
    7.1842   -1.1160    3.3394 C   0  0  0  0  0  0  0  0  0  0  0  0
    6.6577   -0.3706    4.3902 C   0  0  0  0  0  0  0  0  0  0  0  0
    7.4826   -0.0800    5.6035 C   0  0  0  0  0  0  0  0  0  0  0  0
    5.3467    0.0757    4.2819 C   0  0  0  0  0  0  0  0  0  0  0  0
    4.5987   -0.1748    3.1490 C   0  0  0  0  0  0  0  0  0  0  0  0
    4.3278   -2.3815   -1.1543 C   0  0  0  0  0  0  0  0  0  0  0  0
    3.0104   -3.4897   -1.0009 S   0  0  0  0  0  0  0  0  0  0  0  0
    3.3345   -4.1230   -2.6106 C   0  0  0  0  0  0  0  0  0  0  0  0
    4.4270   -3.5245   -3.2179 C   0  0  0  0  0  0  0  0  0  0  0  0
    4.9160   -3.8462   -4.4625 N   0  0  0  0  0  0  0  0  0  0  0  0
    4.6307   -5.0971   -5.0378 C   0  0  0  0  0  0  0  0  0  0  0  0
    4.2277   -5.1788   -6.3678 C   0  0  0  0  0  0  0  0  0  0  0  0
    3.8843   -6.3992   -6.9131 C   0  0  0  0  0  0  0  0  0  0  0  0
    3.9297   -7.5642   -6.1554 C   0  0  0  0  0  0  0  0  0  0  0  0
    3.4963   -8.8716   -6.7440 C   0  0  0  0  0  0  0  0  0  0  0  0
    4.3649   -7.4773   -4.8392 C   0  0  0  0  0  0  0  0  0  0  0  0
    4.7184   -6.2631   -4.2832 C   0  0  0  0  0  0  0  0  0  0  0  0
    5.6022   -2.8792   -5.2202 C   0  0  0  0  0  0  0  0  0  0  0  0
    5.1960   -1.5483   -5.2252 C   0  0  0  0  0  0  0  0  0  0  0  0
    5.8978   -0.6142   -5.9627 C   0  0  0  0  0  0  0  0  0  0  0  0
    7.0024   -0.9802   -6.7199 C   0  0  0  0  0  0  0  0  0  0  0  0
    7.7753    0.0367   -7.5022 C   0  0  0  0  0  0  0  0  0  0  0  0
    7.3880   -2.3168   -6.7236 C   0  0  0  0  0  0  0  0  0  0  0  0
    6.7036   -3.2581   -5.9828 C   0  0  0  0  0  0  0  0  0  0  0  0
    5.0020   -2.5549   -2.3568 C   0  0  0  0  0  0  0  0  0  0  0  0
    6.4228   -1.5840   -2.4227 S   0  0  0  0  0  0  0  0  0  0  0  0
    2.3859   -5.0868   -3.0807 C   0  0  0  0  0  0  0  0  0  0  0  0
    1.8570   -6.0985   -2.3195 C   0  0  0  0  0  0  0  0  0  0  0  0
    0.6889   -6.6221   -2.8774 C   0  0  0  0  0  0  0  0  0  0  0  0
   -0.5709   -7.6200   -2.2105 S   0  0  0  0  0  0  0  0  0  0  0  0
   -1.6470   -7.0373   -3.4425 C   0  0  0  0  0  0  0  0  0  0  0  0
   -3.0468   -6.7340   -3.3820 C   0  0  0  0  0  0  0  0  0  0  0  0
   -3.8506   -6.8408   -2.2489 C   0  0  0  0  0  0  0  0  0  0  0  0
   -4.7984   -5.8600   -2.0689 C   0  0  0  0  0  0  0  0  0  0  0  0
   -5.2932   -5.3585   -0.7132 C   0  0  0  0  0  0  0  0  0  0  0  0
   -4.1026   -5.4259    0.2316 C   0  0  0  0  0  0  0  0  0  0  0  0
   -2.9640   -4.6933   -0.0962 C   0  0  0  0  0  0  0  0  0  0  0  0
   -1.8286   -4.7641    0.6863 C   0  0  0  0  0  0  0  0  0  0  0  0
   -1.8190   -5.5624    1.8193 C   0  0  0  0  0  0  0  0  0  0  0  0
   -2.9476   -6.2865    2.1570 C   0  0  0  0  0  0  0  0  0  0  0  0
   -4.0838   -6.2249    1.3653 C   0  0  0  0  0  0  0  0  0  0  0  0
   -6.5093   -6.1053   -0.2072 C   0  0  0  0  0  0  0  0  0  0  0  0
   -6.6232   -7.4781   -0.3928 C   0  0  0  0  0  0  0  0  0  0  0  0
   -7.7278   -8.1622    0.0820 C   0  0  0  0  0  0  0  0  0  0  0  0
   -8.7346   -7.4857    0.7489 C   0  0  0  0  0  0  0  0  0  0  0  0
   -8.6310   -6.1183    0.9332 C   0  0  0  0  0  0  0  0  0  0  0  0
   -7.5273   -5.4331    0.4572 C   0  0  0  0  0  0  0  0  0  0  0  0
   -5.6169   -3.9233   -1.0662 C   0  0  0  0  0  0  0  0  0  0  0  0
   -5.6367   -3.7636   -2.4424 C   0  0  0  0  0  0  0  0  0  0  0  0
   -5.0643   -4.9129   -3.0811 C   0  0  0  0  0  0  0  0  0  0  0  0
   -4.3930   -4.9418   -4.3044 C   0  0  0  0  0  0  0  0  0  0  0  0
   -3.3176   -5.7970   -4.4036 C   0  0  0  0  0  0  0  0  0  0  0  0
   -2.0723   -5.5579   -5.2555 C   0  0  0  0  0  0  0  0  0  0  0  0
   -2.0853   -6.2137   -6.6179 C   0  0  0  0  0  0  0  0  0  0  0  0
   -0.8973   -6.2959   -7.3373 C   0  0  0  0  0  0  0  0  0  0  0  0
   -0.8724   -6.9089   -8.5756 C   0  0  0  0  0  0  0  0  0  0  0  0
   -2.0324   -7.4471   -9.1088 C   0  0  0  0  0  0  0  0  0  0  0  0
   -3.2163   -7.3657   -8.3975 C   0  0  0  0  0  0  0  0  0  0  0  0
   -3.2441   -6.7528   -7.1559 C   0  0  0  0  0  0  0  0  0  0  0  0
   -1.8331   -4.0587   -5.3124 C   0  0  0  0  0  0  0  0  0  0  0  0
   -1.9200   -3.3361   -6.4920 C   0  0  0  0  0  0  0  0  0  0  0  0
   -1.7489   -1.9613   -6.4825 C   0  0  0  0  0  0  0  0  0  0  0  0
   -1.4950   -1.2956   -5.2975 C   0  0  0  0  0  0  0  0  0  0  0  0
   -1.4129   -2.0111   -4.1143 C   0  0  0  0  0  0  0  0  0  0  0  0
   -1.5836   -3.3814   -4.1224 C   0  0  0  0  0  0  0  0  0  0  0  0
   -1.0349   -6.2384   -4.3904 C   0  0  0  0  0  0  0  0  0  0  0  0
    0.3041   -5.9987   -4.0708 C   0  0  0  0  0  0  0  0  0  0  0  0
    1.4766   -4.8282   -4.5682 S   0  0  0  0  0  0  0  0  0  0  0  0
   -5.7741   -2.1168   -2.9797 S   0  0  0  0  0  0  0  0  0  0  0  0
   -5.6605   -1.6068   -1.3252 C   0  0  0  0  0  0  0  0  0  0  0  0
   -5.3479   -0.4524   -0.6090 C   0  0  0  0  0  0  0  0  0  0  0  0
   -5.1052   -0.8557    0.7192 C   0  0  0  0  0  0  0  0  0  0  0  0
   -5.3119   -2.2063    0.8433 N   0  0  0  0  0  0  0  0  0  0  0  0
   -5.2570   -2.9212    2.0925 C   0  0  0  0  0  0  0  0  0  0  0  0
   -6.4296   -2.5502    2.9986 C   0  0  0  0  0  0  0  0  0  0  0  0
   -5.6143   -2.6865   -0.4075 C   0  0  0  0  0  0  0  0  0  0  0  0
   -4.5530    0.1568    1.5074 C   0  0  0  0  0  0  0  0  0  0  0  0
   -4.3955    1.3336    0.8026 C   0  0  0  0  0  0  0  0  0  0  0  0
   -4.9840    1.2146   -0.8541 S   0  0  0  0  0  0  0  0  0  0  0  0
   -3.7009    2.4739    1.3028 C   0  0  0  0  0  0  0  0  0  0  0  0
   -3.8064    3.8295    1.0283 C   0  0  0  0  0  0  0  0  0  0  0  0
   -4.6944    4.4331    0.1415 N   0  0  0  0  0  0  0  0  0  0  0  0
   -4.6457    4.1158   -1.2199 C   0  0  0  0  0  0  0  0  0  0  0  0
   -3.4611    3.6673   -1.8014 C   0  0  0  0  0  0  0  0  0  0  0  0
   -3.4320    3.3138   -3.1360 C   0  0  0  0  0  0  0  0  0  0  0  0
   -4.5692    3.4038   -3.9275 C   0  0  0  0  0  0  0  0  0  0  0  0
   -4.5362    2.9805   -5.3642 C   0  0  0  0  0  0  0  0  0  0  0  0
   -5.7420    3.8711   -3.3445 C   0  0  0  0  0  0  0  0  0  0  0  0
   -5.7879    4.2226   -2.0114 C   0  0  0  0  0  0  0  0  0  0  0  0
   -5.3978    5.5512    0.6123 C   0  0  0  0  0  0  0  0  0  0  0  0
   -5.8901    5.5494    1.9157 C   0  0  0  0  0  0  0  0  0  0  0  0
   -6.5662    6.6477    2.4078 C   0  0  0  0  0  0  0  0  0  0  0  0
   -6.7810    7.7697    1.6182 C   0  0  0  0  0  0  0  0  0  0  0  0
   -7.4977    8.9694    2.1584 C   0  0  0  0  0  0  0  0  0  0  0  0
   -6.2900    7.7621    0.3174 C   0  0  0  0  0  0  0  0  0  0  0  0
   -5.6022    6.6757   -0.1833 C   0  0  0  0  0  0  0  0  0  0  0  0
   -2.9058    4.5802    1.8198 C   0  0  0  0  0  0  0  0  0  0  0  0
   -2.5584    6.2645    1.9079 S   0  0  0  0  0  0  0  0  0  0  0  0
   -1.2975    5.9595    3.1164 C   0  0  0  0  0  0  0  0  0  0  0  0
   -1.1002    4.5742    3.3374 C   0  0  0  0  0  0  0  0  0  0  0  0
   -0.0525    4.0016    3.9902 N   0  0  0  0  0  0  0  0  0  0  0  0
   -0.1695    2.6838    4.4791 C   0  0  0  0  0  0  0  0  0  0  0  0
    0.8348    1.7587    4.2164 C   0  0  0  0  0  0  0  0  0  0  0  0
    0.7303    0.4710    4.7044 C   0  0  0  0  0  0  0  0  0  0  0  0
   -0.3702    0.0791    5.4571 C   0  0  0  0  0  0  0  0  0  0  0  0
   -0.4939   -1.3222    5.9734 C   0  0  0  0  0  0  0  0  0  0  0  0
   -1.3647    1.0155    5.7185 C   0  0  0  0  0  0  0  0  0  0  0  0
   -1.2716    2.3076    5.2407 C   0  0  0  0  0  0  0  0  0  0  0  0
    1.1772    4.6556    4.1650 C   0  0  0  0  0  0  0  0  0  0  0  0
    1.7464    5.4145    3.1432 C   0  0  0  0  0  0  0  0  0  0  0  0
    2.9193    6.1037    3.3648 C   0  0  0  0  0  0  0  0  0  0  0  0
    3.5556    6.0699    4.6048 C   0  0  0  0  0  0  0  0  0  0  0  0
    4.7892    6.8836    4.8442 C   0  0  0  0  0  0  0  0  0  0  0  0
    3.0121    5.2664    5.5982 C   0  0  0  0  0  0  0  0  0  0  0  0
    1.8431    4.5575    5.3842 C   0  0  0  0  0  0  0  0  0  0  0  0
   -2.0773    3.8285    2.6404 C   0  0  0  0  0  0  0  0  0  0  0  0
   -2.4308    2.1415    2.4822 S   0  0  0  0  0  0  0  0  0  0  0  0
   -0.6783    7.0777    3.6649 C   0  0  0  0  0  0  0  0  0  0  0  0
   -0.0110    7.1293    4.8762 C   0  0  0  0  0  0  0  0  0  0  0  0
   -0.2996    6.2387    6.0066 C   0  0  0  0  0  0  0  0  0  0  0  0
   -1.1040    5.3244    6.0488 O   0  0  0  0  0  0  0  0  0  0  0  0
    0.5001    6.7642    7.1366 C   0  0  0  0  0  0  0  0  0  0  0  0
    0.5902    6.2982    8.4318 C   0  0  0  0  0  0  0  0  0  0  0  0
    1.4319    6.9558    9.3178 C   0  0  0  0  0  0  0  0  0  0  0  0
    2.1514    8.0635    8.8917 C   0  0  0  0  0  0  0  0  0  0  0  0
    3.1900    8.8706   10.0083 Cl  0  0  0  0  0  0  0  0  0  0  0  0
    2.0635    8.5491    7.5896 C   0  0  0  0  0  0  0  0  0  0  0  0
    1.2292    7.8862    6.7092 C   0  0  0  0  0  0  0  0  0  0  0  0
    0.9365    8.1185    5.2936 C   0  0  0  0  0  0  0  0  0  0  0  0
    1.5767    9.0206    4.4775 C   0  0  0  0  0  0  0  0  0  0  0  0
    2.5725    9.9131    4.9125 C   0  0  0  0  0  0  0  0  0  0  0  0
    3.3996   10.6559    5.2040 N   0  0  0  0  0  0  0  0  0  0  0  0
    1.3682    9.1110    3.0874 C   0  0  0  0  0  0  0  0  0  0  0  0
    1.2778    9.2167    1.9469 N   0  0  0  0  0  0  0  0  0  0  0  0
    7.9483    0.0416   -0.8189 H   0  0  0  0  0  0  0  0  0  0  0  0
    4.2039    3.2032    3.1749 H   0  0  0  0  0  0  0  0  0  0  0  0
    5.3363    4.0909    5.1541 H   0  0  0  0  0  0  0  0  0  0  0  0
    2.3635   -0.2231   -0.5456 H   0  0  0  0  0  0  0  0  0  0  0  0
   -0.0267   -0.3804   -0.0560 H   0  0  0  0  0  0  0  0  0  0  0  0
   -1.8519   -1.5439    1.1460 H   0  0  0  0  0  0  0  0  0  0  0  0
   -1.4958   -2.4988    2.5940 H   0  0  0  0  0  0  0  0  0  0  0  0
   -1.4722   -0.7305    2.6616 H   0  0  0  0  0  0  0  0  0  0  0  0
    0.8183   -2.8005    3.3499 H   0  0  0  0  0  0  0  0  0  0  0  0
    3.2225   -2.6128    2.8895 H   0  0  0  0  0  0  0  0  0  0  0  0
    6.8620   -2.0013    1.4266 H   0  0  0  0  0  0  0  0  0  0  0  0
    8.1961   -1.4869    3.4061 H   0  0  0  0  0  0  0  0  0  0  0  0
    7.6007   -0.9827    6.2033 H   0  0  0  0  0  0  0  0  0  0  0  0
    8.4771    0.2574    5.3185 H   0  0  0  0  0  0  0  0  0  0  0  0
    7.0141    0.6817    6.2216 H   0  0  0  0  0  0  0  0  0  0  0  0
    4.9060    0.6462    5.0865 H   0  0  0  0  0  0  0  0  0  0  0  0
    3.5924    0.2103    3.0728 H   0  0  0  0  0  0  0  0  0  0  0  0
    4.1684   -4.2780   -6.9603 H   0  0  0  0  0  0  0  0  0  0  0  0
    3.5585   -6.4468   -7.9421 H   0  0  0  0  0  0  0  0  0  0  0  0
    3.8563   -8.9741   -7.7657 H   0  0  0  0  0  0  0  0  0  0  0  0
    2.4071   -8.9262   -6.7663 H   0  0  0  0  0  0  0  0  0  0  0  0
    3.8664   -9.7066   -6.1543 H   0  0  0  0  0  0  0  0  0  0  0  0
    4.4278   -8.3723   -4.2371 H   0  0  0  0  0  0  0  0  0  0  0  0
    5.0606   -6.2138   -3.2598 H   0  0  0  0  0  0  0  0  0  0  0  0
    4.3268   -1.2462   -4.6599 H   0  0  0  0  0  0  0  0  0  0  0  0
    5.5732    0.4158   -5.9511 H   0  0  0  0  0  0  0  0  0  0  0  0
    7.1787    0.9283   -7.6771 H   0  0  0  0  0  0  0  0  0  0  0  0
    8.0928   -0.3705   -8.4598 H   0  0  0  0  0  0  0  0  0  0  0  0
    8.6692    0.3292   -6.9507 H   0  0  0  0  0  0  0  0  0  0  0  0
    8.2430   -2.6222   -7.3094 H   0  0  0  0  0  0  0  0  0  0  0  0
    7.0152   -4.2924   -5.9879 H   0  0  0  0  0  0  0  0  0  0  0  0
    2.2701   -6.4020   -1.3750 H   0  0  0  0  0  0  0  0  0  0  0  0
   -3.5661   -7.5119   -1.4513 H   0  0  0  0  0  0  0  0  0  0  0  0
   -2.9700   -4.0736   -0.9820 H   0  0  0  0  0  0  0  0  0  0  0  0
   -0.9473   -4.2031    0.4109 H   0  0  0  0  0  0  0  0  0  0  0  0
   -0.9301   -5.6239    2.4297 H   0  0  0  0  0  0  0  0  0  0  0  0
   -2.9463   -6.9144    3.0360 H   0  0  0  0  0  0  0  0  0  0  0  0
   -4.9550   -6.8050    1.6332 H   0  0  0  0  0  0  0  0  0  0  0  0
   -5.8468   -8.0155   -0.9149 H   0  0  0  0  0  0  0  0  0  0  0  0
   -7.8025   -9.2286   -0.0727 H   0  0  0  0  0  0  0  0  0  0  0  0
   -9.5969   -8.0203    1.1183 H   0  0  0  0  0  0  0  0  0  0  0  0
   -9.4144   -5.5801    1.4467 H   0  0  0  0  0  0  0  0  0  0  0  0
   -7.4653   -4.3644    0.5949 H   0  0  0  0  0  0  0  0  0  0  0  0
   -4.5660   -4.1684   -5.0382 H   0  0  0  0  0  0  0  0  0  0  0  0
    0.0073   -5.8708   -6.9254 H   0  0  0  0  0  0  0  0  0  0  0  0
    0.0551   -6.9679   -9.1261 H   0  0  0  0  0  0  0  0  0  0  0  0
   -2.0125   -7.9278  -10.0756 H   0  0  0  0  0  0  0  0  0  0  0  0
   -4.1244   -7.7818   -8.8085 H   0  0  0  0  0  0  0  0  0  0  0  0
   -4.1701   -6.6939   -6.6030 H   0  0  0  0  0  0  0  0  0  0  0  0
   -2.1273   -3.8436   -7.4225 H   0  0  0  0  0  0  0  0  0  0  0  0
   -1.8201   -1.4102   -7.4087 H   0  0  0  0  0  0  0  0  0  0  0  0
   -1.3655   -0.2238   -5.2926 H   0  0  0  0  0  0  0  0  0  0  0  0
   -1.2194   -1.5000   -3.1826 H   0  0  0  0  0  0  0  0  0  0  0  0
   -1.5300   -3.9356   -3.1949 H   0  0  0  0  0  0  0  0  0  0  0  0
   -5.2686   -3.9905    1.8797 H   0  0  0  0  0  0  0  0  0  0  0  0
   -4.3111   -2.6783    2.5890 H   0  0  0  0  0  0  0  0  0  0  0  0
   -6.3539   -3.0888    3.9391 H   0  0  0  0  0  0  0  0  0  0  0  0
   -7.3746   -2.8088    2.5265 H   0  0  0  0  0  0  0  0  0  0  0  0
   -6.4285   -1.4825    3.2035 H   0  0  0  0  0  0  0  0  0  0  0  0
   -4.2543    0.0554    2.5351 H   0  0  0  0  0  0  0  0  0  0  0  0
   -2.5644    3.5963   -1.2029 H   0  0  0  0  0  0  0  0  0  0  0  0
   -2.5066    2.9633   -3.5698 H   0  0  0  0  0  0  0  0  0  0  0  0
   -3.5787    3.2262   -5.8186 H   0  0  0  0  0  0  0  0  0  0  0  0
   -5.3297    3.4619   -5.9305 H   0  0  0  0  0  0  0  0  0  0  0  0
   -4.6750    1.9008   -5.4354 H   0  0  0  0  0  0  0  0  0  0  0  0
   -6.6384    3.9509   -3.9425 H   0  0  0  0  0  0  0  0  0  0  0  0
   -6.7104    4.5674   -1.5687 H   0  0  0  0  0  0  0  0  0  0  0  0
   -5.7404    4.6802    2.5404 H   0  0  0  0  0  0  0  0  0  0  0  0
   -6.9381    6.6292    3.4223 H   0  0  0  0  0  0  0  0  0  0  0  0
   -8.1267    8.6990    3.0033 H   0  0  0  0  0  0  0  0  0  0  0  0
   -6.7758    9.7131    2.4975 H   0  0  0  0  0  0  0  0  0  0  0  0
   -8.1158    9.4299    1.3906 H   0  0  0  0  0  0  0  0  0  0  0  0
   -6.4382    8.6285   -0.3111 H   0  0  0  0  0  0  0  0  0  0  0  0
   -5.2106    6.6973   -1.1892 H   0  0  0  0  0  0  0  0  0  0  0  0
    1.6792    2.0545    3.6123 H   0  0  0  0  0  0  0  0  0  0  0  0
    1.5123   -0.2439    4.4925 H   0  0  0  0  0  0  0  0  0  0  0  0
   -0.8640   -1.3241    6.9966 H   0  0  0  0  0  0  0  0  0  0  0  0
   -1.2002   -1.8855    5.3629 H   0  0  0  0  0  0  0  0  0  0  0  0
    0.4659   -1.8319    5.9456 H   0  0  0  0  0  0  0  0  0  0  0  0
   -2.2190    0.7304    6.3154 H   0  0  0  0  0  0  0  0  0  0  0  0
   -2.0229    3.0444    5.4774 H   0  0  0  0  0  0  0  0  0  0  0  0
    1.2679    5.4612    2.1779 H   0  0  0  0  0  0  0  0  0  0  0  0
    3.3449    6.6945    2.5670 H   0  0  0  0  0  0  0  0  0  0  0  0
    4.5587    7.9470    4.7804 H   0  0  0  0  0  0  0  0  0  0  0  0
    5.5437    6.6682    4.0883 H   0  0  0  0  0  0  0  0  0  0  0  0
    5.2083    6.6869    5.8281 H   0  0  0  0  0  0  0  0  0  0  0  0
    3.4904    5.2119    6.5665 H   0  0  0  0  0  0  0  0  0  0  0  0
    1.4277    3.9433    6.1692 H   0  0  0  0  0  0  0  0  0  0  0  0
   -0.7845    7.9964    3.1001 H   0  0  0  0  0  0  0  0  0  0  0  0
    0.0198    5.4357    8.7407 H   0  0  0  0  0  0  0  0  0  0  0  0
    1.5329    6.6144   10.3360 H   0  0  0  0  0  0  0  0  0  0  0  0
    2.6322    9.4173    7.2998 H   0  0  0  0  0  0  0  0  0  0  0  0
  1  2  2  0  0  0  0
  2  3  1  0  0  0  0
  3  4  2  0  0  0  0
  3  5  1  0  0  0  0
  5  6  2  0  0  0  0
  6  7  1  0  0  0  0
  7  8  2  0  0  0  0
  8  9  1  0  0  0  0
  9 10  1  0  0  0  0
  9 11  2  0  0  0  0
 11 12  1  0  0  0  0
  6 13  1  0  0  0  0
 13 14  2  0  0  0  0
 14 15  1  0  0  0  0
 15 16  3  0  0  0  0
 14 17  1  0  0  0  0
 17 18  3  0  0  0  0
  1 19  1  0  0  0  0
 19 20  2  0  0  0  0
 20 21  1  0  0  0  0
 21 22  1  0  0  0  0
 22 23  2  0  0  0  0
 23 24  1  0  0  0  0
 24 25  2  0  0  0  0
 25 26  1  0  0  0  0
 25 27  1  0  0  0  0
 27 28  2  0  0  0  0
 21 29  1  0  0  0  0
 29 30  2  0  0  0  0
 30 31  1  0  0  0  0
 31 32  2  0  0  0  0
 32 33  1  0  0  0  0
 32 34  1  0  0  0  0
 34 35  2  0  0  0  0
 20 36  1  0  0  0  0
 36 37  1  0  0  0  0
 37 38  1  0  0  0  0
 38 39  2  0  0  0  0
 39 40  1  0  0  0  0
 40 41  1  0  0  0  0
 41 42  2  0  0  0  0
 42 43  1  0  0  0  0
 43 44  2  0  0  0  0
 44 45  1  0  0  0  0
 44 46  1  0  0  0  0
 46 47  2  0  0  0  0
 40 48  1  0  0  0  0
 48 49  2  0  0  0  0
 49 50  1  0  0  0  0
 50 51  2  0  0  0  0
 51 52  1  0  0  0  0
 51 53  1  0  0  0  0
 53 54  2  0  0  0  0
 39 55  1  0  0  0  0
 55 56  1  0  0  0  0
 38 57  1  0  0  0  0
 57 58  2  0  0  0  0
 58 59  1  0  0  0  0
 59 60  1  0  0  0  0
 60 61  1  0  0  0  0
 61 62  1  0  0  0  0
 62 63  2  0  0  0  0
 63 64  1  0  0  0  0
 64 65  1  0  0  0  0
 65 66  1  0  0  0  0
 66 67  2  0  0  0  0
 67 68  1  0  0  0  0
 68 69  2  0  0  0  0
 69 70  1  0  0  0  0
 70 71  2  0  0  0  0
 65 72  1  0  0  0  0
 72 73  2  0  0  0  0
 73 74  1  0  0  0  0
 74 75  2  0  0  0  0
 75 76  1  0  0  0  0
 76 77  2  0  0  0  0
 65 78  1  0  0  0  0
 78 79  2  0  0  0  0
 79 80  1  0  0  0  0
 80 81  1  0  0  0  0
 81 82  2  0  0  0  0
 82 83  1  0  0  0  0
 83 84  1  0  0  0  0
 84 85  2  0  0  0  0
 85 86  1  0  0  0  0
 86 87  2  0  0  0  0
 87 88  1  0  0  0  0
 88 89  2  0  0  0  0
 83 90  1  0  0  0  0
 90 91  2  0  0  0  0
 91 92  1  0  0  0  0
 92 93  2  0  0  0  0
 93 94  1  0  0  0  0
 94 95  2  0  0  0  0
 83 96  1  0  0  0  0
 96 97  1  0  0  0  0
 97 98  1  0  0  0  0
 79 99  1  0  0  0  0
 99100  1  0  0  0  0
100101  1  0  0  0  0
101102  2  0  0  0  0
102103  1  0  0  0  0
103104  1  0  0  0  0
104105  1  0  0  0  0
103106  1  0  0  0  0
102107  1  0  0  0  0
107108  2  0  0  0  0
108109  1  0  0  0  0
108110  1  0  0  0  0
110111  2  0  0  0  0
111112  1  0  0  0  0
112113  1  0  0  0  0
113114  2  0  0  0  0
114115  1  0  0  0  0
115116  2  0  0  0  0
116117  1  0  0  0  0
116118  1  0  0  0  0
118119  2  0  0  0  0
112120  1  0  0  0  0
120121  2  0  0  0  0
121122  1  0  0  0  0
122123  2  0  0  0  0
123124  1  0  0  0  0
123125  1  0  0  0  0
125126  2  0  0  0  0
111127  1  0  0  0  0
127128  1  0  0  0  0
128129  1  0  0  0  0
129130  2  0  0  0  0
130131  1  0  0  0  0
131132  1  0  0  0  0
132133  2  0  0  0  0
133134  1  0  0  0  0
134135  2  0  0  0  0
135136  1  0  0  0  0
135137  1  0  0  0  0
137138  2  0  0  0  0
131139  1  0  0  0  0
139140  2  0  0  0  0
140141  1  0  0  0  0
141142  2  0  0  0  0
142143  1  0  0  0  0
142144  1  0  0  0  0
144145  2  0  0  0  0
130146  1  0  0  0  0
146147  1  0  0  0  0
129148  1  0  0  0  0
148149  2  0  0  0  0
149150  1  0  0  0  0
150151  2  0  0  0  0
150152  1  0  0  0  0
152153  2  0  0  0  0
153154  1  0  0  0  0
154155  2  0  0  0  0
155156  1  0  0  0  0
155157  1  0  0  0  0
157158  2  0  0  0  0
158159  1  0  0  0  0
159160  2  0  0  0  0
160161  1  0  0  0  0
161162  3  0  0  0  0
160163  1  0  0  0  0
163164  3  0  0  0  0
 13  2  1  0  0  0  0
 56 19  1  0  0  0  0
 98 57  1  0  0  0  0
106100  2  0  0  0  0
147110  1  0  0  0  0
159149  1  0  0  0  0
 11  5  1  0  0  0  0
 28 22  1  0  0  0  0
 35 29  1  0  0  0  0
 55 36  2  0  0  0  0
 97 59  2  0  0  0  0
109101  1  0  0  0  0
119113  1  0  0  0  0
126120  1  0  0  0  0
146127  2  0  0  0  0
158152  1  0  0  0  0
 47 41  1  0  0  0  0
 54 48  1  0  0  0  0
 96 61  2  0  0  0  0
138132  1  0  0  0  0
145139  1  0  0  0  0
 82 62  1  0  0  0  0
 89 84  1  0  0  0  0
 95 90  1  0  0  0  0
 80 64  2  0  0  0  0
 71 66  1  0  0  0  0
 77 72  1  0  0  0  0
106 78  1  0  0  0  0
  1165  1  0  0  0  0
  7166  1  0  0  0  0
  8167  1  0  0  0  0
 23168  1  0  0  0  0
 24169  1  0  0  0  0
 26170  1  0  0  0  0
 26171  1  0  0  0  0
 26172  1  0  0  0  0
 27173  1  0  0  0  0
 28174  1  0  0  0  0
 30175  1  0  0  0  0
 31176  1  0  0  0  0
 33177  1  0  0  0  0
 33178  1  0  0  0  0
 33179  1  0  0  0  0
 34180  1  0  0  0  0
 35181  1  0  0  0  0
 42182  1  0  0  0  0
 43183  1  0  0  0  0
 45184  1  0  0  0  0
 45185  1  0  0  0  0
 45186  1  0  0  0  0
 46187  1  0  0  0  0
 47188  1  0  0  0  0
 49189  1  0  0  0  0
 50190  1  0  0  0  0
 52191  1  0  0  0  0
 52192  1  0  0  0  0
 52193  1  0  0  0  0
 53194  1  0  0  0  0
 54195  1  0  0  0  0
 58196  1  0  0  0  0
 63197  1  0  0  0  0
 67198  1  0  0  0  0
 68199  1  0  0  0  0
 69200  1  0  0  0  0
 70201  1  0  0  0  0
 71202  1  0  0  0  0
 73203  1  0  0  0  0
 74204  1  0  0  0  0
 75205  1  0  0  0  0
 76206  1  0  0  0  0
 77207  1  0  0  0  0
 81208  1  0  0  0  0
 85209  1  0  0  0  0
 86210  1  0  0  0  0
 87211  1  0  0  0  0
 88212  1  0  0  0  0
 89213  1  0  0  0  0
 91214  1  0  0  0  0
 92215  1  0  0  0  0
 93216  1  0  0  0  0
 94217  1  0  0  0  0
 95218  1  0  0  0  0
104219  1  0  0  0  0
104220  1  0  0  0  0
105221  1  0  0  0  0
105222  1  0  0  0  0
105223  1  0  0  0  0
107224  1  0  0  0  0
114225  1  0  0  0  0
115226  1  0  0  0  0
117227  1  0  0  0  0
117228  1  0  0  0  0
117229  1  0  0  0  0
118230  1  0  0  0  0
119231  1  0  0  0  0
121232  1  0  0  0  0
122233  1  0  0  0  0
124234  1  0  0  0  0
124235  1  0  0  0  0
124236  1  0  0  0  0
125237  1  0  0  0  0
126238  1  0  0  0  0
133239  1  0  0  0  0
134240  1  0  0  0  0
136241  1  0  0  0  0
136242  1  0  0  0  0
136243  1  0  0  0  0
137244  1  0  0  0  0
138245  1  0  0  0  0
140246  1  0  0  0  0
141247  1  0  0  0  0
143248  1  0  0  0  0
143249  1  0  0  0  0
143250  1  0  0  0  0
144251  1  0  0  0  0
145252  1  0  0  0  0
148253  1  0  0  0  0
153254  1  0  0  0  0
154255  1  0  0  0  0
157256  1  0  0  0  0
M  END
