
  xtb     02052218523D
 energy: -443.626165796402 gnorm: 0.000587026541 xtb: 6.4.1 (unknown)
264290  0     0  0            999 V2000
    2.4838  -11.8538   -6.1985 C   0  0  0  0  0  0  0  0  0  0  0  0
    2.2405  -11.6922   -7.5517 C   0  0  0  0  0  0  0  0  0  0  0  0
    1.4106  -10.6582   -8.1600 C   0  0  0  0  0  0  0  0  0  0  0  0
    0.8590   -9.7166   -7.6186 O   0  0  0  0  0  0  0  0  0  0  0  0
    1.3403  -10.9920   -9.6015 C   0  0  0  0  0  0  0  0  0  0  0  0
    2.0832  -12.1615   -9.8424 C   0  0  0  0  0  0  0  0  0  0  0  0
    2.1562  -12.6811  -11.1238 C   0  0  0  0  0  0  0  0  0  0  0  0
    1.4865  -12.0239  -12.1471 C   0  0  0  0  0  0  0  0  0  0  0  0
    0.7617  -10.8684  -11.9046 C   0  0  0  0  0  0  0  0  0  0  0  0
   -0.1207  -10.0138  -13.3426 Br  0  0  0  0  0  0  0  0  0  0  0  0
    0.6755  -10.3280  -10.6170 C   0  0  0  0  0  0  0  0  0  0  0  0
   -0.2177   -8.8993  -10.3095 Cl  0  0  0  0  0  0  0  0  0  0  0  0
    2.6840  -12.5957   -8.5792 C   0  0  0  0  0  0  0  0  0  0  0  0
    3.5462  -13.6605   -8.4458 C   0  0  0  0  0  0  0  0  0  0  0  0
    4.2587  -13.9924   -7.2789 C   0  0  0  0  0  0  0  0  0  0  0  0
    4.9090  -14.3118   -6.3853 N   0  0  0  0  0  0  0  0  0  0  0  0
    3.8673  -14.5532   -9.4862 C   0  0  0  0  0  0  0  0  0  0  0  0
    4.1574  -15.3284  -10.2831 N   0  0  0  0  0  0  0  0  0  0  0  0
    2.1352  -11.0574   -5.1182 C   0  0  0  0  0  0  0  0  0  0  0  0
    2.4741  -11.3741   -3.7698 C   0  0  0  0  0  0  0  0  0  0  0  0
    2.9397  -12.5788   -3.3326 N   0  0  0  0  0  0  0  0  0  0  0  0
    2.5502  -13.8051   -3.9068 C   0  0  0  0  0  0  0  0  0  0  0  0
    1.2505  -13.9975   -4.3684 C   0  0  0  0  0  0  0  0  0  0  0  0
    0.8938  -15.2016   -4.9417 C   0  0  0  0  0  0  0  0  0  0  0  0
    1.8072  -16.2441   -5.0512 C   0  0  0  0  0  0  0  0  0  0  0  0
    1.4338  -17.5419   -5.6974 C   0  0  0  0  0  0  0  0  0  0  0  0
    3.0901  -16.0538   -4.5510 C   0  0  0  0  0  0  0  0  0  0  0  0
    3.4663  -14.8507   -3.9884 C   0  0  0  0  0  0  0  0  0  0  0  0
    3.7530  -12.6194   -2.1802 C   0  0  0  0  0  0  0  0  0  0  0  0
    3.4920  -13.5345   -1.1663 C   0  0  0  0  0  0  0  0  0  0  0  0
    4.2971  -13.5688   -0.0451 C   0  0  0  0  0  0  0  0  0  0  0  0
    5.3731  -12.7001    0.0924 C   0  0  0  0  0  0  0  0  0  0  0  0
    6.2297  -12.7207    1.3198 C   0  0  0  0  0  0  0  0  0  0  0  0
    5.6295  -11.7950   -0.9317 C   0  0  0  0  0  0  0  0  0  0  0  0
    4.8342  -11.7514   -2.0586 C   0  0  0  0  0  0  0  0  0  0  0  0
    2.2541  -10.2688   -2.9319 C   0  0  0  0  0  0  0  0  0  0  0  0
    2.4568   -9.9745   -1.2320 S   0  0  0  0  0  0  0  0  0  0  0  0
    1.7816   -8.3610   -1.4120 C   0  0  0  0  0  0  0  0  0  0  0  0
    1.3694   -8.0975   -2.7143 C   0  0  0  0  0  0  0  0  0  0  0  0
    0.7074   -6.9669   -3.1595 N   0  0  0  0  0  0  0  0  0  0  0  0
   -0.1905   -6.2525   -2.3607 C   0  0  0  0  0  0  0  0  0  0  0  0
   -0.9583   -6.8881   -1.3864 C   0  0  0  0  0  0  0  0  0  0  0  0
   -1.7319   -6.1483   -0.5157 C   0  0  0  0  0  0  0  0  0  0  0  0
   -1.7886   -4.7618   -0.6023 C   0  0  0  0  0  0  0  0  0  0  0  0
   -2.5883   -3.9709    0.3872 C   0  0  0  0  0  0  0  0  0  0  0  0
   -1.0921   -4.1426   -1.6324 C   0  0  0  0  0  0  0  0  0  0  0  0
   -0.2989   -4.8693   -2.4991 C   0  0  0  0  0  0  0  0  0  0  0  0
    0.9069   -6.5790   -4.5007 C   0  0  0  0  0  0  0  0  0  0  0  0
    2.1928   -6.5230   -5.0283 C   0  0  0  0  0  0  0  0  0  0  0  0
    2.3811   -6.2081   -6.3597 C   0  0  0  0  0  0  0  0  0  0  0  0
    1.3017   -5.9341   -7.1894 C   0  0  0  0  0  0  0  0  0  0  0  0
    1.5045   -5.6531   -8.6456 C   0  0  0  0  0  0  0  0  0  0  0  0
    0.0235   -5.9599   -6.6433 C   0  0  0  0  0  0  0  0  0  0  0  0
   -0.1789   -6.2783   -5.3162 C   0  0  0  0  0  0  0  0  0  0  0  0
    1.6741   -9.1814   -3.5729 C   0  0  0  0  0  0  0  0  0  0  0  0
    1.3966   -9.4570   -5.2527 S   0  0  0  0  0  0  0  0  0  0  0  0
    1.6812   -7.4521   -0.3104 C   0  0  0  0  0  0  0  0  0  0  0  0
    1.1446   -7.6288    0.9456 C   0  0  0  0  0  0  0  0  0  0  0  0
    0.7358   -8.9342    1.5514 C   0  0  0  0  0  0  0  0  0  0  0  0
   -0.7794   -9.0669    1.7000 C   0  0  0  0  0  0  0  0  0  0  0  0
    0.9743   -6.3905    1.5977 C   0  0  0  0  0  0  0  0  0  0  0  0
    0.1494   -5.9372    3.0717 S   0  0  0  0  0  0  0  0  0  0  0  0
    0.3817   -4.2709    2.6702 C   0  0  0  0  0  0  0  0  0  0  0  0
   -0.0501   -3.0042    3.1012 C   0  0  0  0  0  0  0  0  0  0  0  0
   -0.9834   -2.6595    4.1081 C   0  0  0  0  0  0  0  0  0  0  0  0
   -1.5657   -3.5982    4.8505 N   0  0  0  0  0  0  0  0  0  0  0  0
   -2.4659   -3.2323    5.7499 C   0  0  0  0  0  0  0  0  0  0  0  0
   -3.1827   -4.3287    6.3649 C   0  0  0  0  0  0  0  0  0  0  0  0
   -4.8554   -4.2229    6.8281 S   0  0  0  0  0  0  0  0  0  0  0  0
   -4.9053   -5.8928    7.2763 C   0  0  0  0  0  0  0  0  0  0  0  0
   -6.1448   -6.5353    7.7954 C   0  0  0  0  0  0  0  0  0  0  0  0
   -7.2494   -6.5588    6.7381 C   0  0  0  0  0  0  0  0  0  0  0  0
   -3.6853   -6.4619    7.0508 C   0  0  0  0  0  0  0  0  0  0  0  0
   -2.7067   -5.6006    6.5248 C   0  0  0  0  0  0  0  0  0  0  0  0
   -3.4370   -7.7583    7.3166 F   0  0  0  0  0  0  0  0  0  0  0  0
   -2.7077   -1.8510    6.0019 C   0  0  0  0  0  0  0  0  0  0  0  0
   -3.4222   -1.3326    7.1488 C   0  0  0  0  0  0  0  0  0  0  0  0
   -4.0964   -0.1443    7.2004 C   0  0  0  0  0  0  0  0  0  0  0  0
   -4.5931    0.1179    8.4893 C   0  0  0  0  0  0  0  0  0  0  0  0
   -5.3133    1.2193    8.7739 F   0  0  0  0  0  0  0  0  0  0  0  0
   -4.2984   -0.8232    9.4329 C   0  0  0  0  0  0  0  0  0  0  0  0
   -4.6535   -0.8272   10.8794 C   0  0  0  0  0  0  0  0  0  0  0  0
   -3.4119   -0.7025   11.7634 C   0  0  0  0  0  0  0  0  0  0  0  0
   -3.3709   -2.0927    8.7119 S   0  0  0  0  0  0  0  0  0  0  0  0
   -2.2228   -0.9280    5.1855 N   0  0  0  0  0  0  0  0  0  0  0  0
   -1.4040   -1.3053    4.2063 C   0  0  0  0  0  0  0  0  0  0  0  0
   -0.8545   -0.3653    3.3001 C   0  0  0  0  0  0  0  0  0  0  0  0
   -1.1010    1.0130    3.1471 C   0  0  0  0  0  0  0  0  0  0  0  0
   -2.1637    2.2347    3.7605 S   0  0  0  0  0  0  0  0  0  0  0  0
   -1.4125    3.3952    2.6936 C   0  0  0  0  0  0  0  0  0  0  0  0
   -1.6472    4.7639    2.4623 C   0  0  0  0  0  0  0  0  0  0  0  0
   -2.8235    5.4911    3.0301 C   0  0  0  0  0  0  0  0  0  0  0  0
   -4.0444    5.2833    2.1305 C   0  0  0  0  0  0  0  0  0  0  0  0
   -0.7629    5.2680    1.5379 C   0  0  0  0  0  0  0  0  0  0  0  0
    0.3314    4.0416    0.9037 S   0  0  0  0  0  0  0  0  0  0  0  0
   -0.3803    2.8521    1.9302 C   0  0  0  0  0  0  0  0  0  0  0  0
   -0.2151    1.4837    2.1785 C   0  0  0  0  0  0  0  0  0  0  0  0
    0.5653    0.4556    1.7082 N   0  0  0  0  0  0  0  0  0  0  0  0
    1.8710    0.7731    1.1714 C   0  0  0  0  0  0  0  0  0  0  0  0
    2.7592    1.4072    2.2413 C   0  0  0  0  0  0  0  0  0  0  0  0
    0.1619   -0.6967    2.3638 C   0  0  0  0  0  0  0  0  0  0  0  0
    0.4805   -2.0608    2.1785 C   0  0  0  0  0  0  0  0  0  0  0  0
    1.1742   -2.7422    1.1993 N   0  0  0  0  0  0  0  0  0  0  0  0
    1.1035   -4.0780    1.4917 C   0  0  0  0  0  0  0  0  0  0  0  0
    1.4275   -5.2898    0.8715 C   0  0  0  0  0  0  0  0  0  0  0  0
    2.1393   -5.7772   -0.6197 S   0  0  0  0  0  0  0  0  0  0  0  0
    1.6247   -2.3159   -0.1051 C   0  0  0  0  0  0  0  0  0  0  0  0
    3.1490   -2.3410   -0.2157 C   0  0  0  0  0  0  0  0  0  0  0  0
   -0.5943    6.6249    1.1107 C   0  0  0  0  0  0  0  0  0  0  0  0
   -0.4617    7.7512    1.9109 C   0  0  0  0  0  0  0  0  0  0  0  0
   -0.4116    7.7373    3.2918 N   0  0  0  0  0  0  0  0  0  0  0  0
    0.1373    6.6334    3.9643 C   0  0  0  0  0  0  0  0  0  0  0  0
    1.2796    6.0032    3.4796 C   0  0  0  0  0  0  0  0  0  0  0  0
    1.7449    4.8498    4.0797 C   0  0  0  0  0  0  0  0  0  0  0  0
    1.0906    4.2936    5.1711 C   0  0  0  0  0  0  0  0  0  0  0  0
    1.5337    2.9908    5.7627 C   0  0  0  0  0  0  0  0  0  0  0  0
   -0.0092    4.9676    5.6903 C   0  0  0  0  0  0  0  0  0  0  0  0
   -0.4788    6.1256    5.1053 C   0  0  0  0  0  0  0  0  0  0  0  0
   -0.8845    8.8448    4.0133 C   0  0  0  0  0  0  0  0  0  0  0  0
   -0.2107    9.2819    5.1490 C   0  0  0  0  0  0  0  0  0  0  0  0
   -0.6585   10.3935    5.8343 C   0  0  0  0  0  0  0  0  0  0  0  0
   -1.7772   11.0978    5.4086 C   0  0  0  0  0  0  0  0  0  0  0  0
   -2.2362   12.3328    6.1206 C   0  0  0  0  0  0  0  0  0  0  0  0
   -2.4568   10.6413    4.2860 C   0  0  0  0  0  0  0  0  0  0  0  0
   -2.0256    9.5263    3.5970 C   0  0  0  0  0  0  0  0  0  0  0  0
   -0.3198    8.9210    1.1243 C   0  0  0  0  0  0  0  0  0  0  0  0
   -0.0891   10.5893    1.5095 S   0  0  0  0  0  0  0  0  0  0  0  0
    0.0017   10.9803   -0.2123 C   0  0  0  0  0  0  0  0  0  0  0  0
   -0.0523    9.8151   -1.0256 C   0  0  0  0  0  0  0  0  0  0  0  0
    0.1008    9.7827   -2.3838 N   0  0  0  0  0  0  0  0  0  0  0  0
   -0.5696    8.7803   -3.1139 C   0  0  0  0  0  0  0  0  0  0  0  0
    0.0968    8.0472   -4.0898 C   0  0  0  0  0  0  0  0  0  0  0  0
   -0.5756    7.0710   -4.7983 C   0  0  0  0  0  0  0  0  0  0  0  0
   -1.9165    6.8011   -4.5538 C   0  0  0  0  0  0  0  0  0  0  0  0
   -2.6396    5.7269   -5.3054 C   0  0  0  0  0  0  0  0  0  0  0  0
   -2.5744    7.5438   -3.5794 C   0  0  0  0  0  0  0  0  0  0  0  0
   -1.9158    8.5246   -2.8669 C   0  0  0  0  0  0  0  0  0  0  0  0
    0.9922   10.6283   -3.0704 C   0  0  0  0  0  0  0  0  0  0  0  0
    2.2022   11.0074   -2.4940 C   0  0  0  0  0  0  0  0  0  0  0  0
    3.0587   11.8475   -3.1765 C   0  0  0  0  0  0  0  0  0  0  0  0
    2.7466   12.3130   -4.4488 C   0  0  0  0  0  0  0  0  0  0  0  0
    3.6601   13.2466   -5.1808 C   0  0  0  0  0  0  0  0  0  0  0  0
    1.5526   11.9003   -5.0283 C   0  0  0  0  0  0  0  0  0  0  0  0
    0.6784   11.0729   -4.3525 C   0  0  0  0  0  0  0  0  0  0  0  0
   -0.2823    8.6727   -0.2427 C   0  0  0  0  0  0  0  0  0  0  0  0
   -0.4354    6.9824   -0.6014 S   0  0  0  0  0  0  0  0  0  0  0  0
   -0.0110   12.2666   -0.7377 C   0  0  0  0  0  0  0  0  0  0  0  0
    0.0412   13.4949   -0.1094 C   0  0  0  0  0  0  0  0  0  0  0  0
    0.2551   13.7249    1.3181 C   0  0  0  0  0  0  0  0  0  0  0  0
    0.3283   12.8950    2.2100 O   0  0  0  0  0  0  0  0  0  0  0  0
    0.3923   15.1846    1.4808 C   0  0  0  0  0  0  0  0  0  0  0  0
    0.6120   15.9034    2.6185 C   0  0  0  0  0  0  0  0  0  0  0  0
    0.7152   17.3108    2.5341 C   0  0  0  0  0  0  0  0  0  0  0  0
    0.9412   18.1045    3.6763 C   0  0  0  0  0  0  0  0  0  0  0  0
    1.0418   19.4651    3.5810 C   0  0  0  0  0  0  0  0  0  0  0  0
    0.9162   20.0662    2.3222 C   0  0  0  0  0  0  0  0  0  0  0  0
    1.0189   21.4075    2.2470 F   0  0  0  0  0  0  0  0  0  0  0  0
    0.6952   19.3433    1.1831 C   0  0  0  0  0  0  0  0  0  0  0  0
    0.5884   17.9415    1.2632 C   0  0  0  0  0  0  0  0  0  0  0  0
    0.3561   17.1674    0.1012 C   0  0  0  0  0  0  0  0  0  0  0  0
    0.2588   15.8068    0.2078 C   0  0  0  0  0  0  0  0  0  0  0  0
    0.0065   14.7661   -0.7878 C   0  0  0  0  0  0  0  0  0  0  0  0
   -0.2466   14.9959   -2.1208 C   0  0  0  0  0  0  0  0  0  0  0  0
   -0.6405   14.0258   -3.0601 C   0  0  0  0  0  0  0  0  0  0  0  0
   -1.0050   13.3080   -3.8822 N   0  0  0  0  0  0  0  0  0  0  0  0
   -0.1812   16.2642   -2.7289 C   0  0  0  0  0  0  0  0  0  0  0  0
   -0.1257   17.2631   -3.2943 N   0  0  0  0  0  0  0  0  0  0  0  0
    3.0426  -12.7418   -5.9336 H   0  0  0  0  0  0  0  0  0  0  0  0
    2.7130  -13.5762  -11.3444 H   0  0  0  0  0  0  0  0  0  0  0  0
    1.5292  -12.4141  -13.1523 H   0  0  0  0  0  0  0  0  0  0  0  0
    0.5273  -13.1995   -4.2849 H   0  0  0  0  0  0  0  0  0  0  0  0
   -0.1154  -15.3345   -5.3041 H   0  0  0  0  0  0  0  0  0  0  0  0
    0.3765  -17.5651   -5.9487 H   0  0  0  0  0  0  0  0  0  0  0  0
    1.6557  -18.3768   -5.0347 H   0  0  0  0  0  0  0  0  0  0  0  0
    2.0106  -17.6832   -6.6113 H   0  0  0  0  0  0  0  0  0  0  0  0
    3.8131  -16.8520   -4.6223 H   0  0  0  0  0  0  0  0  0  0  0  0
    4.4720  -14.7098   -3.6255 H   0  0  0  0  0  0  0  0  0  0  0  0
    2.6558  -14.2113   -1.2615 H   0  0  0  0  0  0  0  0  0  0  0  0
    4.0820  -14.2803    0.7385 H   0  0  0  0  0  0  0  0  0  0  0  0
    6.1224  -13.6608    1.8547 H   0  0  0  0  0  0  0  0  0  0  0  0
    5.9364  -11.9120    1.9898 H   0  0  0  0  0  0  0  0  0  0  0  0
    7.2769  -12.5772    1.0626 H   0  0  0  0  0  0  0  0  0  0  0  0
    6.4683  -11.1198   -0.8476 H   0  0  0  0  0  0  0  0  0  0  0  0
    5.0498  -11.0545   -2.8553 H   0  0  0  0  0  0  0  0  0  0  0  0
   -0.9314   -7.9648   -1.3124 H   0  0  0  0  0  0  0  0  0  0  0  0
   -2.2987   -6.6530    0.2528 H   0  0  0  0  0  0  0  0  0  0  0  0
   -3.6549   -4.1290    0.2278 H   0  0  0  0  0  0  0  0  0  0  0  0
   -2.3818   -2.9069    0.2959 H   0  0  0  0  0  0  0  0  0  0  0  0
   -2.3556   -4.2830    1.4044 H   0  0  0  0  0  0  0  0  0  0  0  0
   -1.1563   -3.0693   -1.7472 H   0  0  0  0  0  0  0  0  0  0  0  0
    0.2674   -4.3687   -3.2709 H   0  0  0  0  0  0  0  0  0  0  0  0
    3.0389   -6.7371   -4.3907 H   0  0  0  0  0  0  0  0  0  0  0  0
    3.3839   -6.1801   -6.7614 H   0  0  0  0  0  0  0  0  0  0  0  0
    0.7519   -4.9627   -9.0200 H   0  0  0  0  0  0  0  0  0  0  0  0
    2.4924   -5.2382   -8.8318 H   0  0  0  0  0  0  0  0  0  0  0  0
    1.4175   -6.5826   -9.2088 H   0  0  0  0  0  0  0  0  0  0  0  0
   -0.8280   -5.7456   -7.2727 H   0  0  0  0  0  0  0  0  0  0  0  0
   -1.1775   -6.3124   -4.9055 H   0  0  0  0  0  0  0  0  0  0  0  0
    1.1926   -8.9990    2.5426 H   0  0  0  0  0  0  0  0  0  0  0  0
    1.1195   -9.7579    0.9487 H   0  0  0  0  0  0  0  0  0  0  0  0
   -1.0192  -10.0019    2.1999 H   0  0  0  0  0  0  0  0  0  0  0  0
   -1.2623   -9.0634    0.7263 H   0  0  0  0  0  0  0  0  0  0  0  0
   -1.1785   -8.2473    2.2916 H   0  0  0  0  0  0  0  0  0  0  0  0
   -5.8999   -7.5547    8.1010 H   0  0  0  0  0  0  0  0  0  0  0  0
   -6.4993   -5.9885    8.6732 H   0  0  0  0  0  0  0  0  0  0  0  0
   -8.1421   -7.0315    7.1391 H   0  0  0  0  0  0  0  0  0  0  0  0
   -7.4977   -5.5451    6.4316 H   0  0  0  0  0  0  0  0  0  0  0  0
   -6.9242   -7.1159    5.8626 H   0  0  0  0  0  0  0  0  0  0  0  0
   -1.7039   -5.8951    6.2806 H   0  0  0  0  0  0  0  0  0  0  0  0
   -4.2313    0.4998    6.3524 H   0  0  0  0  0  0  0  0  0  0  0  0
   -5.3302    0.0089   11.0682 H   0  0  0  0  0  0  0  0  0  0  0  0
   -5.1765   -1.7556   11.1238 H   0  0  0  0  0  0  0  0  0  0  0  0
   -2.7349   -1.5338   11.5797 H   0  0  0  0  0  0  0  0  0  0  0  0
   -2.8870    0.2259   11.5507 H   0  0  0  0  0  0  0  0  0  0  0  0
   -3.6965   -0.7084   12.8122 H   0  0  0  0  0  0  0  0  0  0  0  0
   -3.0342    5.0934    4.0242 H   0  0  0  0  0  0  0  0  0  0  0  0
   -2.6166    6.5563    3.1142 H   0  0  0  0  0  0  0  0  0  0  0  0
   -4.2743    4.2241    2.0420 H   0  0  0  0  0  0  0  0  0  0  0  0
   -3.8528    5.6805    1.1357 H   0  0  0  0  0  0  0  0  0  0  0  0
   -4.9088    5.7922    2.5492 H   0  0  0  0  0  0  0  0  0  0  0  0
    2.3514   -0.1271    0.8065 H   0  0  0  0  0  0  0  0  0  0  0  0
    1.7332    1.4739    0.3420 H   0  0  0  0  0  0  0  0  0  0  0  0
    3.7350    1.6351    1.8209 H   0  0  0  0  0  0  0  0  0  0  0  0
    2.8867    0.7230    3.0781 H   0  0  0  0  0  0  0  0  0  0  0  0
    2.3127    2.3270    2.6084 H   0  0  0  0  0  0  0  0  0  0  0  0
    1.2131   -1.3296   -0.3217 H   0  0  0  0  0  0  0  0  0  0  0  0
    1.2129   -3.0177   -0.8390 H   0  0  0  0  0  0  0  0  0  0  0  0
    3.5061   -3.3649   -0.1429 H   0  0  0  0  0  0  0  0  0  0  0  0
    3.4560   -1.9376   -1.1765 H   0  0  0  0  0  0  0  0  0  0  0  0
    3.6202   -1.7632    0.5770 H   0  0  0  0  0  0  0  0  0  0  0  0
    1.7938    6.4135    2.6226 H   0  0  0  0  0  0  0  0  0  0  0  0
    2.6335    4.3753    3.6875 H   0  0  0  0  0  0  0  0  0  0  0  0
    1.4844    3.0220    6.8489 H   0  0  0  0  0  0  0  0  0  0  0  0
    0.8762    2.1880    5.4248 H   0  0  0  0  0  0  0  0  0  0  0  0
    2.5506    2.7495    5.4621 H   0  0  0  0  0  0  0  0  0  0  0  0
   -0.5177    4.5658    6.5544 H   0  0  0  0  0  0  0  0  0  0  0  0
   -1.3396    6.6332    5.5142 H   0  0  0  0  0  0  0  0  0  0  0  0
    0.6700    8.7521    5.4810 H   0  0  0  0  0  0  0  0  0  0  0  0
   -0.1178   10.7275    6.7081 H   0  0  0  0  0  0  0  0  0  0  0  0
   -1.9975   13.2120    5.5218 H   0  0  0  0  0  0  0  0  0  0  0  0
   -3.3143   12.3150    6.2713 H   0  0  0  0  0  0  0  0  0  0  0  0
   -1.7471   12.4320    7.0863 H   0  0  0  0  0  0  0  0  0  0  0  0
   -3.3372   11.1673    3.9462 H   0  0  0  0  0  0  0  0  0  0  0  0
   -2.5712    9.1803    2.7304 H   0  0  0  0  0  0  0  0  0  0  0  0
    1.1404    8.2443   -4.2849 H   0  0  0  0  0  0  0  0  0  0  0  0
   -0.0462    6.5055   -5.5512 H   0  0  0  0  0  0  0  0  0  0  0  0
   -2.7345    4.8370   -4.6827 H   0  0  0  0  0  0  0  0  0  0  0  0
   -3.6419    6.0531   -5.5750 H   0  0  0  0  0  0  0  0  0  0  0  0
   -2.1020    5.4540   -6.2098 H   0  0  0  0  0  0  0  0  0  0  0  0
   -3.6197    7.3555   -3.3825 H   0  0  0  0  0  0  0  0  0  0  0  0
   -2.4398    9.1061   -2.1224 H   0  0  0  0  0  0  0  0  0  0  0  0
    2.4634   10.6481   -1.5093 H   0  0  0  0  0  0  0  0  0  0  0  0
    3.9903   12.1400   -2.7136 H   0  0  0  0  0  0  0  0  0  0  0  0
    4.6171   13.3368   -4.6731 H   0  0  0  0  0  0  0  0  0  0  0  0
    3.2083   14.2367   -5.2431 H   0  0  0  0  0  0  0  0  0  0  0  0
    3.8317   12.8972   -6.1973 H   0  0  0  0  0  0  0  0  0  0  0  0
    1.2919   12.2486   -6.0161 H   0  0  0  0  0  0  0  0  0  0  0  0
   -0.2546   10.7800   -4.8069 H   0  0  0  0  0  0  0  0  0  0  0  0
   -0.0763   12.2995   -1.8176 H   0  0  0  0  0  0  0  0  0  0  0  0
    0.7060   15.4057    3.5723 H   0  0  0  0  0  0  0  0  0  0  0  0
    1.0351   17.6178    4.6356 H   0  0  0  0  0  0  0  0  0  0  0  0
    1.2149   20.0865    4.4453 H   0  0  0  0  0  0  0  0  0  0  0  0
    0.6026   19.8401    0.2298 H   0  0  0  0  0  0  0  0  0  0  0  0
    0.2628   17.6761   -0.8447 H   0  0  0  0  0  0  0  0  0  0  0  0
  1  2  2  0  0  0  0
  2  3  1  0  0  0  0
  3  4  2  0  0  0  0
  3  5  1  0  0  0  0
  5  6  2  0  0  0  0
  6  7  1  0  0  0  0
  7  8  2  0  0  0  0
  8  9  1  0  0  0  0
  9 10  1  0  0  0  0
  9 11  2  0  0  0  0
 11 12  1  0  0  0  0
  6 13  1  0  0  0  0
 13 14  2  0  0  0  0
 14 15  1  0  0  0  0
 15 16  3  0  0  0  0
 14 17  1  0  0  0  0
 17 18  3  0  0  0  0
  1 19  1  0  0  0  0
 19 20  2  0  0  0  0
 20 21  1  0  0  0  0
 21 22  1  0  0  0  0
 22 23  2  0  0  0  0
 23 24  1  0  0  0  0
 24 25  2  0  0  0  0
 25 26  1  0  0  0  0
 25 27  1  0  0  0  0
 27 28  2  0  0  0  0
 21 29  1  0  0  0  0
 29 30  2  0  0  0  0
 30 31  1  0  0  0  0
 31 32  2  0  0  0  0
 32 33  1  0  0  0  0
 32 34  1  0  0  0  0
 34 35  2  0  0  0  0
 20 36  1  0  0  0  0
 36 37  1  0  0  0  0
 37 38  1  0  0  0  0
 38 39  2  0  0  0  0
 39 40  1  0  0  0  0
 40 41  1  0  0  0  0
 41 42  2  0  0  0  0
 42 43  1  0  0  0  0
 43 44  2  0  0  0  0
 44 45  1  0  0  0  0
 44 46  1  0  0  0  0
 46 47  2  0  0  0  0
 40 48  1  0  0  0  0
 48 49  2  0  0  0  0
 49 50  1  0  0  0  0
 50 51  2  0  0  0  0
 51 52  1  0  0  0  0
 51 53  1  0  0  0  0
 53 54  2  0  0  0  0
 39 55  1  0  0  0  0
 55 56  1  0  0  0  0
 38 57  1  0  0  0  0
 57 58  2  0  0  0  0
 58 59  1  0  0  0  0
 59 60  1  0  0  0  0
 58 61  1  0  0  0  0
 61 62  1  0  0  0  0
 62 63  1  0  0  0  0
 63 64  1  0  0  0  0
 64 65  2  0  0  0  0
 65 66  1  0  0  0  0
 66 67  2  0  0  0  0
 67 68  1  0  0  0  0
 68 69  1  0  0  0  0
 69 70  1  0  0  0  0
 70 71  1  0  0  0  0
 71 72  1  0  0  0  0
 70 73  2  0  0  0  0
 73 74  1  0  0  0  0
 73 75  1  0  0  0  0
 67 76  1  0  0  0  0
 76 77  1  0  0  0  0
 77 78  2  0  0  0  0
 78 79  1  0  0  0  0
 79 80  1  0  0  0  0
 79 81  2  0  0  0  0
 81 82  1  0  0  0  0
 82 83  1  0  0  0  0
 81 84  1  0  0  0  0
 76 85  2  0  0  0  0
 85 86  1  0  0  0  0
 86 87  2  0  0  0  0
 87 88  1  0  0  0  0
 88 89  1  0  0  0  0
 89 90  1  0  0  0  0
 90 91  1  0  0  0  0
 91 92  1  0  0  0  0
 92 93  1  0  0  0  0
 91 94  2  0  0  0  0
 94 95  1  0  0  0  0
 95 96  1  0  0  0  0
 96 97  1  0  0  0  0
 97 98  1  0  0  0  0
 98 99  1  0  0  0  0
 99100  1  0  0  0  0
 98101  1  0  0  0  0
101102  2  0  0  0  0
102103  1  0  0  0  0
103104  1  0  0  0  0
104105  1  0  0  0  0
105106  1  0  0  0  0
103107  1  0  0  0  0
107108  1  0  0  0  0
 94109  1  0  0  0  0
109110  2  0  0  0  0
110111  1  0  0  0  0
111112  1  0  0  0  0
112113  2  0  0  0  0
113114  1  0  0  0  0
114115  2  0  0  0  0
115116  1  0  0  0  0
115117  1  0  0  0  0
117118  2  0  0  0  0
111119  1  0  0  0  0
119120  2  0  0  0  0
120121  1  0  0  0  0
121122  2  0  0  0  0
122123  1  0  0  0  0
122124  1  0  0  0  0
124125  2  0  0  0  0
110126  1  0  0  0  0
126127  1  0  0  0  0
127128  1  0  0  0  0
128129  2  0  0  0  0
129130  1  0  0  0  0
130131  1  0  0  0  0
131132  2  0  0  0  0
132133  1  0  0  0  0
133134  2  0  0  0  0
134135  1  0  0  0  0
134136  1  0  0  0  0
136137  2  0  0  0  0
130138  1  0  0  0  0
138139  2  0  0  0  0
139140  1  0  0  0  0
140141  2  0  0  0  0
141142  1  0  0  0  0
141143  1  0  0  0  0
143144  2  0  0  0  0
129145  1  0  0  0  0
145146  1  0  0  0  0
128147  1  0  0  0  0
147148  2  0  0  0  0
148149  1  0  0  0  0
149150  2  0  0  0  0
149151  1  0  0  0  0
151152  2  0  0  0  0
152153  1  0  0  0  0
153154  2  0  0  0  0
154155  1  0  0  0  0
155156  2  0  0  0  0
156157  1  0  0  0  0
156158  1  0  0  0  0
158159  2  0  0  0  0
159160  1  0  0  0  0
160161  2  0  0  0  0
161162  1  0  0  0  0
162163  2  0  0  0  0
163164  1  0  0  0  0
164165  3  0  0  0  0
163166  1  0  0  0  0
166167  3  0  0  0  0
 13  2  1  0  0  0  0
 56 19  1  0  0  0  0
106 57  1  0  0  0  0
146109  1  0  0  0  0
162148  1  0  0  0  0
 11  5  1  0  0  0  0
 28 22  1  0  0  0  0
 35 29  1  0  0  0  0
 55 36  2  0  0  0  0
105 61  2  0  0  0  0
118112  1  0  0  0  0
125119  1  0  0  0  0
145126  2  0  0  0  0
161151  1  0  0  0  0
 47 41  1  0  0  0  0
 54 48  1  0  0  0  0
104 63  2  0  0  0  0
137131  1  0  0  0  0
144138  1  0  0  0  0
159153  1  0  0  0  0
102 64  1  0  0  0  0
 86 65  1  0  0  0  0
101 87  1  0  0  0  0
 74 68  2  0  0  0  0
 84 77  1  0  0  0  0
 97 88  2  0  0  0  0
 96 90  2  0  0  0  0
  1168  1  0  0  0  0
  7169  1  0  0  0  0
  8170  1  0  0  0  0
 23171  1  0  0  0  0
 24172  1  0  0  0  0
 26173  1  0  0  0  0
 26174  1  0  0  0  0
 26175  1  0  0  0  0
 27176  1  0  0  0  0
 28177  1  0  0  0  0
 30178  1  0  0  0  0
 31179  1  0  0  0  0
 33180  1  0  0  0  0
 33181  1  0  0  0  0
 33182  1  0  0  0  0
 34183  1  0  0  0  0
 35184  1  0  0  0  0
 42185  1  0  0  0  0
 43186  1  0  0  0  0
 45187  1  0  0  0  0
 45188  1  0  0  0  0
 45189  1  0  0  0  0
 46190  1  0  0  0  0
 47191  1  0  0  0  0
 49192  1  0  0  0  0
 50193  1  0  0  0  0
 52194  1  0  0  0  0
 52195  1  0  0  0  0
 52196  1  0  0  0  0
 53197  1  0  0  0  0
 54198  1  0  0  0  0
 59199  1  0  0  0  0
 59200  1  0  0  0  0
 60201  1  0  0  0  0
 60202  1  0  0  0  0
 60203  1  0  0  0  0
 71204  1  0  0  0  0
 71205  1  0  0  0  0
 72206  1  0  0  0  0
 72207  1  0  0  0  0
 72208  1  0  0  0  0
 74209  1  0  0  0  0
 78210  1  0  0  0  0
 82211  1  0  0  0  0
 82212  1  0  0  0  0
 83213  1  0  0  0  0
 83214  1  0  0  0  0
 83215  1  0  0  0  0
 92216  1  0  0  0  0
 92217  1  0  0  0  0
 93218  1  0  0  0  0
 93219  1  0  0  0  0
 93220  1  0  0  0  0
 99221  1  0  0  0  0
 99222  1  0  0  0  0
100223  1  0  0  0  0
100224  1  0  0  0  0
100225  1  0  0  0  0
107226  1  0  0  0  0
107227  1  0  0  0  0
108228  1  0  0  0  0
108229  1  0  0  0  0
108230  1  0  0  0  0
113231  1  0  0  0  0
114232  1  0  0  0  0
116233  1  0  0  0  0
116234  1  0  0  0  0
116235  1  0  0  0  0
117236  1  0  0  0  0
118237  1  0  0  0  0
120238  1  0  0  0  0
121239  1  0  0  0  0
123240  1  0  0  0  0
123241  1  0  0  0  0
123242  1  0  0  0  0
124243  1  0  0  0  0
125244  1  0  0  0  0
132245  1  0  0  0  0
133246  1  0  0  0  0
135247  1  0  0  0  0
135248  1  0  0  0  0
135249  1  0  0  0  0
136250  1  0  0  0  0
137251  1  0  0  0  0
139252  1  0  0  0  0
140253  1  0  0  0  0
142254  1  0  0  0  0
142255  1  0  0  0  0
142256  1  0  0  0  0
143257  1  0  0  0  0
144258  1  0  0  0  0
147259  1  0  0  0  0
152260  1  0  0  0  0
154261  1  0  0  0  0
155262  1  0  0  0  0
158263  1  0  0  0  0
160264  1  0  0  0  0
M  END
