225

C          5.21010       -1.80540       11.30740
C          4.93390       -2.49360       12.47540
C          3.66630       -3.12990       12.81870
O          2.62340       -3.11980       12.18990
C          3.90210       -3.83670       14.09850
C          5.23750       -3.64320       14.49490
C          5.70100       -4.22240       15.66420
C          4.82260       -4.98410       16.42270
C          3.50580       -5.16400       16.03120
Br         2.35560       -6.20330       17.11380
C          3.01880       -4.58900       14.85240
Cl         1.39140       -4.80270       14.36280
C          5.89200       -2.77900       13.51020
C          7.18220       -2.31110       13.61290
C          7.77790       -1.35990       12.76410
N          8.32660       -0.56010       12.14600
C          8.08580       -2.69520       14.62270
N          8.88040       -2.97850       15.40270
C          4.37850       -1.43590       10.26000
C          4.83340       -0.69400        9.13190
N          6.13910       -0.45240        8.81280
C          7.16160       -1.39660        9.02520
C          6.91220       -2.75960        8.88570
C          7.92520       -3.67220        9.10230
C          9.20720       -3.25550        9.44200
C         10.30380       -4.24190        9.69910
C          9.45220       -1.89120        9.54690
C          8.44660       -0.96700        9.34760
C          6.45670        0.73690        8.12510
C          5.93170        1.95090        8.56120
C          6.23900        3.11620        7.89040
C          7.07580        3.10490        6.77900
C          7.39440        4.38070        6.06350
C          7.60160        1.88980        6.35920
C          7.29890        0.71470        7.01940
C          3.74790       -0.23150        8.37170
S          3.60800        0.69220        6.90820
C          1.86100        0.51710        6.95630
C          1.42470       -0.28130        8.00670
N          0.12610       -0.70400        8.20650
C         -0.30790       -0.96500        9.51910
C          0.03830       -0.10630       10.55790
C         -0.34630       -0.39410       11.85190
C         -1.08610       -1.53280       12.14400
C         -1.45390       -1.86320       13.55730
C         -1.44840       -2.37040       11.09630
C         -1.06620       -2.09730        9.79840
C         -0.72690       -0.94770        7.12220
C         -2.08260       -0.64000        7.21310
C         -2.90060       -0.77270        6.10990
C         -2.40190       -1.22320        4.89230
C         -3.28170       -1.27700        3.68100
C         -1.06840       -1.60350        4.83220
C         -0.23960       -1.47850        5.93030
C          2.51010       -0.66830        8.82920
S          2.62320       -1.65350       10.24040
C          1.03120        1.11260        5.95300
C         -0.14920        1.80100        6.15450
C         -0.58010        2.32520        7.44820
C          0.35360        2.79150        8.37230
C         -0.06800        3.29980        9.58540
C         -1.41670        3.34840        9.89450
C         -2.36220        2.90600        8.97940
C         -3.83170        3.00820        9.26880
C         -4.41060        4.27360        8.63290
C         -1.93300        2.40880        7.75840
C         -0.83500        1.99490        4.93550
S         -2.36750        2.73080        4.53800
C         -2.09560        2.35700        2.86980
C         -2.70140        2.55580        1.61830
C         -3.83780        3.30400        1.24140
C         -4.10450        3.50350       -0.15510
N         -5.15210        4.28560       -0.36300
S         -5.75660        4.72640        1.07280
N         -4.70260        3.93890        2.01700
C         -3.30230        2.83610       -1.10620
C         -3.39080        2.76150       -2.50680
S         -4.31020        3.44760       -3.80280
C         -3.38190        2.49060       -4.93230
C         -3.41330        2.38190       -6.33460
C         -4.34630        3.14040       -7.17370
C         -4.40720        4.52490       -7.05680
C         -5.28780        5.24220       -7.84410
C         -6.10960        4.58860       -8.74510
C         -6.06910        3.20520       -8.86650
C         -6.98810        2.49120       -9.81490
C         -8.29750        2.11850       -9.11670
C         -5.19210        2.48950       -8.06600
C         -2.46170        1.48700       -6.79210
S         -1.54720        0.75210       -5.47660
C         -2.42760        1.67760       -4.31490
C         -2.42680        1.84210       -2.92610
N         -1.71870        1.36740       -1.84980
C         -2.23360        1.98290       -0.71600
C         -1.85080        1.95140        0.64970
N         -0.74100        1.44770        1.30150
C         -0.88990        1.69280        2.63890
C         -0.16300        1.49530        3.82060
S          1.35010        0.78830        4.25750
C          0.54040        1.02540        0.78810
C          0.75990       -0.47610        0.96980
C         -1.10290        0.06190       -1.96480
C         -2.07220       -1.03750       -1.53480
C         -2.05530        1.18560       -8.11990
C         -1.12050        0.25190       -8.48380
C         -0.83300        0.23790       -9.86480
C          0.05210       -0.60580      -10.56350
C          0.82830       -1.62610       -9.87960
S          1.81990       -1.24180       -8.50290
C          2.37530       -2.87380       -8.34580
C          3.28990       -3.26990       -7.24010
C          2.52620       -3.40960       -5.92140
C          1.80930       -3.65960       -9.30410
Cl         2.10450       -5.34230       -9.46220
C          0.93880       -2.95560      -10.17990
Cl         0.05890       -3.74000      -11.42310
C          0.16840       -0.40070      -11.93290
C         -0.58810        0.58230      -12.62760
C         -1.53880        1.36790      -11.93940
C         -2.40810        2.28440      -12.64880
S         -2.67300        3.90720      -12.08320
C         -3.76420        4.26230      -13.37670
C         -4.44680        5.58200      -13.45760
C         -5.60160        5.65140      -12.45560
C         -3.91890        3.17270      -14.18210
C         -3.14980        2.05000      -13.77750
Cl        -3.25030        0.54060      -14.58190
Cl        -4.93310        3.13840      -15.56390
C         -1.60130        1.20320      -10.56690
S         -2.64960        2.09070       -9.49650
C         -0.21990        0.68960      -13.97720
C          0.75750       -0.19950      -14.35910
S          1.27740       -1.19960      -12.99920
C          1.38270       -0.44080      -15.59960
C          1.16020        0.08810      -16.84340
C          0.13090        1.06510      -17.26690
O         -0.58890        1.76260      -16.58640
C          0.16440        1.05890      -18.74640
C          1.20590        0.22880      -19.19570
C          1.42560        0.06980      -20.55510
C          0.60230        0.74520      -21.44360
C         -0.42160        1.56560      -20.99490
Br        -1.50690        2.45750      -22.25820
C         -0.66180        1.73900      -19.62740
Cl        -1.93010        2.74220      -19.06870
C          1.88560       -0.33450      -18.03120
C          3.03640       -1.07600      -18.08320
C          3.69320       -1.43360      -19.28050
N          4.27730       -1.76070      -20.21290
C          3.77100       -1.55800      -16.97720
N          4.44960       -1.97520      -16.14980
H          6.23850       -1.48920       11.18880
H          6.71800       -4.09870       15.99660
H          5.16480       -5.44510       17.33640
H          5.92360       -3.09940        8.61350
H          7.71580       -4.72690        8.99670
H         10.60270       -4.20300       10.74650
H         11.17950       -4.00570        9.09690
H          9.98230       -5.25440        9.46910
H         10.44130       -1.54680        9.80800
H          8.64730        0.08730        9.45300
H          5.29200        1.97160        9.43150
H          5.82950        4.05370        8.23720
H          8.07670        4.20490        5.23620
H          6.48290        4.83200        5.67330
H          7.85150        5.09520        6.74680
H          8.25380        1.85860        5.49870
H          7.70830       -0.22490        6.67930
H          0.60680        0.78600       10.34290
H         -0.06370        0.27730       12.64980
H         -2.33730       -2.49620       13.59490
H         -0.63220       -2.40040       14.03180
H         -1.63930       -0.95960       14.13410
H         -2.02580       -3.26040       11.30100
H         -1.34090       -2.76580        8.99550
H         -2.47710       -0.27490        8.14940
H         -3.94390       -0.50220        6.18650
H         -3.48090       -0.26690        3.31980
H         -4.23850       -1.73850        3.91780
H         -2.80820       -1.84070        2.88040
H         -0.66630       -2.00090        3.91060
H          0.79480       -1.78350        5.86370
H          1.40590        2.77300        8.12930
H          0.66010        3.66480       10.29570
H         -1.73680        3.73970       10.84920
H         -4.34870        2.13580        8.86350
H         -3.99760        3.03390       10.34740
H         -4.26070        4.25760        7.55580
H         -5.47640        4.34770        8.83540
H         -3.91850        5.15690        9.03410
H         -2.66350        2.06410        7.04280
H         -3.75600        5.03320       -6.36180
H         -5.33160        6.31750       -7.75560
H         -6.79460        5.15610       -9.35870
H         -6.50420        1.58520      -10.18530
H         -7.20650        3.13500      -10.66910
H         -8.79980        3.01210       -8.75280
H         -8.96200        1.60220       -9.80540
H         -8.10230        1.46710       -8.26780
H         -5.16600        1.41070       -8.13160
H          0.62460        1.33610       -0.25400
H          1.31350        1.55920        1.35250
H         -0.05860       -1.05200        0.54610
H          0.82820       -0.70970        2.02900
H          1.68930       -0.77540        0.49300
H         -0.18740        0.00280       -1.38420
H         -0.83990       -0.06760       -3.01780
H         -2.36770       -0.90020       -0.49640
H         -1.60320       -2.01150       -1.64450
H         -2.96810       -1.01210       -2.15090
H         -0.65220       -0.40180       -7.77020
H          3.75610       -4.22190       -7.49860
H          4.07180       -2.51650       -7.12720
H          2.05660       -2.46480       -5.65650
H          3.20660       -3.69810       -5.12480
H          1.75380       -4.16920       -6.01230
H         -3.73090        6.37650      -13.23930
H         -4.82620        5.72060      -14.47120
H         -6.33330        4.87740      -12.67410
H         -5.22900        5.50430      -11.44420
H         -6.09040        6.62010      -12.51510
H         -0.63330        1.41640      -14.64970
H          2.14340       -1.21060      -15.54280
H          2.20940       -0.56290      -20.93570
H          0.75550        0.63380      -22.50600
