222

C         -2.40660        7.34110       -1.13330
C         -1.15050        7.69480       -1.56030
C         -0.95960        8.98650       -2.25310
O         -1.75320        9.89790       -2.32480
C          0.38920        8.89770       -2.86720
C          0.99980        7.69510       -2.46520
C          2.24080        7.34000       -2.95950
C          2.87380        8.20060       -3.84500
C          2.28490        9.39800       -4.21750
Br         3.20440       10.54030       -5.40930
C          1.02360        9.76960       -3.73540
Cl         0.29010       11.24270       -4.20880
C          0.11140        7.01310       -1.52370
C          0.53260        6.10000       -0.58350
C         -0.26110        5.68460        0.50200
N         -0.85210        5.38120        1.43980
C          1.84990        5.61950       -0.50760
N          2.92140        5.21840       -0.38920
C         -2.92340        6.06630       -0.89490
C         -4.18250        5.77950       -0.32800
N         -4.95690        6.68860        0.32260
C         -4.40630        7.80240        0.99860
C         -5.04500        9.03490        0.91820
C         -4.52280       10.12620        1.58430
C         -3.36190       10.01570        2.34050
C         -2.78230       11.21320        3.02630
C         -2.74470        8.77270        2.42700
C         -3.25870        7.67070        1.77360
C         -6.34490        6.47920        0.44700
C         -7.10940        6.16290       -0.67080
C         -8.47630        6.00880       -0.54730
C         -9.10730        6.15010        0.68190
C        -10.58540        5.95260        0.81340
C         -8.33160        6.46510        1.79280
C         -6.96700        6.63580        1.68210
C         -4.48020        4.40270       -0.43900
S         -5.81770        3.41480        0.03650
C         -4.96360        1.96830       -0.47170
C         -3.70920        2.24880       -0.99740
N         -2.80860        1.30810       -1.44720
C         -3.21780        0.07580       -1.99640
C         -2.60030       -1.10080       -1.57620
C         -2.96760       -2.31350       -2.12120
C         -3.93900       -2.38750       -3.11490
C         -4.31980       -3.71080       -3.70330
C         -4.53630       -1.20740       -3.53810
C         -4.19500        0.01140       -2.98140
C         -1.42270        1.54620       -1.36990
C         -0.60540        1.15690       -2.42770
C          0.76080        1.33550       -2.35310
C          1.35090        1.90820       -1.23270
C          2.83780        2.06120       -1.14270
C          0.52560        2.31010       -0.18840
C         -0.84360        2.13000       -0.24630
C         -3.46280        3.64400       -0.99980
S         -2.11940        4.60960       -1.49000
C         -5.38650        0.62320       -0.14580
C         -6.24860       -0.26980       -0.74810
C         -7.24280        0.07590       -1.76340
C         -7.61040       -0.84460       -2.74410
C         -8.54140       -0.50680       -3.70660
C         -9.11740        0.75060       -3.71380
C         -8.77960        1.67700       -2.73610
C         -9.35470        3.06310       -2.76760
C         -8.47030        3.96430       -3.63210
C         -7.85480        1.32680       -1.76520
C         -5.98710       -1.59390       -0.30200
S         -6.49820       -3.17390       -0.86090
C         -5.28500       -3.91810        0.12780
C         -4.59140       -5.14010        0.23470
C         -4.55840       -6.28830       -0.59210
C         -3.40830       -7.16080       -0.54310
N         -3.44920       -8.09530       -1.47780
S         -4.80920       -7.91400       -2.33780
N         -5.39790       -6.62040       -1.55880
C         -2.41700       -6.94820        0.44340
C         -1.15190       -7.51520        0.71200
S          0.04980       -8.49180       -0.07640
C          1.23920       -7.97380        1.10430
C          2.65150       -8.01780        1.15250
C          3.52820       -8.67060        0.18210
C          3.22690       -8.64810       -1.17730
C          4.09130       -9.23070       -2.08460
C          5.25020       -9.84820       -1.65030
C          5.56440       -9.88700       -0.29670
C          6.79330      -10.60260        0.18660
C          6.46400      -12.05930        0.51790
C          4.69800       -9.29560        0.60810
C          3.13340       -7.27930        2.22020
S          1.85330       -6.61120        3.22630
C          0.67330       -7.19820        2.11680
C         -0.67150       -6.90780        1.87530
N         -1.56730       -5.97660        2.33280
C         -2.60450       -5.93850        1.42190
C         -3.57260       -4.93330        1.20010
N         -3.61000       -3.62260        1.62620
C         -4.62000       -3.00230        0.94510
C         -4.99710       -1.68120        0.67090
S         -4.35740       -0.13410        1.06740
C         -2.59970       -2.84670        2.30750
C         -3.10030       -2.30580        3.64470
C         -1.62320       -5.59850        3.72780
C         -1.72730       -6.82970        4.62630
C          4.40070       -6.62820        2.34400
C          5.13840       -6.13540        1.30810
C          6.01580       -5.08710        1.67340
C          6.64830       -4.22880        0.75630
C          6.73970       -4.61830       -0.65540
C          6.40550       -3.72500       -1.69580
C          6.47040       -4.12180       -3.00010
C          6.87460       -5.42820       -3.34740
C          6.94150       -5.87060       -4.68410
C          7.33840       -7.14520       -4.97810
C          7.69080       -8.03420       -3.95000
C          7.63770       -7.63560       -2.64450
C          7.22540       -6.32910       -2.30840
C          7.14740       -5.89480       -0.97360
C          7.09230       -3.01870        1.27040
C          7.09880       -2.75770        2.66510
C          6.60370       -3.70160        3.60750
O          6.77110       -3.33450        4.89270
C          6.15610       -4.02600        5.96350
C          4.72360       -3.55910        6.19600
C          5.98720       -4.81910        3.07220
S          4.91770       -5.96460        3.87750
C          7.50490       -1.45060        2.95630
C          7.71460       -0.66770        1.83320
S          7.55330       -1.60940        0.36150
C          7.86990        0.72850        1.92910
C          7.67600        1.69920        0.98280
C          7.29930        1.47460       -0.42270
O          7.39660        0.45010       -1.06520
C          6.78350        2.77410       -0.90530
C          6.95620        3.74830        0.09530
C          6.50070        5.04070       -0.10850
C          5.88150        5.34450       -1.31180
C          5.72760        4.38400       -2.29840
Br         4.88740        4.85430       -3.92130
C          6.18110        3.07470       -2.11500
Cl         5.99210        1.88470       -3.33310
C          7.60450        3.12290        1.24660
C          8.08190        3.78810        2.34550
C          8.00630        5.18620        2.51660
N          7.97990        6.31670        2.71450
C          8.75050        3.18400        3.43110
N          9.30870        2.76840        4.34470
H         -3.11540        8.16200       -1.09310
H          2.70660        6.40640       -2.69500
H          3.83420        7.93220       -4.25730
H         -5.94320        9.13360        0.32630
H         -5.02100       11.08140        1.50820
H         -2.18030       11.78630        2.32040
H         -2.14250       10.91690        3.85370
H         -3.56870       11.86510        3.40030
H         -1.85070        8.65910        3.02220
H         -2.76660        6.71350        1.85800
H         -6.63150        6.06310       -1.63450
H         -9.06520        5.79100       -1.42460
H        -11.00530        6.64170        1.54250
H        -10.79500        4.93770        1.15330
H        -11.08480        6.09910       -0.14120
H         -8.80450        6.58050        2.75690
H         -6.37300        6.88800        2.54780
H         -1.82900       -1.05000       -0.82070
H         -2.49270       -3.22080       -1.77420
H         -4.96690       -3.58020       -4.56660
H         -3.43190       -4.26190       -4.00910
H         -4.84880       -4.31780       -2.96820
H         -5.27860       -1.23430       -4.32200
H         -4.67900        0.91750       -3.31590
H         -1.04980        0.70920       -3.30450
H          1.37990        1.02580       -3.18260
H          3.29660        1.91210       -2.11650
H          3.25160        1.32470       -0.45290
H          3.10220        3.05020       -0.77160
H          0.96140        2.76160        0.69130
H         -1.46270        2.43120        0.58660
H         -7.15980       -1.82240       -2.76540
H         -8.81640       -1.23080       -4.45950
H         -9.83930        1.01250       -4.47390
H        -10.36380        3.03970       -3.18360
H         -9.40550        3.46410       -1.75360
H         -8.88770        4.96620       -3.70490
H         -7.47240        4.03060       -3.20390
H         -8.38440        3.55570       -4.63670
H         -7.62620        2.03420       -0.98340
H          2.33070       -8.15590       -1.52200
H          3.86070       -9.19980       -3.13900
H          5.91730      -10.30370       -2.36710
H          7.18330      -10.10930        1.07970
H          7.56590      -10.57760       -0.58460
H          7.35180      -12.58080        0.86780
H          6.08500      -12.57020       -0.36430
H          5.70320      -12.10820        1.29360
H          4.92730       -9.32360        1.66420
H         -2.34400       -1.99720        1.66350
H         -1.70400       -3.45360        2.42980
H         -2.30430       -1.75570        4.13800
H         -3.43190       -3.10630        4.30200
H         -3.93620       -1.63040        3.48300
H         -2.50260       -4.97530        3.87880
H         -0.72070       -5.03320        3.98620
H         -0.84140       -7.45190        4.53210
H         -2.59990       -7.42100        4.35700
H         -1.82140       -6.51800        5.66290
H          4.95060       -6.40780        0.28560
H          6.07530       -2.72760       -1.45090
H          6.20480       -3.43400       -3.78990
H          6.67370       -5.18190       -5.47280
H          7.38760       -7.47790       -6.00470
H          8.00840       -9.03530       -4.20390
H          7.90990       -8.31060       -1.84600
H          7.42830       -6.58430       -0.18940
H          6.77350       -3.77750        6.83160
H          6.19560       -5.10870        5.80790
H          4.70870       -2.48670        6.37420
H          4.10040       -3.77840        5.33270
H          4.31210       -4.06940        7.06160
H          7.56560       -1.06590        3.95850
H          8.04240        1.06640        2.94470
H          6.60110        5.80470        0.64370
H          5.50640        6.34130       -1.48300
