246

C          3.66790       -4.56160       10.91220
C          2.66360       -4.65980       11.85960
C          1.29710       -5.11150       11.62060
O          0.77380       -5.40460       10.56050
C          0.65500       -5.17910       12.95410
C          1.58510       -4.79270       13.93570
C          1.21710       -4.78450       15.27050
C         -0.07620       -5.16110       15.60620
C         -0.98980       -5.53520       14.63420
Br        -2.73970       -6.02870       15.15430
C         -0.63690       -5.55120       13.28050
Cl        -1.76110       -6.01270       12.07320
C          2.83820       -4.43240       13.26890
C          3.94810       -3.92490       13.90550
C          5.09690       -3.42260       13.26700
N          6.05090       -2.95180       12.82980
C          4.07080       -3.79870       15.30250
N          4.24340       -3.68650       16.43290
C          3.62140       -4.69870        9.53280
C          4.76020       -4.53590        8.69130
N          6.05620       -4.46280        9.11330
C          6.53770       -5.18260       10.22450
C          7.50500       -4.61550       11.05060
C          7.97920       -5.31950       12.13910
C          7.50290       -6.59110       12.43640
C          8.00140       -7.32000       13.64540
C          6.55420       -7.15610       11.59160
C          6.07940       -6.47000       10.49170
C          6.98340       -3.72250        8.35090
C          8.24210       -4.24280        8.07270
C          9.13660       -3.51670        7.31050
C          8.80350       -2.26420        6.81220
C          9.76120       -1.48150        5.96850
C          7.55010       -1.74260        7.11670
C          6.64860       -2.45560        7.87930
C          4.36860       -4.43090        7.34690
S          5.22610       -4.22170        5.85510
C          3.71690       -4.24500        4.95870
C          2.61660       -4.48390        5.77660
N          1.30980       -4.64090        5.36060
C          0.96950       -5.13030        4.09300
C          1.71410       -6.13010        3.47140
C          1.41000       -6.51700        2.18120
C          0.36890       -5.92730        1.47440
C          0.11350       -6.29250        0.04450
C         -0.40590       -4.97400        2.12380
C         -0.11950       -4.58250        3.41560
C          0.27690       -4.31030        6.26260
C         -0.78030       -5.19060        6.46550
C         -1.76150       -4.88910        7.38770
C         -1.71580       -3.71240        8.12630
C         -2.74850       -3.42260        9.17040
C         -0.67170       -2.82620        7.89470
C          0.31390       -3.11360        6.97100
C          3.00270       -4.57470        7.13710
S          2.13110       -4.87100        8.59730
C          3.66470       -3.97740        3.55140
C          4.29000       -4.59820        2.49140
C          5.35100       -5.60440        2.58050
C          5.21370       -6.81550        1.90870
C          6.22050       -7.75920        1.97500
C          7.36530       -7.50720        2.71000
C          7.52700       -6.29640        3.37170
C          8.74300       -6.04540        4.21520
C          8.55970       -6.69300        5.58850
C          6.51930       -5.34800        3.28870
C          3.73510       -4.18780        1.25980
S          4.03490       -4.68460       -0.38740
C          2.80070       -3.59010       -0.91510
C          2.21690       -3.13570       -2.10910
C          2.54280       -3.40670       -3.45510
C          1.90420       -2.64340       -4.48800
N          2.35390       -2.94900       -5.69530
S          3.47620       -4.10700       -5.54550
N          3.43700       -4.25790       -3.93350
C          0.89390       -1.72540       -4.13090
C          0.08450       -0.89170       -4.92100
S         -0.07740       -0.40010       -6.57190
C         -1.34470        0.70200       -6.09830
C         -2.07990        1.68050       -6.80230
C         -2.04480        1.90340       -8.24650
C         -3.21480        2.22930       -8.93050
C         -3.18240        2.44600      -10.29460
C         -1.98740        2.36050      -10.98680
C         -0.81440        2.02010      -10.32540
C          0.49120        1.97460      -11.06490
C          1.09370        3.37810      -11.16190
C         -0.85910        1.77400       -8.96200
C         -2.89430        2.39670       -5.94910
S         -2.85450        1.79380       -4.29990
C         -1.63500        0.65100       -4.73560
C         -0.81210       -0.26050       -4.06000
N         -0.58230       -0.65310       -2.76800
C          0.48480       -1.54090       -2.78050
C          1.22930       -2.17530       -1.74990
N          1.23360       -2.04820       -0.36990
C          2.19320       -2.88730        0.12580
C          2.73200       -3.22860        1.37280
S          2.47350       -2.78860        3.01960
C          0.68220       -1.01930        0.48040
C          1.23390        0.35840        0.12200
C         -1.61890       -0.46610       -1.77700
C         -2.25600       -1.79460       -1.37680
C         -3.51000        3.65780       -6.24380
C         -2.84940        4.74650       -6.79470
N         -1.49230        4.80570       -7.06560
C         -0.57230        4.18720       -6.20690
C         -0.78970        4.15500       -4.83190
C          0.08440        3.47970       -4.00110
C          1.20140        2.83060       -4.50740
C          2.12820        2.05970       -3.61770
C          1.44110        2.91080       -5.87510
C          0.57600        3.58120       -6.71370
C         -1.05120        5.49850       -8.20300
C         -1.80280        5.48570       -9.37360
C         -1.36380        6.16910      -10.49090
C         -0.16900        6.87440      -10.47750
C          0.31370        7.61650      -11.68550
C          0.57410        6.88650       -9.30140
C          0.14220        6.21740       -8.17560
C         -3.74350        5.82750       -6.98160
S         -3.58020        7.39240       -7.68010
C         -5.26970        7.76430       -7.29910
C         -5.93850        6.66090       -6.72950
N         -7.28060        6.54140       -6.50290
C         -8.24640        7.25970       -7.21850
C         -8.09870        7.51730       -8.58110
C         -9.03890        8.27020       -9.25210
C        -10.15600        8.78290       -8.59670
C        -11.13050        9.65550       -9.32270
C        -10.32470        8.47530       -7.25310
C         -9.38740        7.72620       -6.56730
C         -7.72580        5.63750       -5.51230
C         -7.13960        5.63420       -4.25060
C         -7.58020        4.74490       -3.29150
C         -8.60870        3.84870       -3.56160
C         -9.05900        2.87150       -2.52010
C         -9.19550        3.87240       -4.82100
C         -8.76290        4.75490       -5.79170
C         -5.03480        5.58930       -6.53130
S         -5.18920        3.99440       -5.87060
C         -5.71820        9.04110       -7.64870
C         -6.79500        9.70330       -7.10310
C         -7.32690        9.45700       -5.74780
O         -6.91190        8.66670       -4.92350
C         -8.38720       10.47230       -5.56560
C         -9.32440       10.83110       -4.58660
C        -10.10970       11.86210       -5.02620
Cl       -11.38450       12.59830       -4.16630
S         -9.71500       12.41360       -6.63440
C         -8.46590       11.24000       -6.71310
C         -7.50700       10.80860       -7.69530
C         -7.42620       11.28150       -8.98370
C         -6.57040       10.76670       -9.97240
N         -5.91350       10.36920      -10.82700
C         -8.28410       12.30400       -9.42860
N         -8.99690       13.12480       -9.79920
H          4.64940       -4.32560       11.30270
H          1.90410       -4.49700       16.04860
H         -0.38220       -5.16280       16.64100
H          7.86830       -3.62130       10.84450
H          8.71790       -4.86390       12.78090
H          7.62070       -8.33770       13.67440
H          9.08970       -7.35130       13.65160
H          7.68070       -6.80440       14.55040
H          6.18530       -8.15170       11.79170
H          5.34720       -6.92450        9.84050
H          8.51090       -5.21770        8.45100
H         10.10850       -3.93570        7.09450
H          9.33530       -1.30160        4.98190
H          9.96410       -0.51260        6.42260
H         10.70140       -2.01330        5.84880
H          7.28040       -0.76170        6.75360
H          5.68310       -2.03530        8.11980
H          2.53390       -6.59630        3.99840
H          1.99670       -7.29160        1.70960
H          0.27950       -7.35470       -0.12070
H          0.79620       -5.74410       -0.60710
H         -0.90460       -6.04470       -0.24660
H         -1.23740       -4.51810        1.60500
H         -0.71580       -3.82440        3.90170
H         -0.81630       -6.11440        5.90660
H         -2.56880       -5.58840        7.55030
H         -2.89990       -2.35160        9.28610
H         -3.69800       -3.89190        8.92360
H         -2.41540       -3.82020       10.12940
H         -0.62610       -1.89930        8.44840
H          1.12230       -2.41730        6.79800
H          4.31760       -7.01300        1.34150
H          6.11080       -8.69770        1.45170
H          8.14670       -8.25170        2.76250
H          8.89460       -4.97200        4.34290
H          9.62650       -6.46640        3.73070
H          8.39470       -7.76320        5.48450
H          9.44060       -6.53570        6.20560
H          7.69900       -6.25770        6.09150
H          6.65610       -4.38440        3.75790
H         -4.15030        2.29190       -8.39410
H         -4.09480        2.68820      -10.82050
H         -1.96550        2.54830      -12.05040
H          0.33340        1.58310      -12.07190
H          1.18870        1.31440      -10.54610
H          0.41240        4.05050      -11.67790
H          1.27580        3.78710      -10.17040
H          2.03620        3.35090      -11.70370
H          0.04340        1.48820       -8.44370
H         -0.40740       -1.03750        0.44740
H          0.97580       -1.27280        1.50210
H          1.02660        0.60290       -0.91700
H          2.31180        0.37400        0.26580
H          0.78810        1.11600        0.76110
H         -1.23540        0.07140       -0.90890
H         -2.37550        0.17270       -2.23970
H         -3.02720       -1.62640       -0.62960
H         -1.51480       -2.48000       -0.97190
H         -2.71150       -2.26400       -2.24590
H         -1.65070        4.65660       -4.41430
H         -0.11310        3.45690       -2.93850
H          3.16450        2.32020       -3.82520
H          2.01620        0.98890       -3.79260
H          1.92040        2.26400       -2.56990
H          2.31370        2.42650       -6.28920
H          0.77360        3.63200       -7.77290
H         -2.72390        4.92480       -9.41050
H         -1.96200        6.14550      -11.39020
H          1.35180        7.36690      -11.89930
H          0.25830        8.69110      -11.51290
H         -0.29160        7.37880      -12.55640
H          1.50310        7.43740       -9.26650
H          0.72540        6.24850       -7.26700
H         -7.24110        7.13170       -9.11180
H         -8.90070        8.47180      -10.30450
H        -10.72480       10.66280       -9.42970
H        -12.07040        9.72520       -8.78120
H        -11.32370        9.27100      -10.32180
H        -11.19360        8.84240       -6.72630
H         -9.52470        7.50990       -5.51860
H         -6.36530        6.35210       -4.02990
H         -7.12360        4.75090       -2.31260
H         -8.39090        2.00970       -2.50830
H        -10.06580        2.51710       -2.72640
H         -9.03830        3.32350       -1.53080
H         -9.99980        3.18790       -5.04840
H         -9.22360        4.76380       -6.76890
H         -5.13770        9.54680       -8.41140
H         -9.42620       10.36320       -3.62560
