
  xtb     02072208323D
 energy: -395.259876457731 gnorm: 0.000292434267 xtb: 6.4.1 (unknown)
225249  0     0  0            999 V2000
    8.4595   -1.0421    6.2736 C   0  0  0  0  0  0  0  0  0  0  0  0
    9.3638   -0.7881    7.2914 C   0  0  0  0  0  0  0  0  0  0  0  0
   10.1899    0.4192    7.3564 C   0  0  0  0  0  0  0  0  0  0  0  0
   10.2153    1.3426    6.5648 O   0  0  0  0  0  0  0  0  0  0  0  0
   11.0900    0.2169    8.5192 C   0  0  0  0  0  0  0  0  0  0  0  0
   10.8327   -1.0399    9.0940 C   0  0  0  0  0  0  0  0  0  0  0  0
   11.5598   -1.4635   10.1919 C   0  0  0  0  0  0  0  0  0  0  0  0
   12.5267   -0.6157   10.7153 C   0  0  0  0  0  0  0  0  0  0  0  0
   12.7621    0.6305   10.1585 C   0  0  0  0  0  0  0  0  0  0  0  0
   14.0676    1.7567   10.9377 Br  0  0  0  0  0  0  0  0  0  0  0  0
   12.0460    1.0686    9.0393 C   0  0  0  0  0  0  0  0  0  0  0  0
   12.3207    2.6168    8.3563 Cl  0  0  0  0  0  0  0  0  0  0  0  0
    9.7352   -1.6673    8.3568 C   0  0  0  0  0  0  0  0  0  0  0  0
    9.0640   -2.8059    8.7374 C   0  0  0  0  0  0  0  0  0  0  0  0
    9.3921   -3.5737    9.8684 C   0  0  0  0  0  0  0  0  0  0  0  0
    9.6052   -4.2241   10.7916 N   0  0  0  0  0  0  0  0  0  0  0  0
    7.9085   -3.2870    8.0919 C   0  0  0  0  0  0  0  0  0  0  0  0
    6.9437   -3.7127    7.6357 N   0  0  0  0  0  0  0  0  0  0  0  0
    7.8048   -0.0909    5.5001 C   0  0  0  0  0  0  0  0  0  0  0  0
    7.5392    1.2839    5.7206 C   0  0  0  0  0  0  0  0  0  0  0  0
    7.6768    1.9542    6.8949 N   0  0  0  0  0  0  0  0  0  0  0  0
    7.6716    1.3195    8.1455 C   0  0  0  0  0  0  0  0  0  0  0  0
    6.8231    0.2450    8.4110 C   0  0  0  0  0  0  0  0  0  0  0  0
    6.8678   -0.3867    9.6350 C   0  0  0  0  0  0  0  0  0  0  0  0
    7.7501    0.0285   10.6308 C   0  0  0  0  0  0  0  0  0  0  0  0
    7.8234   -0.7087   11.9301 C   0  0  0  0  0  0  0  0  0  0  0  0
    8.5536    1.1316   10.3770 C   0  0  0  0  0  0  0  0  0  0  0  0
    8.5179    1.7757    9.1539 C   0  0  0  0  0  0  0  0  0  0  0  0
    7.7666    3.3662    6.8878 C   0  0  0  0  0  0  0  0  0  0  0  0
    8.7187    4.0070    6.1045 C   0  0  0  0  0  0  0  0  0  0  0  0
    8.8158    5.3841    6.1400 C   0  0  0  0  0  0  0  0  0  0  0  0
    7.9647    6.1455    6.9319 C   0  0  0  0  0  0  0  0  0  0  0  0
    8.0539    7.6400    6.9362 C   0  0  0  0  0  0  0  0  0  0  0  0
    7.0178    5.4899    7.7113 C   0  0  0  0  0  0  0  0  0  0  0  0
    6.9197    4.1129    7.6997 C   0  0  0  0  0  0  0  0  0  0  0  0
    6.9218    1.8521    4.5810 C   0  0  0  0  0  0  0  0  0  0  0  0
    6.3754    3.4453    4.1727 S   0  0  0  0  0  0  0  0  0  0  0  0
    5.6523    2.8479    2.6908 C   0  0  0  0  0  0  0  0  0  0  0  0
    5.8566    1.4877    2.5148 C   0  0  0  0  0  0  0  0  0  0  0  0
    5.3772    0.7412    1.4542 N   0  0  0  0  0  0  0  0  0  0  0  0
    4.8980   -0.5560    1.7020 C   0  0  0  0  0  0  0  0  0  0  0  0
    5.1253   -1.5750    0.7821 C   0  0  0  0  0  0  0  0  0  0  0  0
    4.6631   -2.8514    1.0346 C   0  0  0  0  0  0  0  0  0  0  0  0
    3.9750   -3.1491    2.2046 C   0  0  0  0  0  0  0  0  0  0  0  0
    3.5075   -4.5412    2.4975 C   0  0  0  0  0  0  0  0  0  0  0  0
    3.7438   -2.1227    3.1129 C   0  0  0  0  0  0  0  0  0  0  0  0
    4.1895   -0.8398    2.8671 C   0  0  0  0  0  0  0  0  0  0  0  0
    5.2766    1.2809    0.1616 C   0  0  0  0  0  0  0  0  0  0  0  0
    4.1370    1.0430   -0.6048 C   0  0  0  0  0  0  0  0  0  0  0  0
    4.0164    1.5963   -1.8622 C   0  0  0  0  0  0  0  0  0  0  0  0
    5.0308    2.3807   -2.4017 C   0  0  0  0  0  0  0  0  0  0  0  0
    4.8706    2.9962   -3.7576 C   0  0  0  0  0  0  0  0  0  0  0  0
    6.1768    2.5835   -1.6443 C   0  0  0  0  0  0  0  0  0  0  0  0
    6.3001    2.0543   -0.3735 C   0  0  0  0  0  0  0  0  0  0  0  0
    6.6020    0.9399    3.5852 C   0  0  0  0  0  0  0  0  0  0  0  0
    7.1171   -0.6580    3.9683 S   0  0  0  0  0  0  0  0  0  0  0  0
    4.7394    3.5919    1.8541 C   0  0  0  0  0  0  0  0  0  0  0  0
    4.9161    4.5381    0.8684 C   0  0  0  0  0  0  0  0  0  0  0  0
    6.1518    5.2799    0.6222 C   0  0  0  0  0  0  0  0  0  0  0  0
    6.5129    5.6375   -0.6756 C   0  0  0  0  0  0  0  0  0  0  0  0
    7.6827    6.3350   -0.9055 C   0  0  0  0  0  0  0  0  0  0  0  0
    8.5084    6.6832    0.1479 C   0  0  0  0  0  0  0  0  0  0  0  0
    8.1598    6.3499    1.4507 C   0  0  0  0  0  0  0  0  0  0  0  0
    9.0795    6.6812    2.5898 C   0  0  0  0  0  0  0  0  0  0  0  0
   10.1434    5.5902    2.7289 C   0  0  0  0  0  0  0  0  0  0  0  0
    6.9798    5.6588    1.6755 C   0  0  0  0  0  0  0  0  0  0  0  0
    3.7483    4.6546    0.0685 C   0  0  0  0  0  0  0  0  0  0  0  0
    3.3962    5.5089   -1.4173 S   0  0  0  0  0  0  0  0  0  0  0  0
    1.8604    4.7141   -1.5038 C   0  0  0  0  0  0  0  0  0  0  0  0
    0.7957    4.5325   -2.4041 C   0  0  0  0  0  0  0  0  0  0  0  0
    0.6307    4.9241   -3.7513 C   0  0  0  0  0  0  0  0  0  0  0  0
   -0.4458    4.3556   -4.5163 C   0  0  0  0  0  0  0  0  0  0  0  0
   -0.4193    4.7361   -5.7835 N   0  0  0  0  0  0  0  0  0  0  0  0
    0.8425    5.7278   -5.9980 S   0  0  0  0  0  0  0  0  0  0  0  0
    1.4111    5.7050   -4.4815 N   0  0  0  0  0  0  0  0  0  0  0  0
   -1.3876    3.5266   -3.8667 C   0  0  0  0  0  0  0  0  0  0  0  0
   -2.5418    2.8675   -4.3266 C   0  0  0  0  0  0  0  0  0  0  0  0
   -3.3585    2.5075   -5.8136 S   0  0  0  0  0  0  0  0  0  0  0  0
   -4.5131    1.5437   -4.9209 C   0  0  0  0  0  0  0  0  0  0  0  0
   -5.5619    0.6966   -5.3236 C   0  0  0  0  0  0  0  0  0  0  0  0
   -5.8983    0.4698   -6.7362 C   0  0  0  0  0  0  0  0  0  0  0  0
   -5.6812   -0.7738   -7.3209 C   0  0  0  0  0  0  0  0  0  0  0  0
   -5.9807   -0.9646   -8.6566 C   0  0  0  0  0  0  0  0  0  0  0  0
   -6.4800    0.0794   -9.4144 C   0  0  0  0  0  0  0  0  0  0  0  0
   -6.6778    1.3335   -8.8505 C   0  0  0  0  0  0  0  0  0  0  0  0
   -7.1447    2.4893   -9.6868 C   0  0  0  0  0  0  0  0  0  0  0  0
   -5.9424    3.2528  -10.2466 C   0  0  0  0  0  0  0  0  0  0  0  0
   -6.3798    1.5181   -7.5084 C   0  0  0  0  0  0  0  0  0  0  0  0
   -6.1711    0.0960   -4.2377 C   0  0  0  0  0  0  0  0  0  0  0  0
   -5.4344    0.5712   -2.7085 S   0  0  0  0  0  0  0  0  0  0  0  0
   -4.2876    1.5526   -3.5426 C   0  0  0  0  0  0  0  0  0  0  0  0
   -3.1490    2.2905   -3.2079 C   0  0  0  0  0  0  0  0  0  0  0  0
   -2.4095    2.5367   -2.0830 N   0  0  0  0  0  0  0  0  0  0  0  0
   -1.2950    3.2604   -2.4723 C   0  0  0  0  0  0  0  0  0  0  0  0
   -0.1201    3.6432   -1.7781 C   0  0  0  0  0  0  0  0  0  0  0  0
    0.4002    3.2657   -0.5524 N   0  0  0  0  0  0  0  0  0  0  0  0
    1.6059    3.8925   -0.4057 C   0  0  0  0  0  0  0  0  0  0  0  0
    2.6919    3.8475    0.4781 C   0  0  0  0  0  0  0  0  0  0  0  0
    3.1049    2.9279    1.8727 S   0  0  0  0  0  0  0  0  0  0  0  0
    0.0595    2.1400    0.2871 C   0  0  0  0  0  0  0  0  0  0  0  0
    0.0949    0.8232   -0.4836 C   0  0  0  0  0  0  0  0  0  0  0  0
   -3.0249    2.4238   -0.7774 C   0  0  0  0  0  0  0  0  0  0  0  0
   -3.1143    3.7759   -0.0765 C   0  0  0  0  0  0  0  0  0  0  0  0
   -7.2545   -0.8210   -4.1730 C   0  0  0  0  0  0  0  0  0  0  0  0
   -7.8417   -1.2806   -3.0232 C   0  0  0  0  0  0  0  0  0  0  0  0
   -8.8416   -2.2485   -3.2423 C   0  0  0  0  0  0  0  0  0  0  0  0
   -9.6240   -2.9122   -2.2764 C   0  0  0  0  0  0  0  0  0  0  0  0
   -9.6061   -2.4908   -0.8883 C   0  0  0  0  0  0  0  0  0  0  0  0
   -9.4062   -3.6176    0.4212 S   0  0  0  0  0  0  0  0  0  0  0  0
   -9.5121   -2.3705    1.6149 C   0  0  0  0  0  0  0  0  0  0  0  0
   -9.3623   -2.6705    3.0653 C   0  0  0  0  0  0  0  0  0  0  0  0
   -7.8977   -2.5679    3.4981 C   0  0  0  0  0  0  0  0  0  0  0  0
   -9.6853   -1.1566    1.0191 C   0  0  0  0  0  0  0  0  0  0  0  0
   -9.8352    0.3189    1.8832 Cl  0  0  0  0  0  0  0  0  0  0  0  0
   -9.7443   -1.2199   -0.3975 C   0  0  0  0  0  0  0  0  0  0  0  0
  -10.0507    0.1641   -1.3662 Cl  0  0  0  0  0  0  0  0  0  0  0  0
  -10.3988   -3.9703   -2.7269 C   0  0  0  0  0  0  0  0  0  0  0  0
  -10.4845   -4.3389   -4.0995 C   0  0  0  0  0  0  0  0  0  0  0  0
   -9.8067   -3.5772   -5.0874 C   0  0  0  0  0  0  0  0  0  0  0  0
   -9.9609   -3.8660   -6.4926 C   0  0  0  0  0  0  0  0  0  0  0  0
  -11.0827   -4.2892   -7.1572 C   0  0  0  0  0  0  0  0  0  0  0  0
  -10.8773   -4.4736   -8.5354 C   0  0  0  0  0  0  0  0  0  0  0  0
   -9.6039   -4.1988   -8.9366 C   0  0  0  0  0  0  0  0  0  0  0  0
   -9.0101   -4.3163  -10.2972 C   0  0  0  0  0  0  0  0  0  0  0  0
   -8.0085   -5.4709  -10.3680 C   0  0  0  0  0  0  0  0  0  0  0  0
   -8.6280   -3.6866   -7.6027 S   0  0  0  0  0  0  0  0  0  0  0  0
   -8.9794   -2.5668   -4.6168 C   0  0  0  0  0  0  0  0  0  0  0  0
   -7.9503   -1.5546   -5.5986 S   0  0  0  0  0  0  0  0  0  0  0  0
  -11.2385   -5.5075   -4.2858 C   0  0  0  0  0  0  0  0  0  0  0  0
  -11.7684   -6.0245   -3.1234 C   0  0  0  0  0  0  0  0  0  0  0  0
  -11.3480   -5.0231   -1.7291 S   0  0  0  0  0  0  0  0  0  0  0  0
  -12.5299   -7.1750   -2.8465 C   0  0  0  0  0  0  0  0  0  0  0  0
  -12.9408   -8.2169   -3.6385 C   0  0  0  0  0  0  0  0  0  0  0  0
  -12.6728   -8.4462   -5.0733 C   0  0  0  0  0  0  0  0  0  0  0  0
  -12.1839   -7.6931   -5.8883 O   0  0  0  0  0  0  0  0  0  0  0  0
  -13.1498   -9.8205   -5.3515 C   0  0  0  0  0  0  0  0  0  0  0  0
  -13.7359  -10.3625   -4.1946 C   0  0  0  0  0  0  0  0  0  0  0  0
  -14.2392  -11.6539   -4.2136 C   0  0  0  0  0  0  0  0  0  0  0  0
  -14.1520  -12.3838   -5.3897 C   0  0  0  0  0  0  0  0  0  0  0  0
  -13.5790  -11.8426   -6.5302 C   0  0  0  0  0  0  0  0  0  0  0  0
  -13.4907  -12.8889   -8.1015 Br  0  0  0  0  0  0  0  0  0  0  0  0
  -13.0650  -10.5415   -6.5318 C   0  0  0  0  0  0  0  0  0  0  0  0
  -12.3525   -9.8737   -7.9371 Cl  0  0  0  0  0  0  0  0  0  0  0  0
  -13.6743   -9.3629   -3.1299 C   0  0  0  0  0  0  0  0  0  0  0  0
  -14.2566   -9.5046   -1.8968 C   0  0  0  0  0  0  0  0  0  0  0  0
  -14.9666  -10.6526   -1.4839 C   0  0  0  0  0  0  0  0  0  0  0  0
  -15.5539  -11.5518   -1.0785 N   0  0  0  0  0  0  0  0  0  0  0  0
  -14.2809   -8.5434   -0.8627 C   0  0  0  0  0  0  0  0  0  0  0  0
  -14.3712   -7.8307    0.0336 N   0  0  0  0  0  0  0  0  0  0  0  0
    8.2572   -2.0744    6.0146 H   0  0  0  0  0  0  0  0  0  0  0  0
   11.3969   -2.4277   10.6439 H   0  0  0  0  0  0  0  0  0  0  0  0
   13.1042   -0.9245   11.5730 H   0  0  0  0  0  0  0  0  0  0  0  0
    6.1319   -0.0964    7.6551 H   0  0  0  0  0  0  0  0  0  0  0  0
    6.2114   -1.2240    9.8218 H   0  0  0  0  0  0  0  0  0  0  0  0
    6.8284   -0.8455   12.3497 H   0  0  0  0  0  0  0  0  0  0  0  0
    8.2543   -1.6988   11.7778 H   0  0  0  0  0  0  0  0  0  0  0  0
    8.4392   -0.1740   12.6483 H   0  0  0  0  0  0  0  0  0  0  0  0
    9.2299    1.4872   11.1406 H   0  0  0  0  0  0  0  0  0  0  0  0
    9.1537    2.6282    8.9676 H   0  0  0  0  0  0  0  0  0  0  0  0
    9.3970    3.4138    5.5116 H   0  0  0  0  0  0  0  0  0  0  0  0
    9.5766    5.8757    5.5540 H   0  0  0  0  0  0  0  0  0  0  0  0
    9.0446    7.9721    6.6359 H   0  0  0  0  0  0  0  0  0  0  0  0
    7.3300    8.0562    6.2344 H   0  0  0  0  0  0  0  0  0  0  0  0
    7.8300    8.0397    7.9225 H   0  0  0  0  0  0  0  0  0  0  0  0
    6.3517    6.0649    8.3378 H   0  0  0  0  0  0  0  0  0  0  0  0
    6.1885    3.6088    8.3149 H   0  0  0  0  0  0  0  0  0  0  0  0
    5.6678   -1.3590   -0.1265 H   0  0  0  0  0  0  0  0  0  0  0  0
    4.8513   -3.6332    0.3129 H   0  0  0  0  0  0  0  0  0  0  0  0
    3.5044   -5.1499    1.5969 H   0  0  0  0  0  0  0  0  0  0  0  0
    2.5051   -4.5315    2.9212 H   0  0  0  0  0  0  0  0  0  0  0  0
    4.1711   -5.0096    3.2246 H   0  0  0  0  0  0  0  0  0  0  0  0
    3.2027   -2.3312    4.0244 H   0  0  0  0  0  0  0  0  0  0  0  0
    3.9842   -0.0480    3.5734 H   0  0  0  0  0  0  0  0  0  0  0  0
    3.3484    0.4298   -0.1924 H   0  0  0  0  0  0  0  0  0  0  0  0
    3.1178    1.4255   -2.4391 H   0  0  0  0  0  0  0  0  0  0  0  0
    5.8110    3.4129   -4.1091 H   0  0  0  0  0  0  0  0  0  0  0  0
    4.5224    2.2570   -4.4771 H   0  0  0  0  0  0  0  0  0  0  0  0
    4.1320    3.7980   -3.7231 H   0  0  0  0  0  0  0  0  0  0  0  0
    6.9910    3.1657   -2.0496 H   0  0  0  0  0  0  0  0  0  0  0  0
    7.1911    2.2398    0.2083 H   0  0  0  0  0  0  0  0  0  0  0  0
    5.8863    5.3590   -1.5065 H   0  0  0  0  0  0  0  0  0  0  0  0
    7.9521    6.6074   -1.9154 H   0  0  0  0  0  0  0  0  0  0  0  0
    9.4243    7.2254   -0.0384 H   0  0  0  0  0  0  0  0  0  0  0  0
    8.5090    6.7552    3.5174 H   0  0  0  0  0  0  0  0  0  0  0  0
    9.5681    7.6403    2.4048 H   0  0  0  0  0  0  0  0  0  0  0  0
   10.8570    5.8417    3.5103 H   0  0  0  0  0  0  0  0  0  0  0  0
    9.6764    4.6393    2.9754 H   0  0  0  0  0  0  0  0  0  0  0  0
   10.6881    5.4728    1.7945 H   0  0  0  0  0  0  0  0  0  0  0  0
    6.6881    5.4346    2.6904 H   0  0  0  0  0  0  0  0  0  0  0  0
   -5.2718   -1.5810   -6.7321 H   0  0  0  0  0  0  0  0  0  0  0  0
   -5.8198   -1.9329   -9.1068 H   0  0  0  0  0  0  0  0  0  0  0  0
   -6.7127   -0.0761  -10.4583 H   0  0  0  0  0  0  0  0  0  0  0  0
   -7.7596    2.1267  -10.5128 H   0  0  0  0  0  0  0  0  0  0  0  0
   -7.7501    3.1659   -9.0805 H   0  0  0  0  0  0  0  0  0  0  0  0
   -6.2735    4.0957  -10.8486 H   0  0  0  0  0  0  0  0  0  0  0  0
   -5.3204    3.6257   -9.4360 H   0  0  0  0  0  0  0  0  0  0  0  0
   -5.3354    2.5983  -10.8681 H   0  0  0  0  0  0  0  0  0  0  0  0
   -6.5315    2.4864   -7.0526 H   0  0  0  0  0  0  0  0  0  0  0  0
    0.8090    2.1088    1.0817 H   0  0  0  0  0  0  0  0  0  0  0  0
   -0.9086    2.2985    0.7652 H   0  0  0  0  0  0  0  0  0  0  0  0
    1.0877    0.6650   -0.8970 H   0  0  0  0  0  0  0  0  0  0  0  0
   -0.1371   -0.0014    0.1852 H   0  0  0  0  0  0  0  0  0  0  0  0
   -0.6176    0.8220   -1.3042 H   0  0  0  0  0  0  0  0  0  0  0  0
   -4.0335    2.0373   -0.9452 H   0  0  0  0  0  0  0  0  0  0  0  0
   -2.5015    1.6900   -0.1614 H   0  0  0  0  0  0  0  0  0  0  0  0
   -2.1289    4.2084    0.0775 H   0  0  0  0  0  0  0  0  0  0  0  0
   -3.6988    4.4689   -0.6773 H   0  0  0  0  0  0  0  0  0  0  0  0
   -3.6005    3.6585    0.8882 H   0  0  0  0  0  0  0  0  0  0  0  0
   -7.5364   -0.9535   -2.0454 H   0  0  0  0  0  0  0  0  0  0  0  0
   -9.7328   -3.6767    3.2657 H   0  0  0  0  0  0  0  0  0  0  0  0
   -9.9603   -1.9564    3.6351 H   0  0  0  0  0  0  0  0  0  0  0  0
   -7.5208   -1.5646    3.3157 H   0  0  0  0  0  0  0  0  0  0  0  0
   -7.2890   -3.2757    2.9405 H   0  0  0  0  0  0  0  0  0  0  0  0
   -7.8062   -2.7873    4.5583 H   0  0  0  0  0  0  0  0  0  0  0  0
  -12.0372   -4.4217   -6.6816 H   0  0  0  0  0  0  0  0  0  0  0  0
  -11.6500   -4.7997   -9.2086 H   0  0  0  0  0  0  0  0  0  0  0  0
   -8.5008   -3.3840  -10.5547 H   0  0  0  0  0  0  0  0  0  0  0  0
   -9.8131   -4.4795  -11.0188 H   0  0  0  0  0  0  0  0  0  0  0  0
   -7.1984   -5.3098   -9.6603 H   0  0  0  0  0  0  0  0  0  0  0  0
   -8.4978   -6.4108  -10.1239 H   0  0  0  0  0  0  0  0  0  0  0  0
   -7.5892   -5.5462  -11.3680 H   0  0  0  0  0  0  0  0  0  0  0  0
  -11.3658   -5.9907   -5.2359 H   0  0  0  0  0  0  0  0  0  0  0  0
  -12.7967   -7.2518   -1.7990 H   0  0  0  0  0  0  0  0  0  0  0  0
  -14.6873  -12.1039   -3.3441 H   0  0  0  0  0  0  0  0  0  0  0  0
  -14.5347  -13.3922   -5.4239 H   0  0  0  0  0  0  0  0  0  0  0  0
  1  2  2  0  0  0  0
  2  3  1  0  0  0  0
  3  4  2  0  0  0  0
  3  5  1  0  0  0  0
  5  6  2  0  0  0  0
  6  7  1  0  0  0  0
  7  8  2  0  0  0  0
  8  9  1  0  0  0  0
  9 10  1  0  0  0  0
  9 11  2  0  0  0  0
 11 12  1  0  0  0  0
  6 13  1  0  0  0  0
 13 14  2  0  0  0  0
 14 15  1  0  0  0  0
 15 16  3  0  0  0  0
 14 17  1  0  0  0  0
 17 18  3  0  0  0  0
  1 19  1  0  0  0  0
 19 20  2  0  0  0  0
 20 21  1  0  0  0  0
 21 22  1  0  0  0  0
 22 23  2  0  0  0  0
 23 24  1  0  0  0  0
 24 25  2  0  0  0  0
 25 26  1  0  0  0  0
 25 27  1  0  0  0  0
 27 28  2  0  0  0  0
 21 29  1  0  0  0  0
 29 30  2  0  0  0  0
 30 31  1  0  0  0  0
 31 32  2  0  0  0  0
 32 33  1  0  0  0  0
 32 34  1  0  0  0  0
 34 35  2  0  0  0  0
 20 36  1  0  0  0  0
 36 37  1  0  0  0  0
 37 38  1  0  0  0  0
 38 39  2  0  0  0  0
 39 40  1  0  0  0  0
 40 41  1  0  0  0  0
 41 42  2  0  0  0  0
 42 43  1  0  0  0  0
 43 44  2  0  0  0  0
 44 45  1  0  0  0  0
 44 46  1  0  0  0  0
 46 47  2  0  0  0  0
 40 48  1  0  0  0  0
 48 49  2  0  0  0  0
 49 50  1  0  0  0  0
 50 51  2  0  0  0  0
 51 52  1  0  0  0  0
 51 53  1  0  0  0  0
 53 54  2  0  0  0  0
 39 55  1  0  0  0  0
 55 56  1  0  0  0  0
 38 57  1  0  0  0  0
 57 58  2  0  0  0  0
 58 59  1  0  0  0  0
 59 60  2  0  0  0  0
 60 61  1  0  0  0  0
 61 62  2  0  0  0  0
 62 63  1  0  0  0  0
 63 64  1  0  0  0  0
 64 65  1  0  0  0  0
 63 66  2  0  0  0  0
 58 67  1  0  0  0  0
 67 68  1  0  0  0  0
 68 69  1  0  0  0  0
 69 70  1  0  0  0  0
 70 71  1  0  0  0  0
 71 72  1  0  0  0  0
 72 73  2  0  0  0  0
 73 74  1  0  0  0  0
 74 75  1  0  0  0  0
 72 76  1  0  0  0  0
 76 77  1  0  0  0  0
 77 78  1  0  0  0  0
 78 79  1  0  0  0  0
 79 80  1  0  0  0  0
 80 81  1  0  0  0  0
 81 82  2  0  0  0  0
 82 83  1  0  0  0  0
 83 84  2  0  0  0  0
 84 85  1  0  0  0  0
 85 86  1  0  0  0  0
 86 87  1  0  0  0  0
 85 88  2  0  0  0  0
 80 89  2  0  0  0  0
 89 90  1  0  0  0  0
 90 91  1  0  0  0  0
 91 92  1  0  0  0  0
 92 93  1  0  0  0  0
 93 94  1  0  0  0  0
 94 95  1  0  0  0  0
 95 96  1  0  0  0  0
 96 97  1  0  0  0  0
 97 98  1  0  0  0  0
 98 99  1  0  0  0  0
 96100  1  0  0  0  0
100101  1  0  0  0  0
 93102  1  0  0  0  0
102103  1  0  0  0  0
 89104  1  0  0  0  0
104105  2  0  0  0  0
105106  1  0  0  0  0
106107  2  0  0  0  0
107108  1  0  0  0  0
108109  1  0  0  0  0
109110  1  0  0  0  0
110111  1  0  0  0  0
111112  1  0  0  0  0
110113  2  0  0  0  0
113114  1  0  0  0  0
113115  1  0  0  0  0
115116  1  0  0  0  0
107117  1  0  0  0  0
117118  2  0  0  0  0
118119  1  0  0  0  0
119120  1  0  0  0  0
120121  2  0  0  0  0
121122  1  0  0  0  0
122123  2  0  0  0  0
123124  1  0  0  0  0
124125  1  0  0  0  0
123126  1  0  0  0  0
119127  2  0  0  0  0
127128  1  0  0  0  0
118129  1  0  0  0  0
129130  2  0  0  0  0
130131  1  0  0  0  0
130132  1  0  0  0  0
132133  2  0  0  0  0
133134  1  0  0  0  0
134135  2  0  0  0  0
134136  1  0  0  0  0
136137  2  0  0  0  0
137138  1  0  0  0  0
138139  2  0  0  0  0
139140  1  0  0  0  0
140141  1  0  0  0  0
140142  2  0  0  0  0
142143  1  0  0  0  0
137144  1  0  0  0  0
144145  2  0  0  0  0
145146  1  0  0  0  0
146147  3  0  0  0  0
145148  1  0  0  0  0
148149  3  0  0  0  0
 13  2  1  0  0  0  0
 56 19  1  0  0  0  0
 99 57  1  0  0  0  0
128104  1  0  0  0  0
144133  1  0  0  0  0
 11  5  1  0  0  0  0
 28 22  1  0  0  0  0
 35 29  1  0  0  0  0
 55 36  2  0  0  0  0
 66 59  1  0  0  0  0
 98 67  2  0  0  0  0
127106  1  0  0  0  0
142136  1  0  0  0  0
 47 41  1  0  0  0  0
 54 48  1  0  0  0  0
 97 69  2  0  0  0  0
115108  2  0  0  0  0
131117  1  0  0  0  0
 95 70  2  0  0  0  0
126120  1  0  0  0  0
 75 71  2  0  0  0  0
 94 76  2  0  0  0  0
 92 77  2  0  0  0  0
 91 79  2  0  0  0  0
 88 81  1  0  0  0  0
  1150  1  0  0  0  0
  7151  1  0  0  0  0
  8152  1  0  0  0  0
 23153  1  0  0  0  0
 24154  1  0  0  0  0
 26155  1  0  0  0  0
 26156  1  0  0  0  0
 26157  1  0  0  0  0
 27158  1  0  0  0  0
 28159  1  0  0  0  0
 30160  1  0  0  0  0
 31161  1  0  0  0  0
 33162  1  0  0  0  0
 33163  1  0  0  0  0
 33164  1  0  0  0  0
 34165  1  0  0  0  0
 35166  1  0  0  0  0
 42167  1  0  0  0  0
 43168  1  0  0  0  0
 45169  1  0  0  0  0
 45170  1  0  0  0  0
 45171  1  0  0  0  0
 46172  1  0  0  0  0
 47173  1  0  0  0  0
 49174  1  0  0  0  0
 50175  1  0  0  0  0
 52176  1  0  0  0  0
 52177  1  0  0  0  0
 52178  1  0  0  0  0
 53179  1  0  0  0  0
 54180  1  0  0  0  0
 60181  1  0  0  0  0
 61182  1  0  0  0  0
 62183  1  0  0  0  0
 64184  1  0  0  0  0
 64185  1  0  0  0  0
 65186  1  0  0  0  0
 65187  1  0  0  0  0
 65188  1  0  0  0  0
 66189  1  0  0  0  0
 82190  1  0  0  0  0
 83191  1  0  0  0  0
 84192  1  0  0  0  0
 86193  1  0  0  0  0
 86194  1  0  0  0  0
 87195  1  0  0  0  0
 87196  1  0  0  0  0
 87197  1  0  0  0  0
 88198  1  0  0  0  0
100199  1  0  0  0  0
100200  1  0  0  0  0
101201  1  0  0  0  0
101202  1  0  0  0  0
101203  1  0  0  0  0
102204  1  0  0  0  0
102205  1  0  0  0  0
103206  1  0  0  0  0
103207  1  0  0  0  0
103208  1  0  0  0  0
105209  1  0  0  0  0
111210  1  0  0  0  0
111211  1  0  0  0  0
112212  1  0  0  0  0
112213  1  0  0  0  0
112214  1  0  0  0  0
121215  1  0  0  0  0
122216  1  0  0  0  0
124217  1  0  0  0  0
124218  1  0  0  0  0
125219  1  0  0  0  0
125220  1  0  0  0  0
125221  1  0  0  0  0
129222  1  0  0  0  0
132223  1  0  0  0  0
138224  1  0  0  0  0
139225  1  0  0  0  0
M  END
