
  xtb     02072203423D
 energy: -360.026142474813 gnorm: 0.000522906214 xtb: 6.4.1 (unknown)
216238  0     0  0            999 V2000
    2.1207   -0.8216    4.8682 C   0  0  0  0  0  0  0  0  0  0  0  0
    3.3135   -0.5774    4.1921 C   0  0  0  0  0  0  0  0  0  0  0  0
    3.3517   -0.1636    2.7853 C   0  0  0  0  0  0  0  0  0  0  0  0
    2.4107    0.0460    2.0417 O   0  0  0  0  0  0  0  0  0  0  0  0
    4.7796    0.1180    2.4982 C   0  0  0  0  0  0  0  0  0  0  0  0
    5.5367   -0.0636    3.6694 C   0  0  0  0  0  0  0  0  0  0  0  0
    6.9084    0.1139    3.6446 C   0  0  0  0  0  0  0  0  0  0  0  0
    7.5128    0.4679    2.4455 C   0  0  0  0  0  0  0  0  0  0  0  0
    6.7637    0.6417    1.2949 C   0  0  0  0  0  0  0  0  0  0  0  0
    7.6374    1.1004   -0.3165 Br  0  0  0  0  0  0  0  0  0  0  0  0
    5.3757    0.4786    1.3040 C   0  0  0  0  0  0  0  0  0  0  0  0
    4.4515    0.6930   -0.1241 Cl  0  0  0  0  0  0  0  0  0  0  0  0
    4.6284   -0.4761    4.7431 C   0  0  0  0  0  0  0  0  0  0  0  0
    5.0025   -0.8298    6.0198 C   0  0  0  0  0  0  0  0  0  0  0  0
    6.3072   -0.6930    6.5259 C   0  0  0  0  0  0  0  0  0  0  0  0
    7.3508   -0.5759    6.9923 N   0  0  0  0  0  0  0  0  0  0  0  0
    4.1219   -1.3836    6.9667 C   0  0  0  0  0  0  0  0  0  0  0  0
    3.4673   -1.8815    7.7690 N   0  0  0  0  0  0  0  0  0  0  0  0
    1.0354   -1.4129    4.2277 C   0  0  0  0  0  0  0  0  0  0  0  0
   -0.3666   -1.2792    4.4096 C   0  0  0  0  0  0  0  0  0  0  0  0
   -0.9763   -0.4796    5.3262 N   0  0  0  0  0  0  0  0  0  0  0  0
   -2.2601    0.0487    5.0607 C   0  0  0  0  0  0  0  0  0  0  0  0
   -3.2551   -0.0414    6.0280 C   0  0  0  0  0  0  0  0  0  0  0  0
   -4.5029    0.4936    5.7825 C   0  0  0  0  0  0  0  0  0  0  0  0
   -4.7873    1.1280    4.5780 C   0  0  0  0  0  0  0  0  0  0  0  0
   -6.1318    1.7402    4.3437 C   0  0  0  0  0  0  0  0  0  0  0  0
   -3.7854    1.2128    3.6201 C   0  0  0  0  0  0  0  0  0  0  0  0
   -2.5303    0.6849    3.8539 C   0  0  0  0  0  0  0  0  0  0  0  0
   -0.3898   -0.1504    6.5621 C   0  0  0  0  0  0  0  0  0  0  0  0
    0.2484   -1.1168    7.3351 C   0  0  0  0  0  0  0  0  0  0  0  0
    0.8233   -0.7678    8.5408 C   0  0  0  0  0  0  0  0  0  0  0  0
    0.7802    0.5439    9.0028 C   0  0  0  0  0  0  0  0  0  0  0  0
    1.4687    0.9210   10.2744 C   0  0  0  0  0  0  0  0  0  0  0  0
    0.1101    1.4938    8.2402 C   0  0  0  0  0  0  0  0  0  0  0  0
   -0.4739    1.1567    7.0337 C   0  0  0  0  0  0  0  0  0  0  0  0
   -1.0628   -1.9972    3.4153 C   0  0  0  0  0  0  0  0  0  0  0  0
   -2.7391   -2.1778    2.9664 S   0  0  0  0  0  0  0  0  0  0  0  0
   -2.2985   -3.1674    1.5860 C   0  0  0  0  0  0  0  0  0  0  0  0
   -0.9280   -3.3981    1.5347 C   0  0  0  0  0  0  0  0  0  0  0  0
   -0.3129   -4.1970    0.5495 N   0  0  0  0  0  0  0  0  0  0  0  0
    0.5356   -3.5943   -0.3926 C   0  0  0  0  0  0  0  0  0  0  0  0
    0.8483   -2.2381   -0.3562 C   0  0  0  0  0  0  0  0  0  0  0  0
    1.6892   -1.6906   -1.3036 C   0  0  0  0  0  0  0  0  0  0  0  0
    2.2174   -2.4539   -2.3362 C   0  0  0  0  0  0  0  0  0  0  0  0
    3.1479   -1.8368   -3.3372 C   0  0  0  0  0  0  0  0  0  0  0  0
    1.8463   -3.7911   -2.4071 C   0  0  0  0  0  0  0  0  0  0  0  0
    1.0161   -4.3548   -1.4581 C   0  0  0  0  0  0  0  0  0  0  0  0
   -0.0743   -5.5289    0.9733 C   0  0  0  0  0  0  0  0  0  0  0  0
    1.2123   -6.0584    1.0125 C   0  0  0  0  0  0  0  0  0  0  0  0
    1.4168   -7.3521    1.4467 C   0  0  0  0  0  0  0  0  0  0  0  0
    0.3567   -8.1475    1.8687 C   0  0  0  0  0  0  0  0  0  0  0  0
    0.6018   -9.5501    2.3340 C   0  0  0  0  0  0  0  0  0  0  0  0
   -0.9191   -7.6021    1.8516 C   0  0  0  0  0  0  0  0  0  0  0  0
   -1.1369   -6.3095    1.4129 C   0  0  0  0  0  0  0  0  0  0  0  0
   -0.2448   -2.7299    2.5598 C   0  0  0  0  0  0  0  0  0  0  0  0
    1.4221   -2.5356    2.9159 S   0  0  0  0  0  0  0  0  0  0  0  0
   -3.1895   -3.4696    0.5247 C   0  0  0  0  0  0  0  0  0  0  0  0
   -4.4974   -3.0403    0.3134 C   0  0  0  0  0  0  0  0  0  0  0  0
   -5.3983   -2.5464    1.3529 C   0  0  0  0  0  0  0  0  0  0  0  0
   -5.4980   -3.2094    2.5753 C   0  0  0  0  0  0  0  0  0  0  0  0
   -6.3974   -2.7698    3.5267 C   0  0  0  0  0  0  0  0  0  0  0  0
   -7.2234   -1.6909    3.2626 C   0  0  0  0  0  0  0  0  0  0  0  0
   -7.1501   -1.0281    2.0446 C   0  0  0  0  0  0  0  0  0  0  0  0
   -8.1047    0.0775    1.6974 C   0  0  0  0  0  0  0  0  0  0  0  0
   -9.2410   -0.4680    0.8294 C   0  0  0  0  0  0  0  0  0  0  0  0
   -6.2242   -1.4552    1.1055 C   0  0  0  0  0  0  0  0  0  0  0  0
   -4.8444   -3.1288   -1.0495 C   0  0  0  0  0  0  0  0  0  0  0  0
   -6.1531   -2.4495   -2.0090 S   0  0  0  0  0  0  0  0  0  0  0  0
   -5.2394   -2.7550   -3.4559 C   0  0  0  0  0  0  0  0  0  0  0  0
   -5.1422   -2.2734   -4.7768 C   0  0  0  0  0  0  0  0  0  0  0  0
   -5.9656   -1.4082   -5.5323 C   0  0  0  0  0  0  0  0  0  0  0  0
   -5.4146   -0.7543   -6.6910 C   0  0  0  0  0  0  0  0  0  0  0  0
   -6.2828    0.0553   -7.2721 N   0  0  0  0  0  0  0  0  0  0  0  0
   -7.6758   -0.0006   -6.4468 S   0  0  0  0  0  0  0  0  0  0  0  0
   -7.2173   -1.0509   -5.3006 N   0  0  0  0  0  0  0  0  0  0  0  0
   -4.0419   -0.9314   -6.9815 C   0  0  0  0  0  0  0  0  0  0  0  0
   -3.1257   -0.0886   -7.6401 C   0  0  0  0  0  0  0  0  0  0  0  0
   -3.0826    1.5263   -8.2822 S   0  0  0  0  0  0  0  0  0  0  0  0
   -1.3491    1.5905   -7.9987 C   0  0  0  0  0  0  0  0  0  0  0  0
   -0.4155    2.6588   -7.8612 C   0  0  0  0  0  0  0  0  0  0  0  0
   -0.6690    4.0729   -8.1299 C   0  0  0  0  0  0  0  0  0  0  0  0
   -1.9538    4.6071   -8.0668 C   0  0  0  0  0  0  0  0  0  0  0  0
   -2.1586    5.9515   -8.3126 C   0  0  0  0  0  0  0  0  0  0  0  0
   -1.0937    6.7795   -8.6191 C   0  0  0  0  0  0  0  0  0  0  0  0
    0.1965    6.2677   -8.6843 C   0  0  0  0  0  0  0  0  0  0  0  0
    1.3544    7.1481   -9.0586 C   0  0  0  0  0  0  0  0  0  0  0  0
    1.5487    7.1603  -10.5759 C   0  0  0  0  0  0  0  0  0  0  0  0
    0.3938    4.9176   -8.4461 C   0  0  0  0  0  0  0  0  0  0  0  0
    0.7825    2.2075   -7.3583 C   0  0  0  0  0  0  0  0  0  0  0  0
    0.8190    0.4649   -7.1390 S   0  0  0  0  0  0  0  0  0  0  0  0
   -0.8457    0.3604   -7.5897 C   0  0  0  0  0  0  0  0  0  0  0  0
   -1.8532   -0.5912   -7.3683 C   0  0  0  0  0  0  0  0  0  0  0  0
   -1.9452   -1.7446   -6.6425 N   0  0  0  0  0  0  0  0  0  0  0  0
   -3.2766   -1.9313   -6.3174 C   0  0  0  0  0  0  0  0  0  0  0  0
   -3.8653   -2.6769   -5.2636 C   0  0  0  0  0  0  0  0  0  0  0  0
   -3.2725   -3.5076   -4.3216 N   0  0  0  0  0  0  0  0  0  0  0  0
   -4.0694   -3.4732   -3.2062 C   0  0  0  0  0  0  0  0  0  0  0  0
   -3.8425   -3.6875   -1.8456 C   0  0  0  0  0  0  0  0  0  0  0  0
   -2.4530   -4.1420   -0.9331 S   0  0  0  0  0  0  0  0  0  0  0  0
   -2.3663   -4.6271   -4.4996 C   0  0  0  0  0  0  0  0  0  0  0  0
   -2.6765   -5.3984   -5.7781 C   0  0  0  0  0  0  0  0  0  0  0  0
   -0.7516   -2.3431   -6.0967 C   0  0  0  0  0  0  0  0  0  0  0  0
   -0.4614   -1.8397   -4.6843 C   0  0  0  0  0  0  0  0  0  0  0  0
    1.7648    2.8895   -6.5005 C   0  0  0  0  0  0  0  0  0  0  0  0
    1.2959    3.0978   -5.1977 C   0  0  0  0  0  0  0  0  0  0  0  0
    2.1845    3.3920   -4.1949 C   0  0  0  0  0  0  0  0  0  0  0  0
    1.9366    3.4481   -2.7044 C   0  0  0  0  0  0  0  0  0  0  0  0
    1.5271    2.0667   -2.1463 C   0  0  0  0  0  0  0  0  0  0  0  0
    0.1603    1.5400   -2.5641 C   0  0  0  0  0  0  0  0  0  0  0  0
    0.9203    4.5710   -2.4180 C   0  0  0  0  0  0  0  0  0  0  0  0
    0.5254    4.7537   -0.9595 C   0  0  0  0  0  0  0  0  0  0  0  0
    3.3298    3.7538   -2.1933 C   0  0  0  0  0  0  0  0  0  0  0  0
    4.2394    3.8880   -3.2609 C   0  0  0  0  0  0  0  0  0  0  0  0
    3.5353    3.6306   -4.5013 C   0  0  0  0  0  0  0  0  0  0  0  0
    3.9858    3.5228   -5.8095 C   0  0  0  0  0  0  0  0  0  0  0  0
    3.1046    3.1071   -6.7968 C   0  0  0  0  0  0  0  0  0  0  0  0
    5.5824    4.1417   -3.0109 C   0  0  0  0  0  0  0  0  0  0  0  0
    6.0152    4.2202   -1.7053 C   0  0  0  0  0  0  0  0  0  0  0  0
    5.1319    4.0407   -0.6265 C   0  0  0  0  0  0  0  0  0  0  0  0
    3.7731    3.7954   -0.8960 C   0  0  0  0  0  0  0  0  0  0  0  0
    5.6762    3.9803    0.6971 C   0  0  0  0  0  0  0  0  0  0  0  0
    5.0654    3.9430    1.9121 C   0  0  0  0  0  0  0  0  0  0  0  0
    5.8027    3.4002    3.0830 C   0  0  0  0  0  0  0  0  0  0  0  0
    6.9886    3.1690    3.1539 O   0  0  0  0  0  0  0  0  0  0  0  0
    4.7671    3.1185    4.1034 C   0  0  0  0  0  0  0  0  0  0  0  0
    4.9056    2.5194    5.3401 C   0  0  0  0  0  0  0  0  0  0  0  0
    3.7409    2.3066    6.0627 C   0  0  0  0  0  0  0  0  0  0  0  0
    3.8214    1.7231    7.2723 F   0  0  0  0  0  0  0  0  0  0  0  0
    2.4868    2.6543    5.5837 C   0  0  0  0  0  0  0  0  0  0  0  0
    2.3645    3.2875    4.3567 C   0  0  0  0  0  0  0  0  0  0  0  0
    3.5132    3.5361    3.6223 C   0  0  0  0  0  0  0  0  0  0  0  0
    3.7188    4.2387    2.3579 C   0  0  0  0  0  0  0  0  0  0  0  0
    2.9166    5.2381    1.8780 C   0  0  0  0  0  0  0  0  0  0  0  0
    1.6633    5.5651    2.4331 C   0  0  0  0  0  0  0  0  0  0  0  0
    0.6314    5.8459    2.8497 N   0  0  0  0  0  0  0  0  0  0  0  0
    3.3201    6.0901    0.8262 C   0  0  0  0  0  0  0  0  0  0  0  0
    3.6398    6.8231    0.0038 N   0  0  0  0  0  0  0  0  0  0  0  0
    2.0407   -0.5418    5.9109 H   0  0  0  0  0  0  0  0  0  0  0  0
    7.5148   -0.0107    4.5261 H   0  0  0  0  0  0  0  0  0  0  0  0
    8.5802    0.6172    2.4071 H   0  0  0  0  0  0  0  0  0  0  0  0
   -3.0414   -0.5320    6.9660 H   0  0  0  0  0  0  0  0  0  0  0  0
   -5.2709    0.4178    6.5380 H   0  0  0  0  0  0  0  0  0  0  0  0
   -6.1866    2.7131    4.8335 H   0  0  0  0  0  0  0  0  0  0  0  0
   -6.9166    1.1125    4.7586 H   0  0  0  0  0  0  0  0  0  0  0  0
   -6.3132    1.8822    3.2824 H   0  0  0  0  0  0  0  0  0  0  0  0
   -3.9847    1.7075    2.6813 H   0  0  0  0  0  0  0  0  0  0  0  0
   -1.7519    0.7733    3.1101 H   0  0  0  0  0  0  0  0  0  0  0  0
    0.2938   -2.1375    6.9851 H   0  0  0  0  0  0  0  0  0  0  0  0
    1.3273   -1.5218    9.1236 H   0  0  0  0  0  0  0  0  0  0  0  0
    1.0824    1.8574   10.6694 H   0  0  0  0  0  0  0  0  0  0  0  0
    2.5349    1.0433   10.0818 H   0  0  0  0  0  0  0  0  0  0  0  0
    1.3542    0.1412   11.0235 H   0  0  0  0  0  0  0  0  0  0  0  0
    0.0531    2.5153    8.5889 H   0  0  0  0  0  0  0  0  0  0  0  0
   -0.9893    1.9025    6.4450 H   0  0  0  0  0  0  0  0  0  0  0  0
    0.4562   -1.5973    0.4166 H   0  0  0  0  0  0  0  0  0  0  0  0
    1.9513   -0.6476   -1.2233 H   0  0  0  0  0  0  0  0  0  0  0  0
    4.0331   -1.4450   -2.8373 H   0  0  0  0  0  0  0  0  0  0  0  0
    2.6659   -1.0058   -3.8526 H   0  0  0  0  0  0  0  0  0  0  0  0
    3.4660   -2.5664   -4.0780 H   0  0  0  0  0  0  0  0  0  0  0  0
    2.2169   -4.4079   -3.2146 H   0  0  0  0  0  0  0  0  0  0  0  0
    0.7381   -5.3955   -1.5335 H   0  0  0  0  0  0  0  0  0  0  0  0
    2.0507   -5.4492    0.7091 H   0  0  0  0  0  0  0  0  0  0  0  0
    2.4213   -7.7497    1.4708 H   0  0  0  0  0  0  0  0  0  0  0  0
   -0.3213  -10.0174    2.6670 H   0  0  0  0  0  0  0  0  0  0  0  0
    1.3139   -9.5581    3.1581 H   0  0  0  0  0  0  0  0  0  0  0  0
    1.0225  -10.1490    1.5269 H   0  0  0  0  0  0  0  0  0  0  0  0
   -1.7590   -8.1950    2.1843 H   0  0  0  0  0  0  0  0  0  0  0  0
   -2.1374   -5.9045    1.4109 H   0  0  0  0  0  0  0  0  0  0  0  0
   -4.8904   -4.0822    2.7639 H   0  0  0  0  0  0  0  0  0  0  0  0
   -6.4688   -3.2840    4.4736 H   0  0  0  0  0  0  0  0  0  0  0  0
   -7.9415   -1.3707    4.0037 H   0  0  0  0  0  0  0  0  0  0  0  0
   -8.5228    0.5138    2.6061 H   0  0  0  0  0  0  0  0  0  0  0  0
   -7.5817    0.8613    1.1454 H   0  0  0  0  0  0  0  0  0  0  0  0
   -8.8453   -0.8918   -0.0906 H   0  0  0  0  0  0  0  0  0  0  0  0
   -9.7805   -1.2485    1.3614 H   0  0  0  0  0  0  0  0  0  0  0  0
   -9.9394    0.3257    0.5751 H   0  0  0  0  0  0  0  0  0  0  0  0
   -6.1451   -0.9307    0.1651 H   0  0  0  0  0  0  0  0  0  0  0  0
   -2.7915    3.9777   -7.8118 H   0  0  0  0  0  0  0  0  0  0  0  0
   -3.1587    6.3562   -8.2609 H   0  0  0  0  0  0  0  0  0  0  0  0
   -1.2625    7.8299   -8.8082 H   0  0  0  0  0  0  0  0  0  0  0  0
    1.1715    8.1667   -8.7108 H   0  0  0  0  0  0  0  0  0  0  0  0
    2.2654    6.7822   -8.5802 H   0  0  0  0  0  0  0  0  0  0  0  0
    0.6542    7.5348  -11.0686 H   0  0  0  0  0  0  0  0  0  0  0  0
    2.3876    7.7967  -10.8477 H   0  0  0  0  0  0  0  0  0  0  0  0
    1.7426    6.1539  -10.9403 H   0  0  0  0  0  0  0  0  0  0  0  0
    1.3917    4.5112   -8.5156 H   0  0  0  0  0  0  0  0  0  0  0  0
   -1.3235   -4.3066   -4.4661 H   0  0  0  0  0  0  0  0  0  0  0  0
   -2.5185   -5.2814   -3.6367 H   0  0  0  0  0  0  0  0  0  0  0  0
   -1.9912   -6.2360   -5.8783 H   0  0  0  0  0  0  0  0  0  0  0  0
   -3.6935   -5.7833   -5.7464 H   0  0  0  0  0  0  0  0  0  0  0  0
   -2.5841   -4.7629   -6.6560 H   0  0  0  0  0  0  0  0  0  0  0  0
   -0.8337   -3.4278   -6.1352 H   0  0  0  0  0  0  0  0  0  0  0  0
    0.0732   -2.0571   -6.7552 H   0  0  0  0  0  0  0  0  0  0  0  0
    0.3902   -2.3649   -4.2623 H   0  0  0  0  0  0  0  0  0  0  0  0
   -0.2305   -0.7784   -4.7132 H   0  0  0  0  0  0  0  0  0  0  0  0
   -1.3168   -1.9810   -4.0292 H   0  0  0  0  0  0  0  0  0  0  0  0
    0.2440    2.9601   -4.9995 H   0  0  0  0  0  0  0  0  0  0  0  0
    2.2925    1.3532   -2.4660 H   0  0  0  0  0  0  0  0  0  0  0  0
    1.5643    2.1160   -1.0567 H   0  0  0  0  0  0  0  0  0  0  0  0
   -0.6290    2.2483   -2.3277 H   0  0  0  0  0  0  0  0  0  0  0  0
    0.1333    1.3257   -3.6284 H   0  0  0  0  0  0  0  0  0  0  0  0
   -0.0451    0.6119   -2.0338 H   0  0  0  0  0  0  0  0  0  0  0  0
    1.3510    5.5064   -2.7842 H   0  0  0  0  0  0  0  0  0  0  0  0
    0.0248    4.3723   -3.0098 H   0  0  0  0  0  0  0  0  0  0  0  0
   -0.2474    5.5157   -0.8852 H   0  0  0  0  0  0  0  0  0  0  0  0
    0.1373    3.8357   -0.5264 H   0  0  0  0  0  0  0  0  0  0  0  0
    1.3753    5.0907   -0.3754 H   0  0  0  0  0  0  0  0  0  0  0  0
    5.0208    3.7109   -6.0520 H   0  0  0  0  0  0  0  0  0  0  0  0
    3.4640    2.9365   -7.8015 H   0  0  0  0  0  0  0  0  0  0  0  0
    6.2824    4.2498   -3.8251 H   0  0  0  0  0  0  0  0  0  0  0  0
    7.0588    4.4025   -1.4973 H   0  0  0  0  0  0  0  0  0  0  0  0
    3.1019    3.5686   -0.0833 H   0  0  0  0  0  0  0  0  0  0  0  0
    6.7514    3.8299    0.7434 H   0  0  0  0  0  0  0  0  0  0  0  0
    5.8715    2.2361    5.7281 H   0  0  0  0  0  0  0  0  0  0  0  0
    1.6186    2.4312    6.1844 H   0  0  0  0  0  0  0  0  0  0  0  0
    1.3900    3.5652    3.9885 H   0  0  0  0  0  0  0  0  0  0  0  0
  1  2  2  0  0  0  0
  2  3  1  0  0  0  0
  3  4  2  0  0  0  0
  3  5  1  0  0  0  0
  5  6  2  0  0  0  0
  6  7  1  0  0  0  0
  7  8  2  0  0  0  0
  8  9  1  0  0  0  0
  9 10  1  0  0  0  0
  9 11  2  0  0  0  0
 11 12  1  0  0  0  0
  6 13  1  0  0  0  0
 13 14  2  0  0  0  0
 14 15  1  0  0  0  0
 15 16  3  0  0  0  0
 14 17  1  0  0  0  0
 17 18  3  0  0  0  0
  1 19  1  0  0  0  0
 19 20  2  0  0  0  0
 20 21  1  0  0  0  0
 21 22  1  0  0  0  0
 22 23  2  0  0  0  0
 23 24  1  0  0  0  0
 24 25  2  0  0  0  0
 25 26  1  0  0  0  0
 25 27  1  0  0  0  0
 27 28  2  0  0  0  0
 21 29  1  0  0  0  0
 29 30  2  0  0  0  0
 30 31  1  0  0  0  0
 31 32  2  0  0  0  0
 32 33  1  0  0  0  0
 32 34  1  0  0  0  0
 34 35  2  0  0  0  0
 20 36  1  0  0  0  0
 36 37  1  0  0  0  0
 37 38  1  0  0  0  0
 38 39  2  0  0  0  0
 39 40  1  0  0  0  0
 40 41  1  0  0  0  0
 41 42  2  0  0  0  0
 42 43  1  0  0  0  0
 43 44  2  0  0  0  0
 44 45  1  0  0  0  0
 44 46  1  0  0  0  0
 46 47  2  0  0  0  0
 40 48  1  0  0  0  0
 48 49  2  0  0  0  0
 49 50  1  0  0  0  0
 50 51  2  0  0  0  0
 51 52  1  0  0  0  0
 51 53  1  0  0  0  0
 53 54  2  0  0  0  0
 39 55  1  0  0  0  0
 55 56  1  0  0  0  0
 38 57  1  0  0  0  0
 57 58  2  0  0  0  0
 58 59  1  0  0  0  0
 59 60  2  0  0  0  0
 60 61  1  0  0  0  0
 61 62  2  0  0  0  0
 62 63  1  0  0  0  0
 63 64  1  0  0  0  0
 64 65  1  0  0  0  0
 63 66  2  0  0  0  0
 58 67  1  0  0  0  0
 67 68  1  0  0  0  0
 68 69  1  0  0  0  0
 69 70  1  0  0  0  0
 70 71  1  0  0  0  0
 71 72  1  0  0  0  0
 72 73  2  0  0  0  0
 73 74  1  0  0  0  0
 74 75  1  0  0  0  0
 72 76  1  0  0  0  0
 76 77  1  0  0  0  0
 77 78  1  0  0  0  0
 78 79  1  0  0  0  0
 79 80  1  0  0  0  0
 80 81  1  0  0  0  0
 81 82  2  0  0  0  0
 82 83  1  0  0  0  0
 83 84  2  0  0  0  0
 84 85  1  0  0  0  0
 85 86  1  0  0  0  0
 86 87  1  0  0  0  0
 85 88  2  0  0  0  0
 80 89  2  0  0  0  0
 89 90  1  0  0  0  0
 90 91  1  0  0  0  0
 91 92  1  0  0  0  0
 92 93  1  0  0  0  0
 93 94  1  0  0  0  0
 94 95  1  0  0  0  0
 95 96  1  0  0  0  0
 96 97  1  0  0  0  0
 97 98  1  0  0  0  0
 98 99  1  0  0  0  0
 96100  1  0  0  0  0
100101  1  0  0  0  0
 93102  1  0  0  0  0
102103  1  0  0  0  0
 89104  1  0  0  0  0
104105  2  0  0  0  0
105106  1  0  0  0  0
106107  1  0  0  0  0
107108  1  0  0  0  0
108109  1  0  0  0  0
107110  1  0  0  0  0
110111  1  0  0  0  0
107112  1  0  0  0  0
112113  2  0  0  0  0
113114  1  0  0  0  0
114115  1  0  0  0  0
115116  2  0  0  0  0
113117  1  0  0  0  0
117118  2  0  0  0  0
118119  1  0  0  0  0
119120  2  0  0  0  0
119121  1  0  0  0  0
121122  2  0  0  0  0
122123  1  0  0  0  0
123124  2  0  0  0  0
123125  1  0  0  0  0
125126  2  0  0  0  0
126127  1  0  0  0  0
127128  1  0  0  0  0
127129  2  0  0  0  0
129130  1  0  0  0  0
130131  2  0  0  0  0
131132  1  0  0  0  0
132133  2  0  0  0  0
133134  1  0  0  0  0
134135  3  0  0  0  0
133136  1  0  0  0  0
136137  3  0  0  0  0
 13  2  1  0  0  0  0
 56 19  1  0  0  0  0
 99 57  1  0  0  0  0
116104  1  0  0  0  0
132122  1  0  0  0  0
 11  5  1  0  0  0  0
 28 22  1  0  0  0  0
 35 29  1  0  0  0  0
 55 36  2  0  0  0  0
 66 59  1  0  0  0  0
 98 67  2  0  0  0  0
114106  2  0  0  0  0
131125  1  0  0  0  0
 47 41  1  0  0  0  0
 54 48  1  0  0  0  0
 97 69  2  0  0  0  0
120112  1  0  0  0  0
 95 70  2  0  0  0  0
 75 71  2  0  0  0  0
 94 76  2  0  0  0  0
 92 77  2  0  0  0  0
 91 79  2  0  0  0  0
 88 81  1  0  0  0  0
  1138  1  0  0  0  0
  7139  1  0  0  0  0
  8140  1  0  0  0  0
 23141  1  0  0  0  0
 24142  1  0  0  0  0
 26143  1  0  0  0  0
 26144  1  0  0  0  0
 26145  1  0  0  0  0
 27146  1  0  0  0  0
 28147  1  0  0  0  0
 30148  1  0  0  0  0
 31149  1  0  0  0  0
 33150  1  0  0  0  0
 33151  1  0  0  0  0
 33152  1  0  0  0  0
 34153  1  0  0  0  0
 35154  1  0  0  0  0
 42155  1  0  0  0  0
 43156  1  0  0  0  0
 45157  1  0  0  0  0
 45158  1  0  0  0  0
 45159  1  0  0  0  0
 46160  1  0  0  0  0
 47161  1  0  0  0  0
 49162  1  0  0  0  0
 50163  1  0  0  0  0
 52164  1  0  0  0  0
 52165  1  0  0  0  0
 52166  1  0  0  0  0
 53167  1  0  0  0  0
 54168  1  0  0  0  0
 60169  1  0  0  0  0
 61170  1  0  0  0  0
 62171  1  0  0  0  0
 64172  1  0  0  0  0
 64173  1  0  0  0  0
 65174  1  0  0  0  0
 65175  1  0  0  0  0
 65176  1  0  0  0  0
 66177  1  0  0  0  0
 82178  1  0  0  0  0
 83179  1  0  0  0  0
 84180  1  0  0  0  0
 86181  1  0  0  0  0
 86182  1  0  0  0  0
 87183  1  0  0  0  0
 87184  1  0  0  0  0
 87185  1  0  0  0  0
 88186  1  0  0  0  0
100187  1  0  0  0  0
100188  1  0  0  0  0
101189  1  0  0  0  0
101190  1  0  0  0  0
101191  1  0  0  0  0
102192  1  0  0  0  0
102193  1  0  0  0  0
103194  1  0  0  0  0
103195  1  0  0  0  0
103196  1  0  0  0  0
105197  1  0  0  0  0
108198  1  0  0  0  0
108199  1  0  0  0  0
109200  1  0  0  0  0
109201  1  0  0  0  0
109202  1  0  0  0  0
110203  1  0  0  0  0
110204  1  0  0  0  0
111205  1  0  0  0  0
111206  1  0  0  0  0
111207  1  0  0  0  0
115208  1  0  0  0  0
116209  1  0  0  0  0
117210  1  0  0  0  0
118211  1  0  0  0  0
120212  1  0  0  0  0
121213  1  0  0  0  0
126214  1  0  0  0  0
129215  1  0  0  0  0
130216  1  0  0  0  0
M  END
