199

C          1.76340       -8.59480        7.16130
C          0.74770       -8.83880        8.07190
C         -0.32510       -7.91810        8.42800
O         -0.54280       -6.80390        7.98500
C         -1.10600       -8.59480        9.48840
C         -0.51520       -9.83840        9.77450
C         -1.06340      -10.65340       10.75040
C         -2.19680      -10.21630       11.42290
C         -2.78060       -8.99510       11.12810
Br        -4.33320       -8.46310       12.06790
C         -2.24040       -8.15610       10.14740
Cl        -2.95950       -6.64800        9.77060
C          0.63050      -10.02230        8.87990
C          1.40690      -11.15820        8.82750
C          2.41030      -11.42170        7.87730
N          3.21440      -11.73610        7.11730
C          1.27650      -12.24630        9.71160
N          1.23780      -13.16010       10.40710
C          1.95290       -7.53330        6.29100
C          3.03630       -7.46800        5.36270
N          4.16200       -8.23190        5.42180
C          4.72430       -8.66670        6.63970
C          4.69410       -7.85710        7.77200
C          5.24700       -8.30520        8.95480
C          5.85640       -9.55230        9.03630
C          6.43540      -10.05220       10.32320
C          5.91110      -10.33710        7.89040
C          5.35080       -9.90860        6.70380
C          4.89220       -8.48450        4.24130
C          6.26940       -8.28980        4.21620
C          6.98350       -8.56740        3.06870
C          6.34980       -9.05110        1.92980
C          7.12910       -9.33970        0.68580
C          4.97470       -9.24480        1.96860
C          4.24590       -8.96060        3.10580
C          2.80020       -6.47780        4.39470
S          3.62560       -5.92000        2.97030
C          2.41590       -4.65620        2.72810
C          1.47580       -4.63690        3.75420
N          0.42180       -3.73820        3.92060
C         -0.78790       -4.31120        4.37000
C         -1.30060       -5.41680        3.69970
C         -2.43820       -6.04700        4.16600
C         -3.09430       -5.58920        5.30030
C         -4.30250       -6.29020        5.83940
C         -2.58690       -4.46940        5.95020
C         -1.44800       -3.83610        5.49980
C          0.67190       -2.38210        4.14250
C         -0.34380       -1.44880        3.93800
C         -0.09910       -0.10330        4.11870
C          1.15690        0.35680        4.49540
C          1.43260        1.81950        4.67140
C          2.16170       -0.57860        4.70910
C          1.92870       -1.92920        4.54430
C          1.67110       -5.71080        4.65120
S          0.79860       -6.21730        6.04950
C          2.51570       -3.83910        1.56600
C          3.12600       -4.16060        0.36100
C          3.58460       -5.48350       -0.07240
C          4.80270       -5.62700       -0.72740
C          5.15220       -6.84960       -1.26830
C          4.29160       -7.92840       -1.17270
C          3.07380       -7.80440       -0.51570
C          2.10120       -8.94850       -0.46190
C          1.07640       -8.82910       -1.59160
C          2.73290       -6.57870        0.03250
C          3.09180       -3.08020       -0.54020
S          3.66390       -2.89380       -2.18160
C          2.97770       -1.30340       -2.21320
C          2.87180       -0.20600       -3.08300
C          3.44260        0.04570       -4.34970
C          3.23680        1.32810       -4.96280
N          3.87550        1.44570       -6.11610
S          4.66450        0.06230       -6.40890
N          4.22150       -0.74130       -5.07510
C          2.35970        2.24690       -4.34570
C          1.81680        3.45910       -4.80410
S          1.92160        4.50950       -6.17630
C          0.61370        5.46520       -5.51640
C         -0.07030        6.60310       -5.98810
C          0.30410        7.31270       -7.21270
C          0.56530        6.60410       -8.38150
C          0.93830        7.28130       -9.52780
C          1.05890        8.65930       -9.51770
C          0.81220        9.38220       -8.35590
C          0.98840       10.87310       -8.32530
C          2.41750       11.23330       -7.91530
C          0.44250        8.69790       -7.20920
C         -1.08170        6.97370       -5.11650
S         -1.14850        5.95120       -3.68850
C          0.15500        4.99080       -4.28490
C          0.85020        3.84770       -3.87420
N          0.80840        2.95840       -2.83160
C          1.72930        1.95750       -3.10360
C          2.10000        0.77970       -2.40560
N          1.81220        0.31500       -1.13430
C          2.33520       -0.94630       -1.02470
C          2.41700       -1.95740       -0.05980
S          1.85930       -2.20690        1.55300
C          1.45570        1.05560        0.05560
C          0.08530        0.66460        0.60570
C         -0.39440        2.89340       -2.03030
C         -1.38000        1.87910       -2.60670
C         -2.10530        7.95170       -5.27880
S         -3.00460        8.48980       -3.86700
C         -4.03840        9.48200       -4.86000
C         -5.08760       10.24910       -4.42630
C         -5.82310       10.95270       -5.39210
C         -6.94370       11.77260       -5.21040
C         -7.45580       12.29960       -6.38660
S         -6.52270       11.78940       -7.78440
C         -5.46120       10.86100       -6.76710
C         -4.39570       10.09580       -7.19090
C         -3.66950        9.38800       -6.23460
C         -2.57490        8.51650       -6.43300
C         -8.59710       13.12310       -6.38320
C         -9.29000       13.70580       -7.41130
C         -8.97300       13.58980       -8.84360
O         -8.03320       13.01700       -9.35370
C        -10.04290       14.32520       -9.55250
C        -10.93730       14.87130       -8.61360
C        -12.03280       15.60160       -9.04740
C        -12.21790       15.77590      -10.41100
C        -11.33230       15.23720      -11.33170
Br       -11.64140       15.51030      -13.17500
C        -10.21990       14.49660      -10.91600
Cl        -9.12470       13.82690      -12.04750
C        -10.48290       14.51700       -7.26950
C        -11.09450       14.90980       -6.10630
C        -12.25750       15.70710       -6.05080
N        -13.19750       16.35480       -5.92860
C        -10.66900       14.59620       -4.79810
N        -10.39790       14.39350       -3.70020
H          2.52110       -9.36470        7.09650
H         -0.63620      -11.61010       10.99960
H         -2.63820      -10.83670       12.18750
H          4.23260       -6.88170        7.72330
H          5.21080       -7.66960        9.82770
H          6.43090       -9.27510       11.08320
H          5.85400      -10.89800       10.69000
H          7.45830      -10.39410       10.17540
H          6.38240      -11.30720        7.93140
H          5.38360      -10.53660        5.82780
H          6.77100       -7.92120        5.09870
H          8.05180       -8.40820        3.05790
H          6.66430      -10.13850        0.11320
H          7.15810       -8.44840        0.05910
H          8.15200       -9.62180        0.92340
H          4.46820       -9.63280        1.09970
H          3.17900       -9.12690        3.12950
H         -0.79130       -5.78780        2.82130
H         -2.81690       -6.91280        3.64140
H         -5.10420       -5.58080        6.03790
H         -4.05390       -6.78150        6.78000
H         -4.66330       -7.04350        5.14350
H         -3.08030       -4.10290        6.83830
H         -1.04960       -2.98740        6.03510
H         -1.32080       -1.78880        3.62900
H         -0.90090        0.60340        3.95790
H          1.76490        2.02460        5.68820
H          0.54200        2.41090        4.47380
H          2.22280        2.14270        3.99410
H          3.14260       -0.24440        5.01580
H          2.72100       -2.64040        4.72660
H          5.46820       -4.78150       -0.81250
H          6.09360       -6.95460       -1.78770
H          4.56310       -8.87410       -1.62000
H          1.58080       -8.94680        0.49840
H          2.63100       -9.89800       -0.56240
H          1.57650       -8.84240       -2.55740
H          0.52470       -7.89560       -1.50680
H          0.37030       -9.65540       -1.55400
H          1.77790       -6.46030        0.52580
H          0.45960        5.53010       -8.39380
H          1.13430        6.72920      -10.43500
H          1.34720        9.18170      -10.41840
H          0.78090       11.29020       -9.31260
H          0.28690       11.31340       -7.61350
H          2.63930       10.83540       -6.92760
H          2.54580       12.31290       -7.89220
H          3.13080       10.81310       -8.62070
H          0.26040        9.24560       -6.29530
H          1.52100        2.12170       -0.16760
H          2.20750        0.83410        0.82240
H         -0.18490        1.33390        1.41740
H         -0.68180        0.70550       -0.16180
H          0.11670       -0.34640        1.00160
H         -0.83960        3.89130       -2.05140
H         -0.16440        2.65590       -0.99600
H         -2.28560        1.85690       -2.00660
H         -1.64630        2.15230       -3.62520
H         -0.93960        0.88420       -2.62310
H         -5.35470       10.30760       -3.38320
H         -7.38320       11.97600       -4.24910
H         -4.13140       10.03440       -8.23450
H         -2.17010        8.29440       -7.40340
H         -8.98140       13.29490       -5.38480
H        -12.73980       16.03190       -8.35850
H        -13.06550       16.34010      -10.76840
