
  xtb     02072212423D
 energy: -352.930199912296 gnorm: 0.000442034663 xtb: 6.4.1 (unknown)
206227  0     0  0            999 V2000
    9.0129    2.4202   -5.8754 C   0  0  0  0  0  0  0  0  0  0  0  0
    9.1606    3.3597   -6.8836 C   0  0  0  0  0  0  0  0  0  0  0  0
    8.0538    4.1674   -7.4020 C   0  0  0  0  0  0  0  0  0  0  0  0
    6.8902    4.1466   -7.0474 O   0  0  0  0  0  0  0  0  0  0  0  0
    8.6222    4.9236   -8.5459 C   0  0  0  0  0  0  0  0  0  0  0  0
    9.9731    4.5722   -8.7114 C   0  0  0  0  0  0  0  0  0  0  0  0
   10.7192    5.1410   -9.7280 C   0  0  0  0  0  0  0  0  0  0  0  0
   10.1091    6.0711  -10.5589 C   0  0  0  0  0  0  0  0  0  0  0  0
    8.7835    6.4297  -10.3788 C   0  0  0  0  0  0  0  0  0  0  0  0
    8.0172    7.7295  -11.5203 Br  0  0  0  0  0  0  0  0  0  0  0  0
    8.0103    5.8534   -9.3652 C   0  0  0  0  0  0  0  0  0  0  0  0
    6.3738    6.3059   -9.1269 Cl  0  0  0  0  0  0  0  0  0  0  0  0
   10.3325    3.6185   -7.6612 C   0  0  0  0  0  0  0  0  0  0  0  0
   11.6082    3.1950   -7.3679 C   0  0  0  0  0  0  0  0  0  0  0  0
   12.7511    3.5752   -8.0924 C   0  0  0  0  0  0  0  0  0  0  0  0
   13.7181    3.8724   -8.6378 N   0  0  0  0  0  0  0  0  0  0  0  0
   11.9318    2.4030   -6.2495 C   0  0  0  0  0  0  0  0  0  0  0  0
   12.2691    1.7901   -5.3381 N   0  0  0  0  0  0  0  0  0  0  0  0
    8.0405    2.4393   -4.8835 C   0  0  0  0  0  0  0  0  0  0  0  0
    7.2454    3.4936   -4.3681 C   0  0  0  0  0  0  0  0  0  0  0  0
    7.4285    4.8266   -4.5656 N   0  0  0  0  0  0  0  0  0  0  0  0
    6.3646    5.7188   -4.2936 C   0  0  0  0  0  0  0  0  0  0  0  0
    5.1032    5.4986   -4.8370 C   0  0  0  0  0  0  0  0  0  0  0  0
    4.0688    6.3631   -4.5389 C   0  0  0  0  0  0  0  0  0  0  0  0
    4.2650    7.4565   -3.7022 C   0  0  0  0  0  0  0  0  0  0  0  0
    3.1240    8.3584   -3.3498 C   0  0  0  0  0  0  0  0  0  0  0  0
    5.5383    7.6838   -3.1950 C   0  0  0  0  0  0  0  0  0  0  0  0
    6.5833    6.8303   -3.4880 C   0  0  0  0  0  0  0  0  0  0  0  0
    8.6488    5.3877   -4.9708 C   0  0  0  0  0  0  0  0  0  0  0  0
    9.8662    4.9186   -4.4788 C   0  0  0  0  0  0  0  0  0  0  0  0
   11.0497    5.4645   -4.9279 C   0  0  0  0  0  0  0  0  0  0  0  0
   11.0613    6.4884   -5.8734 C   0  0  0  0  0  0  0  0  0  0  0  0
   12.3579    7.0244   -6.3918 C   0  0  0  0  0  0  0  0  0  0  0  0
    9.8434    6.9841   -6.3188 C   0  0  0  0  0  0  0  0  0  0  0  0
    8.6489    6.4483   -5.8745 C   0  0  0  0  0  0  0  0  0  0  0  0
    6.2848    2.9811   -3.4672 C   0  0  0  0  0  0  0  0  0  0  0  0
    5.0035    3.6877   -2.5478 S   0  0  0  0  0  0  0  0  0  0  0  0
    4.6846    2.1540   -1.7431 C   0  0  0  0  0  0  0  0  0  0  0  0
    5.4875    1.1330   -2.2356 C   0  0  0  0  0  0  0  0  0  0  0  0
    5.5003   -0.1949   -1.8119 N   0  0  0  0  0  0  0  0  0  0  0  0
    4.3638   -0.9930   -1.9474 C   0  0  0  0  0  0  0  0  0  0  0  0
    3.4044   -0.7068   -2.9192 C   0  0  0  0  0  0  0  0  0  0  0  0
    2.2607   -1.4738   -3.0142 C   0  0  0  0  0  0  0  0  0  0  0  0
    2.0415   -2.5464   -2.1586 C   0  0  0  0  0  0  0  0  0  0  0  0
    0.7883   -3.3611   -2.2722 C   0  0  0  0  0  0  0  0  0  0  0  0
    3.0121   -2.8389   -1.2079 C   0  0  0  0  0  0  0  0  0  0  0  0
    4.1571   -2.0773   -1.0961 C   0  0  0  0  0  0  0  0  0  0  0  0
    6.7613   -0.7512   -1.5386 C   0  0  0  0  0  0  0  0  0  0  0  0
    7.1004   -2.0347   -1.9554 C   0  0  0  0  0  0  0  0  0  0  0  0
    8.3586   -2.5387   -1.6907 C   0  0  0  0  0  0  0  0  0  0  0  0
    9.3132   -1.7827   -1.0220 C   0  0  0  0  0  0  0  0  0  0  0  0
   10.6895   -2.3170   -0.7728 C   0  0  0  0  0  0  0  0  0  0  0  0
    8.9674   -0.5006   -0.6114 C   0  0  0  0  0  0  0  0  0  0  0  0
    7.7096    0.0097   -0.8579 C   0  0  0  0  0  0  0  0  0  0  0  0
    6.4010    1.6246   -3.1977 C   0  0  0  0  0  0  0  0  0  0  0  0
    7.6907    0.8965   -4.0790 S   0  0  0  0  0  0  0  0  0  0  0  0
    3.6818    2.1608   -0.7245 C   0  0  0  0  0  0  0  0  0  0  0  0
    3.3760    3.2402    0.0935 C   0  0  0  0  0  0  0  0  0  0  0  0
    4.2005    4.4482    0.1803 C   0  0  0  0  0  0  0  0  0  0  0  0
    3.6401    5.7151    0.0680 C   0  0  0  0  0  0  0  0  0  0  0  0
    4.4593    6.8284    0.0903 C   0  0  0  0  0  0  0  0  0  0  0  0
    5.8302    6.6892    0.2195 C   0  0  0  0  0  0  0  0  0  0  0  0
    6.4030    5.4322    0.3658 C   0  0  0  0  0  0  0  0  0  0  0  0
    7.8902    5.2493    0.4794 C   0  0  0  0  0  0  0  0  0  0  0  0
    8.4636    4.6417   -0.8024 C   0  0  0  0  0  0  0  0  0  0  0  0
    5.5745    4.3225    0.3600 C   0  0  0  0  0  0  0  0  0  0  0  0
    2.2338    2.9934    0.8748 C   0  0  0  0  0  0  0  0  0  0  0  0
    1.3597    3.9503    2.0491 S   0  0  0  0  0  0  0  0  0  0  0  0
    0.2513    2.6338    2.2601 C   0  0  0  0  0  0  0  0  0  0  0  0
   -0.9329    2.3316    2.9488 C   0  0  0  0  0  0  0  0  0  0  0  0
   -1.7320    3.1386    3.7866 C   0  0  0  0  0  0  0  0  0  0  0  0
   -2.9730    2.6135    4.2717 C   0  0  0  0  0  0  0  0  0  0  0  0
   -3.6423    3.4882    5.0064 N   0  0  0  0  0  0  0  0  0  0  0  0
   -2.7792    4.8565    5.0832 S   0  0  0  0  0  0  0  0  0  0  0  0
   -1.5205    4.3849    4.1803 N   0  0  0  0  0  0  0  0  0  0  0  0
   -3.3144    1.2795    3.9631 C   0  0  0  0  0  0  0  0  0  0  0  0
   -4.4097    0.5066    4.3739 C   0  0  0  0  0  0  0  0  0  0  0  0
   -5.8598    0.6714    5.3046 S   0  0  0  0  0  0  0  0  0  0  0  0
   -6.2066   -1.0170    5.0124 C   0  0  0  0  0  0  0  0  0  0  0  0
   -7.2627   -1.8506    5.4192 C   0  0  0  0  0  0  0  0  0  0  0  0
   -8.3481   -1.3851    6.2853 C   0  0  0  0  0  0  0  0  0  0  0  0
   -8.6502   -2.0515    7.4699 C   0  0  0  0  0  0  0  0  0  0  0  0
   -9.6429   -1.5626    8.2968 C   0  0  0  0  0  0  0  0  0  0  0  0
  -10.3323   -0.4115    7.9558 C   0  0  0  0  0  0  0  0  0  0  0  0
  -10.0356    0.2702    6.7827 C   0  0  0  0  0  0  0  0  0  0  0  0
  -10.7281    1.5561    6.4373 C   0  0  0  0  0  0  0  0  0  0  0  0
   -9.8976    2.7468    6.9213 C   0  0  0  0  0  0  0  0  0  0  0  0
   -9.0380   -0.2248    5.9562 C   0  0  0  0  0  0  0  0  0  0  0  0
   -7.1025   -3.1396    4.9365 C   0  0  0  0  0  0  0  0  0  0  0  0
   -5.6180   -3.3234    4.0048 S   0  0  0  0  0  0  0  0  0  0  0  0
   -5.2329   -1.6570    4.2391 C   0  0  0  0  0  0  0  0  0  0  0  0
   -4.2100   -0.7788    3.8658 C   0  0  0  0  0  0  0  0  0  0  0  0
   -3.0431   -0.8239    3.1533 N   0  0  0  0  0  0  0  0  0  0  0  0
   -2.4750    0.4381    3.1730 C   0  0  0  0  0  0  0  0  0  0  0  0
   -1.3041    1.0005    2.5899 C   0  0  0  0  0  0  0  0  0  0  0  0
   -0.3745    0.5380    1.6738 N   0  0  0  0  0  0  0  0  0  0  0  0
    0.5592    1.5166    1.4832 C   0  0  0  0  0  0  0  0  0  0  0  0
    1.6886    1.7233    0.6822 C   0  0  0  0  0  0  0  0  0  0  0  0
    2.5781    0.8164   -0.4863 S   0  0  0  0  0  0  0  0  0  0  0  0
   -0.3035   -0.6475    0.8532 C   0  0  0  0  0  0  0  0  0  0  0  0
    0.7281   -1.6449    1.3809 C   0  0  0  0  0  0  0  0  0  0  0  0
   -2.5779   -2.1036    2.6734 C   0  0  0  0  0  0  0  0  0  0  0  0
   -3.2952   -2.5265    1.3906 C   0  0  0  0  0  0  0  0  0  0  0  0
   -7.9800   -4.2518    4.9891 C   0  0  0  0  0  0  0  0  0  0  0  0
   -7.6718   -5.5416    4.5944 C   0  0  0  0  0  0  0  0  0  0  0  0
   -8.7447   -6.4310    4.6392 C   0  0  0  0  0  0  0  0  0  0  0  0
   -8.5880   -7.8565    4.3589 C   0  0  0  0  0  0  0  0  0  0  0  0
   -9.1360   -8.8248    5.1981 C   0  0  0  0  0  0  0  0  0  0  0  0
   -8.9754  -10.1659    4.9145 C   0  0  0  0  0  0  0  0  0  0  0  0
   -8.2625  -10.5816    3.7937 C   0  0  0  0  0  0  0  0  0  0  0  0
   -8.1242  -12.0393    3.4682 C   0  0  0  0  0  0  0  0  0  0  0  0
   -9.3371  -12.5287    2.6745 C   0  0  0  0  0  0  0  0  0  0  0  0
   -7.7085   -9.6144    2.9655 C   0  0  0  0  0  0  0  0  0  0  0  0
   -7.8608   -8.2696    3.2439 C   0  0  0  0  0  0  0  0  0  0  0  0
   -9.9289   -5.8140    5.0601 C   0  0  0  0  0  0  0  0  0  0  0  0
   -9.6396   -4.1323    5.4650 S   0  0  0  0  0  0  0  0  0  0  0  0
  -11.2376   -6.2945    5.2198 C   0  0  0  0  0  0  0  0  0  0  0  0
  -11.8766   -7.3830    4.6814 C   0  0  0  0  0  0  0  0  0  0  0  0
  -13.0828   -7.8958    5.3724 C   0  0  0  0  0  0  0  0  0  0  0  0
  -13.6949   -7.3562    6.2653 O   0  0  0  0  0  0  0  0  0  0  0  0
  -13.3382   -9.2258    4.7680 C   0  0  0  0  0  0  0  0  0  0  0  0
  -12.4298   -9.4387    3.7145 C   0  0  0  0  0  0  0  0  0  0  0  0
  -12.4706  -10.6164    2.9885 C   0  0  0  0  0  0  0  0  0  0  0  0
  -13.4080  -11.5785    3.3360 C   0  0  0  0  0  0  0  0  0  0  0  0
  -14.2995  -11.3673    4.3759 C   0  0  0  0  0  0  0  0  0  0  0  0
  -15.5553  -12.7160    4.7974 Br  0  0  0  0  0  0  0  0  0  0  0  0
  -14.2849  -10.1766    5.1118 C   0  0  0  0  0  0  0  0  0  0  0  0
  -15.3957   -9.9062    6.3863 Cl  0  0  0  0  0  0  0  0  0  0  0  0
  -11.5840   -8.2531    3.5762 C   0  0  0  0  0  0  0  0  0  0  0  0
  -10.8233   -7.9556    2.4712 C   0  0  0  0  0  0  0  0  0  0  0  0
  -10.2785   -6.6803    2.2320 C   0  0  0  0  0  0  0  0  0  0  0  0
   -9.8613   -5.6422    1.9737 N   0  0  0  0  0  0  0  0  0  0  0  0
  -10.5584   -8.8593    1.4265 C   0  0  0  0  0  0  0  0  0  0  0  0
  -10.2809   -9.5679    0.5658 N   0  0  0  0  0  0  0  0  0  0  0  0
    9.6756    1.5634   -5.8704 H   0  0  0  0  0  0  0  0  0  0  0  0
   11.7516    4.8795   -9.8901 H   0  0  0  0  0  0  0  0  0  0  0  0
   10.6725    6.5296  -11.3569 H   0  0  0  0  0  0  0  0  0  0  0  0
    4.9603    4.6660   -5.5081 H   0  0  0  0  0  0  0  0  0  0  0  0
    3.0921    6.1888   -4.9657 H   0  0  0  0  0  0  0  0  0  0  0  0
    3.4822    9.3190   -2.9885 H   0  0  0  0  0  0  0  0  0  0  0  0
    2.5235    7.8996   -2.5639 H   0  0  0  0  0  0  0  0  0  0  0  0
    2.4790    8.5221   -4.2104 H   0  0  0  0  0  0  0  0  0  0  0  0
    5.7157    8.5386   -2.5596 H   0  0  0  0  0  0  0  0  0  0  0  0
    7.5707    7.0217   -3.0932 H   0  0  0  0  0  0  0  0  0  0  0  0
    9.8824    4.1241   -3.7481 H   0  0  0  0  0  0  0  0  0  0  0  0
   11.9856    5.0843   -4.5453 H   0  0  0  0  0  0  0  0  0  0  0  0
   12.8635    6.2696   -6.9949 H   0  0  0  0  0  0  0  0  0  0  0  0
   13.0213    7.2850   -5.5692 H   0  0  0  0  0  0  0  0  0  0  0  0
   12.1975    7.9047   -7.0085 H   0  0  0  0  0  0  0  0  0  0  0  0
    9.8250    7.7924   -7.0354 H   0  0  0  0  0  0  0  0  0  0  0  0
    7.7084    6.8377   -6.2344 H   0  0  0  0  0  0  0  0  0  0  0  0
    3.5617    0.1195   -3.5969 H   0  0  0  0  0  0  0  0  0  0  0  0
    1.5253   -1.2372   -3.7696 H   0  0  0  0  0  0  0  0  0  0  0  0
    0.7178   -3.8131   -3.2607 H   0  0  0  0  0  0  0  0  0  0  0  0
   -0.0904   -2.7316   -2.1336 H   0  0  0  0  0  0  0  0  0  0  0  0
    0.7700   -4.1554   -1.5299 H   0  0  0  0  0  0  0  0  0  0  0  0
    2.8688   -3.6740   -0.5368 H   0  0  0  0  0  0  0  0  0  0  0  0
    4.8934   -2.3076   -0.3408 H   0  0  0  0  0  0  0  0  0  0  0  0
    6.3799   -2.6292   -2.4969 H   0  0  0  0  0  0  0  0  0  0  0  0
    8.6071   -3.5356   -2.0246 H   0  0  0  0  0  0  0  0  0  0  0  0
   11.0544   -2.0074    0.2044 H   0  0  0  0  0  0  0  0  0  0  0  0
   10.7021   -3.4027   -0.8272 H   0  0  0  0  0  0  0  0  0  0  0  0
   11.3784   -1.9307   -1.5245 H   0  0  0  0  0  0  0  0  0  0  0  0
    9.6933    0.1051   -0.0885 H   0  0  0  0  0  0  0  0  0  0  0  0
    7.4529    1.0056   -0.5249 H   0  0  0  0  0  0  0  0  0  0  0  0
    2.5726    5.8190   -0.0539 H   0  0  0  0  0  0  0  0  0  0  0  0
    4.0260    7.8130   -0.0031 H   0  0  0  0  0  0  0  0  0  0  0  0
    6.4624    7.5654    0.2169 H   0  0  0  0  0  0  0  0  0  0  0  0
    8.1148    4.5877    1.3197 H   0  0  0  0  0  0  0  0  0  0  0  0
    8.3690    6.2116    0.6682 H   0  0  0  0  0  0  0  0  0  0  0  0
    8.2426    5.2813   -1.6534 H   0  0  0  0  0  0  0  0  0  0  0  0
    9.5426    4.5299   -0.7215 H   0  0  0  0  0  0  0  0  0  0  0  0
    8.0287    3.6626   -0.9931 H   0  0  0  0  0  0  0  0  0  0  0  0
    5.9987    3.3355    0.4850 H   0  0  0  0  0  0  0  0  0  0  0  0
   -8.0946   -2.9359    7.7455 H   0  0  0  0  0  0  0  0  0  0  0  0
   -9.8759   -2.0780    9.2166 H   0  0  0  0  0  0  0  0  0  0  0  0
  -11.1059   -0.0355    8.6096 H   0  0  0  0  0  0  0  0  0  0  0  0
  -10.8607    1.6261    5.3559 H   0  0  0  0  0  0  0  0  0  0  0  0
  -11.7133    1.5863    6.9062 H   0  0  0  0  0  0  0  0  0  0  0  0
   -9.7692    2.7039    8.0005 H   0  0  0  0  0  0  0  0  0  0  0  0
  -10.3903    3.6822    6.6669 H   0  0  0  0  0  0  0  0  0  0  0  0
   -8.9128    2.7343    6.4599 H   0  0  0  0  0  0  0  0  0  0  0  0
   -8.7997    0.2913    5.0374 H   0  0  0  0  0  0  0  0  0  0  0  0
   -1.2904   -1.0912    0.7653 H   0  0  0  0  0  0  0  0  0  0  0  0
    0.0087   -0.3305   -0.1481 H   0  0  0  0  0  0  0  0  0  0  0  0
    0.5740   -1.8580    2.4369 H   0  0  0  0  0  0  0  0  0  0  0  0
    1.7301   -1.2421    1.2613 H   0  0  0  0  0  0  0  0  0  0  0  0
    0.6652   -2.5707    0.8172 H   0  0  0  0  0  0  0  0  0  0  0  0
   -2.7995   -2.8413    3.4526 H   0  0  0  0  0  0  0  0  0  0  0  0
   -1.4999   -2.0760    2.5456 H   0  0  0  0  0  0  0  0  0  0  0  0
   -3.2407   -1.7522    0.6281 H   0  0  0  0  0  0  0  0  0  0  0  0
   -4.3449   -2.7183    1.5953 H   0  0  0  0  0  0  0  0  0  0  0  0
   -2.8495   -3.4379    1.0020 H   0  0  0  0  0  0  0  0  0  0  0  0
   -6.6786   -5.8314    4.2979 H   0  0  0  0  0  0  0  0  0  0  0  0
   -9.6747   -8.5199    6.0837 H   0  0  0  0  0  0  0  0  0  0  0  0
   -9.4019  -10.9049    5.5778 H   0  0  0  0  0  0  0  0  0  0  0  0
   -7.2207  -12.1988    2.8772 H   0  0  0  0  0  0  0  0  0  0  0  0
   -8.0389  -12.6189    4.3899 H   0  0  0  0  0  0  0  0  0  0  0  0
   -9.2121  -13.5728    2.3984 H   0  0  0  0  0  0  0  0  0  0  0  0
   -9.4552  -11.9392    1.7677 H   0  0  0  0  0  0  0  0  0  0  0  0
  -10.2413  -12.4339    3.2724 H   0  0  0  0  0  0  0  0  0  0  0  0
   -7.1521   -9.9169    2.0906 H   0  0  0  0  0  0  0  0  0  0  0  0
   -7.4381   -7.5283    2.5817 H   0  0  0  0  0  0  0  0  0  0  0  0
  -11.8483   -5.7355    5.9249 H   0  0  0  0  0  0  0  0  0  0  0  0
  -11.7937  -10.8006    2.1719 H   0  0  0  0  0  0  0  0  0  0  0  0
  -13.4510  -12.5082    2.7896 H   0  0  0  0  0  0  0  0  0  0  0  0
  1  2  2  0  0  0  0
  2  3  1  0  0  0  0
  3  4  2  0  0  0  0
  3  5  1  0  0  0  0
  5  6  2  0  0  0  0
  6  7  1  0  0  0  0
  7  8  2  0  0  0  0
  8  9  1  0  0  0  0
  9 10  1  0  0  0  0
  9 11  2  0  0  0  0
 11 12  1  0  0  0  0
  6 13  1  0  0  0  0
 13 14  2  0  0  0  0
 14 15  1  0  0  0  0
 15 16  3  0  0  0  0
 14 17  1  0  0  0  0
 17 18  3  0  0  0  0
  1 19  1  0  0  0  0
 19 20  2  0  0  0  0
 20 21  1  0  0  0  0
 21 22  1  0  0  0  0
 22 23  2  0  0  0  0
 23 24  1  0  0  0  0
 24 25  2  0  0  0  0
 25 26  1  0  0  0  0
 25 27  1  0  0  0  0
 27 28  2  0  0  0  0
 21 29  1  0  0  0  0
 29 30  2  0  0  0  0
 30 31  1  0  0  0  0
 31 32  2  0  0  0  0
 32 33  1  0  0  0  0
 32 34  1  0  0  0  0
 34 35  2  0  0  0  0
 20 36  1  0  0  0  0
 36 37  1  0  0  0  0
 37 38  1  0  0  0  0
 38 39  2  0  0  0  0
 39 40  1  0  0  0  0
 40 41  1  0  0  0  0
 41 42  2  0  0  0  0
 42 43  1  0  0  0  0
 43 44  2  0  0  0  0
 44 45  1  0  0  0  0
 44 46  1  0  0  0  0
 46 47  2  0  0  0  0
 40 48  1  0  0  0  0
 48 49  2  0  0  0  0
 49 50  1  0  0  0  0
 50 51  2  0  0  0  0
 51 52  1  0  0  0  0
 51 53  1  0  0  0  0
 53 54  2  0  0  0  0
 39 55  1  0  0  0  0
 55 56  1  0  0  0  0
 38 57  1  0  0  0  0
 57 58  2  0  0  0  0
 58 59  1  0  0  0  0
 59 60  2  0  0  0  0
 60 61  1  0  0  0  0
 61 62  2  0  0  0  0
 62 63  1  0  0  0  0
 63 64  1  0  0  0  0
 64 65  1  0  0  0  0
 63 66  2  0  0  0  0
 58 67  1  0  0  0  0
 67 68  1  0  0  0  0
 68 69  1  0  0  0  0
 69 70  1  0  0  0  0
 70 71  1  0  0  0  0
 71 72  1  0  0  0  0
 72 73  2  0  0  0  0
 73 74  1  0  0  0  0
 74 75  1  0  0  0  0
 72 76  1  0  0  0  0
 76 77  1  0  0  0  0
 77 78  1  0  0  0  0
 78 79  1  0  0  0  0
 79 80  1  0  0  0  0
 80 81  1  0  0  0  0
 81 82  2  0  0  0  0
 82 83  1  0  0  0  0
 83 84  2  0  0  0  0
 84 85  1  0  0  0  0
 85 86  1  0  0  0  0
 86 87  1  0  0  0  0
 85 88  2  0  0  0  0
 80 89  2  0  0  0  0
 89 90  1  0  0  0  0
 90 91  1  0  0  0  0
 91 92  1  0  0  0  0
 92 93  1  0  0  0  0
 93 94  1  0  0  0  0
 94 95  1  0  0  0  0
 95 96  1  0  0  0  0
 96 97  1  0  0  0  0
 97 98  1  0  0  0  0
 98 99  1  0  0  0  0
 96100  1  0  0  0  0
100101  1  0  0  0  0
 93102  1  0  0  0  0
102103  1  0  0  0  0
 89104  1  0  0  0  0
104105  2  0  0  0  0
105106  1  0  0  0  0
106107  1  0  0  0  0
107108  2  0  0  0  0
108109  1  0  0  0  0
109110  2  0  0  0  0
110111  1  0  0  0  0
111112  1  0  0  0  0
110113  1  0  0  0  0
113114  2  0  0  0  0
106115  2  0  0  0  0
115116  1  0  0  0  0
115117  1  0  0  0  0
117118  2  0  0  0  0
118119  1  0  0  0  0
119120  2  0  0  0  0
119121  1  0  0  0  0
121122  2  0  0  0  0
122123  1  0  0  0  0
123124  2  0  0  0  0
124125  1  0  0  0  0
125126  1  0  0  0  0
125127  2  0  0  0  0
127128  1  0  0  0  0
122129  1  0  0  0  0
129130  2  0  0  0  0
130131  1  0  0  0  0
131132  3  0  0  0  0
130133  1  0  0  0  0
133134  3  0  0  0  0
 13  2  1  0  0  0  0
 56 19  1  0  0  0  0
 99 57  1  0  0  0  0
116104  1  0  0  0  0
129118  1  0  0  0  0
 11  5  1  0  0  0  0
 28 22  1  0  0  0  0
 35 29  1  0  0  0  0
 55 36  2  0  0  0  0
 66 59  1  0  0  0  0
 98 67  2  0  0  0  0
114107  1  0  0  0  0
127121  1  0  0  0  0
 47 41  1  0  0  0  0
 54 48  1  0  0  0  0
 97 69  2  0  0  0  0
 95 70  2  0  0  0  0
 75 71  2  0  0  0  0
 94 76  2  0  0  0  0
 92 77  2  0  0  0  0
 91 79  2  0  0  0  0
 88 81  1  0  0  0  0
  1135  1  0  0  0  0
  7136  1  0  0  0  0
  8137  1  0  0  0  0
 23138  1  0  0  0  0
 24139  1  0  0  0  0
 26140  1  0  0  0  0
 26141  1  0  0  0  0
 26142  1  0  0  0  0
 27143  1  0  0  0  0
 28144  1  0  0  0  0
 30145  1  0  0  0  0
 31146  1  0  0  0  0
 33147  1  0  0  0  0
 33148  1  0  0  0  0
 33149  1  0  0  0  0
 34150  1  0  0  0  0
 35151  1  0  0  0  0
 42152  1  0  0  0  0
 43153  1  0  0  0  0
 45154  1  0  0  0  0
 45155  1  0  0  0  0
 45156  1  0  0  0  0
 46157  1  0  0  0  0
 47158  1  0  0  0  0
 49159  1  0  0  0  0
 50160  1  0  0  0  0
 52161  1  0  0  0  0
 52162  1  0  0  0  0
 52163  1  0  0  0  0
 53164  1  0  0  0  0
 54165  1  0  0  0  0
 60166  1  0  0  0  0
 61167  1  0  0  0  0
 62168  1  0  0  0  0
 64169  1  0  0  0  0
 64170  1  0  0  0  0
 65171  1  0  0  0  0
 65172  1  0  0  0  0
 65173  1  0  0  0  0
 66174  1  0  0  0  0
 82175  1  0  0  0  0
 83176  1  0  0  0  0
 84177  1  0  0  0  0
 86178  1  0  0  0  0
 86179  1  0  0  0  0
 87180  1  0  0  0  0
 87181  1  0  0  0  0
 87182  1  0  0  0  0
 88183  1  0  0  0  0
100184  1  0  0  0  0
100185  1  0  0  0  0
101186  1  0  0  0  0
101187  1  0  0  0  0
101188  1  0  0  0  0
102189  1  0  0  0  0
102190  1  0  0  0  0
103191  1  0  0  0  0
103192  1  0  0  0  0
103193  1  0  0  0  0
105194  1  0  0  0  0
108195  1  0  0  0  0
109196  1  0  0  0  0
111197  1  0  0  0  0
111198  1  0  0  0  0
112199  1  0  0  0  0
112200  1  0  0  0  0
112201  1  0  0  0  0
113202  1  0  0  0  0
114203  1  0  0  0  0
117204  1  0  0  0  0
123205  1  0  0  0  0
124206  1  0  0  0  0
M  END
