190

C         -8.19240        1.93130       -4.93320
C         -8.63910        2.94880       -5.75760
C         -7.84560        4.07610       -6.23600
O         -6.66610        4.30570       -6.03660
C         -8.77830        4.93080       -7.00500
C        -10.06350        4.36060       -6.97050
C        -11.11410        4.98870       -7.61800
C        -10.86500        6.17600       -8.29290
C         -9.59490        6.72860       -8.32960
Br        -9.31750        8.34140       -9.27660
C         -8.52070        6.11030       -7.68070
Cl        -6.94650        6.78220       -7.72520
C         -9.99360        3.10680       -6.21650
C        -11.04890        2.24220       -6.03500
C        -10.96980        0.96410       -5.45160
N        -10.99050       -0.10660       -5.03190
C        -12.36870        2.50670       -6.44950
N        -13.46830        2.66380       -6.74310
C         -6.91640        1.63990       -4.47270
C         -6.62450        0.49930       -3.67000
N         -7.54830       -0.29470       -3.05320
C         -8.72730        0.21950       -2.48070
C         -9.88780       -0.55030       -2.47020
C        -11.03910       -0.05270       -1.89350
C        -11.07000        1.21600       -1.32630
C        -12.33790        1.75030       -0.73610
C         -9.90200        1.96990       -1.33010
C         -8.73910        1.48080       -1.89020
C         -7.24060       -1.65600       -2.85240
C         -6.71830       -2.40940       -3.90080
C         -6.41190       -3.74030       -3.70820
C         -6.62120       -4.35380       -2.47710
C         -6.27810       -5.79860       -2.28770
C         -7.15200       -3.59520       -1.44170
C         -7.45960       -2.26030       -1.61970
C         -5.23870        0.29110       -3.58860
S         -4.23960       -0.88640       -2.79380
C         -2.80080       -0.04550       -3.34440
C         -3.08730        1.12860       -4.03140
N         -2.15800        2.06800       -4.43580
C         -2.41010        2.81440       -5.60030
C         -2.11140        4.17310       -5.64910
C         -2.38690        4.90140       -6.78810
C         -2.97050        4.30580       -7.90070
C         -3.30790        5.11820       -9.11220
C         -3.25720        2.94880       -7.84500
C         -2.98020        2.20660       -6.71420
C         -1.01430        2.31760       -3.66540
C          0.19550        2.63750       -4.27850
C          1.34590        2.76520       -3.52840
C          1.32890        2.59370       -2.14830
C          2.60060        2.65720       -1.35890
C          0.10670        2.35790       -1.53490
C         -1.05250        2.22960       -2.27590
C         -4.48340        1.28270       -4.20340
S         -5.44730        2.49960       -4.95370
C         -1.48490       -0.52940       -3.05880
C         -0.43060       -0.56780       -3.95120
C         -0.61000       -0.49490       -5.40010
C         -1.70980       -1.11310       -5.99280
C         -1.88310       -1.05400       -7.36220
C         -0.98050       -0.36190       -8.14990
C          0.12880        0.24890       -7.57860
C          1.07320        1.04840       -8.42840
C          0.49890        2.44380       -8.68530
C          0.31720        0.15430       -6.20850
C          0.79260       -0.77540       -3.28030
S          2.45060       -0.81980       -3.82200
C          2.95480       -1.08380       -2.18700
C          4.13320       -1.29600       -1.45610
C          5.46980       -1.43240       -1.88860
C          6.47250       -1.79190       -0.93060
N          7.66870       -1.93840       -1.47900
S          7.54350       -1.64140       -3.06580
N          5.95820       -1.31750       -3.11400
C          6.10560       -1.90810        0.42740
C          6.88070       -2.18360        1.56210
S          8.51350       -2.58450        1.96810
C          8.05010       -2.64490        3.65400
C          8.77510       -2.91450        4.82410
C         10.22050       -3.14700        4.81570
C         10.77350       -4.06440        3.92740
C         12.14230       -4.25690        3.90210
C         12.96510       -3.53400        4.74720
C         12.43090       -2.60200        5.63020
C         13.32590       -1.77900        6.51070
C         13.76690       -0.50780        5.78260
C         11.05780       -2.41370        5.65220
C          7.95350       -2.86490        5.94820
S          6.29550       -2.42780        5.54430
C          6.69580       -2.35390        3.86750
C          6.02960       -2.09050        2.66790
N          4.75840       -1.78350        2.25940
C          4.77150       -1.67940        0.87700
C          3.75580       -1.45750       -0.09100
N          2.37430       -1.35390       -0.01410
C          1.89760       -1.14150       -1.27770
C          0.65730       -0.95750       -1.90390
S         -0.99510       -0.87160       -1.40900
C          1.45750       -1.76150        1.02600
C          1.58320       -3.25230        1.33090
C          3.81610       -1.26540        3.22750
C          3.59530        0.23380        3.04260
C          8.22670       -3.18750        7.29670
C          9.34770       -3.82320        7.82720
C          9.22090       -4.01060        9.18450
F         10.16380       -4.60410        9.92110
C          8.02550       -3.55300        9.76780
S          7.03220       -2.84990        8.51470
C          7.75390       -3.69200       11.12860
C          6.62750       -3.33870       11.84060
C          5.43780       -2.71570       11.26350
O          5.25300       -2.38520       10.10770
C          4.48040       -2.56300       12.38430
C          5.06330       -3.05530       13.56530
C          4.36060       -3.02770       14.75770
C          3.07500       -2.50450       14.74720
F          2.37900       -2.47080       15.88650
C          2.48460       -2.01350       13.58550
F          1.24330       -1.51900       13.61680
C          3.19910       -2.04290       12.38600
F          2.63300       -1.57410       11.27690
C          6.41240       -3.53830       13.25440
C          7.28220       -4.07140       14.17160
C          8.59140       -4.52600       13.90420
N          9.66610       -4.91350       13.78840
C          6.98730       -4.23770       15.54110
N          6.81240       -4.40250       16.66360
H         -8.95110        1.23160       -4.60670
H        -12.11150        4.58260       -7.61130
H        -11.67060        6.68100       -8.80320
H         -9.88490       -1.52900       -2.92270
H        -11.93500       -0.65450       -1.90040
H        -13.06960        1.92960       -1.52380
H        -12.76960        1.03180       -0.04170
H        -12.16170        2.68510       -0.21020
H         -9.89740        2.95180       -0.87920
H         -7.83690        2.07480       -1.87450
H         -6.56460       -1.94520       -4.86420
H         -6.00950       -4.31780       -4.52760
H         -6.81810       -6.41460       -3.00530
H         -5.21260       -5.95740       -2.45020
H         -6.52960       -6.13150       -1.28430
H         -7.32250       -4.05190       -0.47780
H         -7.86440       -1.67890       -0.80480
H         -1.67370        4.65440       -4.78680
H         -2.15820        5.95720       -6.80940
H         -3.39000        4.48890       -9.99530
H         -2.55600        5.88400       -9.29040
H         -4.26560        5.61750       -8.96360
H         -3.70570        2.46160       -8.69890
H         -3.19960        1.15010       -6.69070
H          0.22450        2.76360       -5.34950
H          2.28150        2.98190       -4.02350
H          2.40100        2.58340       -0.29240
H          3.26220        1.83890       -1.64560
H          3.12680        3.59070       -1.55180
H          0.05600        2.26320       -0.45930
H         -1.99290        2.04730       -1.77610
H         -2.41470       -1.65640       -5.38060
H         -2.73060       -1.54650       -7.81720
H         -1.13140       -0.30290       -9.21800
H          1.22840        0.54450       -9.38470
H          2.03910        1.13810       -7.92810
H          0.35180        2.97770       -7.74890
H          1.17300        3.02320       -9.31170
H         -0.46620        2.37420       -9.18170
H          1.18880        0.60330       -5.75740
H         10.12970       -4.63500        3.27560
H         12.56880       -4.97600        3.21890
H         14.03350       -3.69160        4.72350
H         14.20770       -2.36030        6.78650
H         12.79660       -1.50580        7.42570
H         14.30920       -0.76030        4.87420
H         14.41480        0.08900        6.41990
H         12.90120        0.09110        5.50820
H         10.62720       -1.68300        6.32250
H          0.45230       -1.55550        0.64990
H          1.59520       -1.15360        1.91990
H          0.89790       -3.52750        2.12790
H          1.33510       -3.83280        0.44540
H          2.59650       -3.50920        1.63110
H          4.25330       -1.44510        4.21270
H          2.87850       -1.81970        3.19030
H          3.22910        0.45820        2.04330
H          2.87650        0.59500        3.77300
H          4.53220        0.76710        3.18670
H         10.19660       -4.14860        7.25640
H          8.56110       -4.16060       11.68030
H          4.76290       -3.39280       15.68780
