
  xtb     02072210203D
 energy: -387.164816275239 gnorm: 0.000545625854 xtb: 6.4.1 (unknown)
225249  0     0  0            999 V2000
   -3.8037   -4.0670   10.4480 C   0  0  0  0  0  0  0  0  0  0  0  0
   -4.9748   -3.7427   11.1128 C   0  0  0  0  0  0  0  0  0  0  0  0
   -6.3083   -4.0485   10.5877 C   0  0  0  0  0  0  0  0  0  0  0  0
   -6.5804   -4.6187    9.5485 O   0  0  0  0  0  0  0  0  0  0  0  0
   -7.2550   -3.6400   11.6548 C   0  0  0  0  0  0  0  0  0  0  0  0
   -6.5318   -3.1467   12.7544 C   0  0  0  0  0  0  0  0  0  0  0  0
   -7.2001   -2.7027   13.8815 C   0  0  0  0  0  0  0  0  0  0  0  0
   -8.5880   -2.7395   13.8883 C   0  0  0  0  0  0  0  0  0  0  0  0
   -9.2965   -3.2083   12.7943 C   0  0  0  0  0  0  0  0  0  0  0  0
  -11.1876   -3.1979   12.8473 Br  0  0  0  0  0  0  0  0  0  0  0  0
   -8.6366   -3.6766   11.6533 C   0  0  0  0  0  0  0  0  0  0  0  0
   -9.5075   -4.2411   10.2885 Cl  0  0  0  0  0  0  0  0  0  0  0  0
   -5.1066   -3.1837   12.4234 C   0  0  0  0  0  0  0  0  0  0  0  0
   -4.1002   -2.6111   13.1654 C   0  0  0  0  0  0  0  0  0  0  0  0
   -4.2999   -1.9542   14.3922 C   0  0  0  0  0  0  0  0  0  0  0  0
   -4.4110   -1.3855   15.3847 N   0  0  0  0  0  0  0  0  0  0  0  0
   -2.7591   -2.5367   12.7418 C   0  0  0  0  0  0  0  0  0  0  0  0
   -1.6576   -2.4110   12.4403 N   0  0  0  0  0  0  0  0  0  0  0  0
   -3.6560   -4.1957    9.0705 C   0  0  0  0  0  0  0  0  0  0  0  0
   -4.4209   -3.6878    7.9923 C   0  0  0  0  0  0  0  0  0  0  0  0
   -5.4368   -2.7816    8.0556 N   0  0  0  0  0  0  0  0  0  0  0  0
   -5.5672   -1.8433    9.0864 C   0  0  0  0  0  0  0  0  0  0  0  0
   -6.8349   -1.4894    9.5453 C   0  0  0  0  0  0  0  0  0  0  0  0
   -6.9732   -0.5940   10.5896 C   0  0  0  0  0  0  0  0  0  0  0  0
   -5.8634   -0.0274   11.2013 C   0  0  0  0  0  0  0  0  0  0  0  0
   -6.0016    0.9017   12.3653 C   0  0  0  0  0  0  0  0  0  0  0  0
   -4.6019   -0.3486   10.7033 C   0  0  0  0  0  0  0  0  0  0  0  0
   -4.4495   -1.2388    9.6624 C   0  0  0  0  0  0  0  0  0  0  0  0
   -6.3910   -2.7556    7.0119 C   0  0  0  0  0  0  0  0  0  0  0  0
   -6.7347   -1.5503    6.4118 C   0  0  0  0  0  0  0  0  0  0  0  0
   -7.6699   -1.5315    5.3946 C   0  0  0  0  0  0  0  0  0  0  0  0
   -8.2782   -2.7019    4.9592 C   0  0  0  0  0  0  0  0  0  0  0  0
   -9.2777   -2.6886    3.8447 C   0  0  0  0  0  0  0  0  0  0  0  0
   -7.9339   -3.8995    5.5784 C   0  0  0  0  0  0  0  0  0  0  0  0
   -7.0017   -3.9342    6.5948 C   0  0  0  0  0  0  0  0  0  0  0  0
   -3.9045   -4.1534    6.7626 C   0  0  0  0  0  0  0  0  0  0  0  0
   -4.3276   -3.8606    5.1084 S   0  0  0  0  0  0  0  0  0  0  0  0
   -2.9508   -4.8058    4.5735 C   0  0  0  0  0  0  0  0  0  0  0  0
   -2.1604   -5.2534    5.6219 C   0  0  0  0  0  0  0  0  0  0  0  0
   -0.9257   -5.8661    5.4983 N   0  0  0  0  0  0  0  0  0  0  0  0
   -0.5885   -6.8760    6.4156 C   0  0  0  0  0  0  0  0  0  0  0  0
   -1.5398   -7.8166    6.7966 C   0  0  0  0  0  0  0  0  0  0  0  0
   -1.2147   -8.8029    7.7068 C   0  0  0  0  0  0  0  0  0  0  0  0
    0.0593   -8.8823    8.2532 C   0  0  0  0  0  0  0  0  0  0  0  0
    0.4090   -9.9416    9.2526 C   0  0  0  0  0  0  0  0  0  0  0  0
    1.0037   -7.9377    7.8655 C   0  0  0  0  0  0  0  0  0  0  0  0
    0.6897   -6.9422    6.9634 C   0  0  0  0  0  0  0  0  0  0  0  0
   -0.0215   -5.4561    4.5114 C   0  0  0  0  0  0  0  0  0  0  0  0
    0.8763   -6.3620    3.9513 C   0  0  0  0  0  0  0  0  0  0  0  0
    1.6876   -5.9815    2.9009 C   0  0  0  0  0  0  0  0  0  0  0  0
    1.6414   -4.6937    2.3818 C   0  0  0  0  0  0  0  0  0  0  0  0
    2.4562   -4.3180    1.1819 C   0  0  0  0  0  0  0  0  0  0  0  0
    0.8045   -3.7730    2.9995 C   0  0  0  0  0  0  0  0  0  0  0  0
   -0.0067   -4.1391    4.0551 C   0  0  0  0  0  0  0  0  0  0  0  0
   -2.7423   -4.9065    6.8649 C   0  0  0  0  0  0  0  0  0  0  0  0
   -2.2458   -5.1109    8.5022 S   0  0  0  0  0  0  0  0  0  0  0  0
   -2.6662   -4.9455    3.1770 C   0  0  0  0  0  0  0  0  0  0  0  0
   -2.2717   -6.0756    2.4922 C   0  0  0  0  0  0  0  0  0  0  0  0
   -2.3472   -7.4510    3.0017 C   0  0  0  0  0  0  0  0  0  0  0  0
   -1.2258   -8.2612    2.8240 C   0  0  0  0  0  0  0  0  0  0  0  0
   -1.1894   -9.5536    3.3043 C   0  0  0  0  0  0  0  0  0  0  0  0
   -2.3008  -10.0739    3.9436 C   0  0  0  0  0  0  0  0  0  0  0  0
   -3.4421   -9.3045    4.0546 C   0  0  0  0  0  0  0  0  0  0  0  0
   -3.4949   -7.9923    3.5950 C   0  0  0  0  0  0  0  0  0  0  0  0
   -4.8151   -7.2702    3.6729 C   0  0  0  0  0  0  0  0  0  0  0  0
   -5.3702   -7.1785    5.0945 C   0  0  0  0  0  0  0  0  0  0  0  0
   -1.7789   -5.7363    1.2108 C   0  0  0  0  0  0  0  0  0  0  0  0
   -1.0167   -6.6657   -0.0571 S   0  0  0  0  0  0  0  0  0  0  0  0
   -0.7818   -5.2078   -0.9640 C   0  0  0  0  0  0  0  0  0  0  0  0
   -0.1344   -4.7654   -2.1325 C   0  0  0  0  0  0  0  0  0  0  0  0
    0.7294   -5.4138   -3.0448 C   0  0  0  0  0  0  0  0  0  0  0  0
    1.4680   -4.6255   -3.9973 C   0  0  0  0  0  0  0  0  0  0  0  0
    2.3059   -5.3573   -4.7141 N   0  0  0  0  0  0  0  0  0  0  0  0
    2.1736   -6.9014   -4.2455 S   0  0  0  0  0  0  0  0  0  0  0  0
    1.0471   -6.6974   -3.1016 N   0  0  0  0  0  0  0  0  0  0  0  0
    1.2070   -3.2403   -4.0921 C   0  0  0  0  0  0  0  0  0  0  0  0
    1.7183   -2.2152   -4.9104 C   0  0  0  0  0  0  0  0  0  0  0  0
    2.9743   -1.9719   -6.0788 S   0  0  0  0  0  0  0  0  0  0  0  0
    2.5525   -0.2760   -6.1439 C   0  0  0  0  0  0  0  0  0  0  0  0
    3.1269    0.8200   -6.8085 C   0  0  0  0  0  0  0  0  0  0  0  0
    4.2725    0.6860   -7.7286 C   0  0  0  0  0  0  0  0  0  0  0  0
    5.5823    0.9028   -7.2949 C   0  0  0  0  0  0  0  0  0  0  0  0
    5.8859    1.2652   -5.8689 C   0  0  0  0  0  0  0  0  0  0  0  0
    6.1795    0.0095   -5.0460 C   0  0  0  0  0  0  0  0  0  0  0  0
    6.6179    0.7477   -8.2068 C   0  0  0  0  0  0  0  0  0  0  0  0
    6.3698    0.3822   -9.5171 C   0  0  0  0  0  0  0  0  0  0  0  0
    5.0696    0.1665   -9.9394 C   0  0  0  0  0  0  0  0  0  0  0  0
    4.0257    0.3177   -9.0456 C   0  0  0  0  0  0  0  0  0  0  0  0
    2.4653    1.9960   -6.5014 C   0  0  0  0  0  0  0  0  0  0  0  0
    1.1247    1.7456   -5.3928 S   0  0  0  0  0  0  0  0  0  0  0  0
    1.4688    0.0557   -5.3257 C   0  0  0  0  0  0  0  0  0  0  0  0
    0.9947   -1.0538   -4.6186 C   0  0  0  0  0  0  0  0  0  0  0  0
    0.0576   -1.3140   -3.6499 N   0  0  0  0  0  0  0  0  0  0  0  0
    0.2124   -2.6374   -3.2795 C   0  0  0  0  0  0  0  0  0  0  0  0
   -0.3399   -3.3616   -2.1987 C   0  0  0  0  0  0  0  0  0  0  0  0
   -1.0480   -2.9531   -1.0801 N   0  0  0  0  0  0  0  0  0  0  0  0
   -1.3004   -4.0740   -0.3337 C   0  0  0  0  0  0  0  0  0  0  0  0
   -1.8597   -4.3768    0.9133 C   0  0  0  0  0  0  0  0  0  0  0  0
   -2.5661   -3.4821    2.2064 S   0  0  0  0  0  0  0  0  0  0  0  0
   -1.0715   -1.6481   -0.4493 C   0  0  0  0  0  0  0  0  0  0  0  0
    0.3294   -1.0680   -0.2842 C   0  0  0  0  0  0  0  0  0  0  0  0
   -1.1646   -0.5445   -3.5586 C   0  0  0  0  0  0  0  0  0  0  0  0
   -1.8358   -0.3906   -4.9226 C   0  0  0  0  0  0  0  0  0  0  0  0
    2.7760    3.3230   -6.9096 C   0  0  0  0  0  0  0  0  0  0  0  0
    3.8750    3.7598   -7.5962 C   0  0  0  0  0  0  0  0  0  0  0  0
    3.9260    5.1605   -7.7539 C   0  0  0  0  0  0  0  0  0  0  0  0
    4.9505    5.9052   -8.3746 C   0  0  0  0  0  0  0  0  0  0  0  0
    6.0464    5.2368   -9.0452 C   0  0  0  0  0  0  0  0  0  0  0  0
    5.9940    4.1421   -9.8632 C   0  0  0  0  0  0  0  0  0  0  0  0
    7.2578    3.7440  -10.3395 C   0  0  0  0  0  0  0  0  0  0  0  0
    8.2790    4.5174   -9.8795 C   0  0  0  0  0  0  0  0  0  0  0  0
    9.7332    4.4185  -10.1861 C   0  0  0  0  0  0  0  0  0  0  0  0
   10.1831    5.5564  -11.1047 C   0  0  0  0  0  0  0  0  0  0  0  0
    7.6887    5.7813   -8.8527 S   0  0  0  0  0  0  0  0  0  0  0  0
    4.8491    7.2861   -8.2779 C   0  0  0  0  0  0  0  0  0  0  0  0
    3.7440    7.9426   -7.6672 C   0  0  0  0  0  0  0  0  0  0  0  0
    2.6652    7.1904   -7.1322 C   0  0  0  0  0  0  0  0  0  0  0  0
    1.4863    7.8472   -6.6216 C   0  0  0  0  0  0  0  0  0  0  0  0
    0.8770    8.9785   -7.1003 C   0  0  0  0  0  0  0  0  0  0  0  0
   -0.2726    9.3398   -6.3770 C   0  0  0  0  0  0  0  0  0  0  0  0
   -0.5537    8.4964   -5.3443 C   0  0  0  0  0  0  0  0  0  0  0  0
   -1.6531    8.5906   -4.3441 C   0  0  0  0  0  0  0  0  0  0  0  0
   -1.1316    9.0907   -2.9949 C   0  0  0  0  0  0  0  0  0  0  0  0
    0.6085    7.2163   -5.2533 S   0  0  0  0  0  0  0  0  0  0  0  0
    2.8200    5.8111   -7.1499 C   0  0  0  0  0  0  0  0  0  0  0  0
    1.7216    4.6479   -6.4557 S   0  0  0  0  0  0  0  0  0  0  0  0
    3.9075    9.3352   -7.6334 C   0  0  0  0  0  0  0  0  0  0  0  0
    5.0658    9.7794   -8.2347 C   0  0  0  0  0  0  0  0  0  0  0  0
    6.0159    8.4308   -8.8618 S   0  0  0  0  0  0  0  0  0  0  0  0
    5.6311   11.0600   -8.3724 C   0  0  0  0  0  0  0  0  0  0  0  0
    5.1374   12.3085   -8.0857 C   0  0  0  0  0  0  0  0  0  0  0  0
    3.7571   12.6803   -7.7150 C   0  0  0  0  0  0  0  0  0  0  0  0
    2.7991   11.9616   -7.5233 O   0  0  0  0  0  0  0  0  0  0  0  0
    3.7438   14.1605   -7.6623 C   0  0  0  0  0  0  0  0  0  0  0  0
    5.0233   14.6578   -7.9645 C   0  0  0  0  0  0  0  0  0  0  0  0
    5.2460   16.0257   -7.9865 C   0  0  0  0  0  0  0  0  0  0  0  0
    4.1885   16.8764   -7.7008 C   0  0  0  0  0  0  0  0  0  0  0  0
    2.9300   16.3809   -7.3970 C   0  0  0  0  0  0  0  0  0  0  0  0
    1.5318   17.5924   -7.0093 Br  0  0  0  0  0  0  0  0  0  0  0  0
    2.6832   15.0042   -7.3743 C   0  0  0  0  0  0  0  0  0  0  0  0
    1.1300   14.3909   -7.0008 Cl  0  0  0  0  0  0  0  0  0  0  0  0
    5.9172   13.5263   -8.2054 C   0  0  0  0  0  0  0  0  0  0  0  0
    7.2642   13.6364   -8.4402 C   0  0  0  0  0  0  0  0  0  0  0  0
    8.1782   12.5732   -8.6053 C   0  0  0  0  0  0  0  0  0  0  0  0
    9.0052   11.7866   -8.7355 N   0  0  0  0  0  0  0  0  0  0  0  0
    7.9554   14.8637   -8.5269 C   0  0  0  0  0  0  0  0  0  0  0  0
    8.5821   15.8217   -8.6145 N   0  0  0  0  0  0  0  0  0  0  0  0
   -2.9178   -4.2724   11.0365 H   0  0  0  0  0  0  0  0  0  0  0  0
   -6.6742   -2.3332   14.7459 H   0  0  0  0  0  0  0  0  0  0  0  0
   -9.1300   -2.3931   14.7547 H   0  0  0  0  0  0  0  0  0  0  0  0
   -7.7073   -1.9299    9.0868 H   0  0  0  0  0  0  0  0  0  0  0  0
   -7.9633   -0.3454   10.9430 H   0  0  0  0  0  0  0  0  0  0  0  0
   -5.5367    0.4698   13.2517 H   0  0  0  0  0  0  0  0  0  0  0  0
   -5.5015    1.8470   12.1604 H   0  0  0  0  0  0  0  0  0  0  0  0
   -7.0475    1.0983   12.5854 H   0  0  0  0  0  0  0  0  0  0  0  0
   -3.7256    0.1027   11.1455 H   0  0  0  0  0  0  0  0  0  0  0  0
   -3.4615   -1.4712    9.2942 H   0  0  0  0  0  0  0  0  0  0  0  0
   -6.2661   -0.6349    6.7428 H   0  0  0  0  0  0  0  0  0  0  0  0
   -7.9280   -0.5905    4.9310 H   0  0  0  0  0  0  0  0  0  0  0  0
   -9.5990   -1.6750    3.6195 H   0  0  0  0  0  0  0  0  0  0  0  0
  -10.1500   -3.2854    4.1040 H   0  0  0  0  0  0  0  0  0  0  0  0
   -8.8370   -3.1174    2.9445 H   0  0  0  0  0  0  0  0  0  0  0  0
   -8.4144   -4.8149    5.2644 H   0  0  0  0  0  0  0  0  0  0  0  0
   -6.7582   -4.8566    7.0984 H   0  0  0  0  0  0  0  0  0  0  0  0
   -2.5287   -7.7805    6.3648 H   0  0  0  0  0  0  0  0  0  0  0  0
   -1.9642   -9.5275    7.9901 H   0  0  0  0  0  0  0  0  0  0  0  0
    1.4208  -10.3074    9.0906 H   0  0  0  0  0  0  0  0  0  0  0  0
   -0.2831  -10.7778    9.1920 H   0  0  0  0  0  0  0  0  0  0  0  0
    0.3597   -9.5320   10.2620 H   0  0  0  0  0  0  0  0  0  0  0  0
    1.9987   -7.9782    8.2845 H   0  0  0  0  0  0  0  0  0  0  0  0
    1.4297   -6.2084    6.6800 H   0  0  0  0  0  0  0  0  0  0  0  0
    0.9177   -7.3709    4.3321 H   0  0  0  0  0  0  0  0  0  0  0  0
    2.3569   -6.7074    2.4619 H   0  0  0  0  0  0  0  0  0  0  0  0
    2.7710   -3.2773    1.2319 H   0  0  0  0  0  0  0  0  0  0  0  0
    3.3390   -4.9472    1.1002 H   0  0  0  0  0  0  0  0  0  0  0  0
    1.8659   -4.4528    0.2731 H   0  0  0  0  0  0  0  0  0  0  0  0
    0.7822   -2.7497    2.6517 H   0  0  0  0  0  0  0  0  0  0  0  0
   -0.6380   -3.4003    4.5269 H   0  0  0  0  0  0  0  0  0  0  0  0
   -0.3697   -7.8573    2.3081 H   0  0  0  0  0  0  0  0  0  0  0  0
   -0.3019  -10.1537    3.1720 H   0  0  0  0  0  0  0  0  0  0  0  0
   -2.2884  -11.0828    4.3281 H   0  0  0  0  0  0  0  0  0  0  0  0
   -4.3264   -9.7368    4.4995 H   0  0  0  0  0  0  0  0  0  0  0  0
   -4.7301   -6.2693    3.2513 H   0  0  0  0  0  0  0  0  0  0  0  0
   -5.5334   -7.8217    3.0575 H   0  0  0  0  0  0  0  0  0  0  0  0
   -6.2736   -6.5738    5.1004 H   0  0  0  0  0  0  0  0  0  0  0  0
   -5.6153   -8.1628    5.4850 H   0  0  0  0  0  0  0  0  0  0  0  0
   -4.6479   -6.7206    5.7656 H   0  0  0  0  0  0  0  0  0  0  0  0
    6.7559    1.9250   -5.8405 H   0  0  0  0  0  0  0  0  0  0  0  0
    5.0419    1.7985   -5.4276 H   0  0  0  0  0  0  0  0  0  0  0  0
    7.0306   -0.5248   -5.4618 H   0  0  0  0  0  0  0  0  0  0  0  0
    6.4050    0.2763   -4.0162 H   0  0  0  0  0  0  0  0  0  0  0  0
    5.3226   -0.6596   -5.0523 H   0  0  0  0  0  0  0  0  0  0  0  0
    7.6335    0.9212   -7.8808 H   0  0  0  0  0  0  0  0  0  0  0  0
    7.1916    0.2626  -10.2073 H   0  0  0  0  0  0  0  0  0  0  0  0
    4.8672   -0.1188  -10.9608 H   0  0  0  0  0  0  0  0  0  0  0  0
    3.0066    0.1542   -9.3650 H   0  0  0  0  0  0  0  0  0  0  0  0
   -1.5224   -1.7937    0.5353 H   0  0  0  0  0  0  0  0  0  0  0  0
   -1.7082   -0.9499   -0.9960 H   0  0  0  0  0  0  0  0  0  0  0  0
    0.2741   -0.1371    0.2736 H   0  0  0  0  0  0  0  0  0  0  0  0
    0.7896   -0.8690   -1.2480 H   0  0  0  0  0  0  0  0  0  0  0  0
    0.9594   -1.7667    0.2607 H   0  0  0  0  0  0  0  0  0  0  0  0
   -1.8492   -1.0813   -2.9051 H   0  0  0  0  0  0  0  0  0  0  0  0
   -0.9434    0.4426   -3.1388 H   0  0  0  0  0  0  0  0  0  0  0  0
   -1.2278    0.2055   -5.5962 H   0  0  0  0  0  0  0  0  0  0  0  0
   -2.0019   -1.3677   -5.3716 H   0  0  0  0  0  0  0  0  0  0  0  0
   -2.7953    0.1042   -4.7989 H   0  0  0  0  0  0  0  0  0  0  0  0
    4.6507    3.1052   -7.9410 H   0  0  0  0  0  0  0  0  0  0  0  0
    5.0758    3.6606  -10.1492 H   0  0  0  0  0  0  0  0  0  0  0  0
    7.4010    2.9087  -11.0013 H   0  0  0  0  0  0  0  0  0  0  0  0
   10.3087    4.4613   -9.2580 H   0  0  0  0  0  0  0  0  0  0  0  0
    9.9268    3.4569  -10.6661 H   0  0  0  0  0  0  0  0  0  0  0  0
   11.2446    5.4686  -11.3216 H   0  0  0  0  0  0  0  0  0  0  0  0
    9.6320    5.5262  -12.0420 H   0  0  0  0  0  0  0  0  0  0  0  0
   10.0029    6.5175  -10.6287 H   0  0  0  0  0  0  0  0  0  0  0  0
    1.2167    9.5144   -7.9674 H   0  0  0  0  0  0  0  0  0  0  0  0
   -0.8744   10.1981   -6.6172 H   0  0  0  0  0  0  0  0  0  0  0  0
   -2.4133    9.2778   -4.7213 H   0  0  0  0  0  0  0  0  0  0  0  0
   -2.1129    7.6087   -4.2089 H   0  0  0  0  0  0  0  0  0  0  0  0
   -0.3838    8.4050   -2.6032 H   0  0  0  0  0  0  0  0  0  0  0  0
   -0.6763   10.0720   -3.1065 H   0  0  0  0  0  0  0  0  0  0  0  0
   -1.9467    9.1643   -2.2795 H   0  0  0  0  0  0  0  0  0  0  0  0
    3.2196   10.0023   -7.1511 H   0  0  0  0  0  0  0  0  0  0  0  0
    6.6336   11.0330   -8.7827 H   0  0  0  0  0  0  0  0  0  0  0  0
    6.2107   16.4425   -8.2208 H   0  0  0  0  0  0  0  0  0  0  0  0
    4.3419   17.9444   -7.7128 H   0  0  0  0  0  0  0  0  0  0  0  0
  1  2  2  0  0  0  0
  2  3  1  0  0  0  0
  3  4  2  0  0  0  0
  3  5  1  0  0  0  0
  5  6  2  0  0  0  0
  6  7  1  0  0  0  0
  7  8  2  0  0  0  0
  8  9  1  0  0  0  0
  9 10  1  0  0  0  0
  9 11  2  0  0  0  0
 11 12  1  0  0  0  0
  6 13  1  0  0  0  0
 13 14  2  0  0  0  0
 14 15  1  0  0  0  0
 15 16  3  0  0  0  0
 14 17  1  0  0  0  0
 17 18  3  0  0  0  0
  1 19  1  0  0  0  0
 19 20  2  0  0  0  0
 20 21  1  0  0  0  0
 21 22  1  0  0  0  0
 22 23  2  0  0  0  0
 23 24  1  0  0  0  0
 24 25  2  0  0  0  0
 25 26  1  0  0  0  0
 25 27  1  0  0  0  0
 27 28  2  0  0  0  0
 21 29  1  0  0  0  0
 29 30  2  0  0  0  0
 30 31  1  0  0  0  0
 31 32  2  0  0  0  0
 32 33  1  0  0  0  0
 32 34  1  0  0  0  0
 34 35  2  0  0  0  0
 20 36  1  0  0  0  0
 36 37  1  0  0  0  0
 37 38  1  0  0  0  0
 38 39  2  0  0  0  0
 39 40  1  0  0  0  0
 40 41  1  0  0  0  0
 41 42  2  0  0  0  0
 42 43  1  0  0  0  0
 43 44  2  0  0  0  0
 44 45  1  0  0  0  0
 44 46  1  0  0  0  0
 46 47  2  0  0  0  0
 40 48  1  0  0  0  0
 48 49  2  0  0  0  0
 49 50  1  0  0  0  0
 50 51  2  0  0  0  0
 51 52  1  0  0  0  0
 51 53  1  0  0  0  0
 53 54  2  0  0  0  0
 39 55  1  0  0  0  0
 55 56  1  0  0  0  0
 38 57  1  0  0  0  0
 57 58  2  0  0  0  0
 58 59  1  0  0  0  0
 59 60  2  0  0  0  0
 60 61  1  0  0  0  0
 61 62  2  0  0  0  0
 62 63  1  0  0  0  0
 63 64  2  0  0  0  0
 64 65  1  0  0  0  0
 65 66  1  0  0  0  0
 58 67  1  0  0  0  0
 67 68  1  0  0  0  0
 68 69  1  0  0  0  0
 69 70  1  0  0  0  0
 70 71  1  0  0  0  0
 71 72  1  0  0  0  0
 72 73  2  0  0  0  0
 73 74  1  0  0  0  0
 74 75  1  0  0  0  0
 72 76  1  0  0  0  0
 76 77  1  0  0  0  0
 77 78  1  0  0  0  0
 78 79  1  0  0  0  0
 79 80  1  0  0  0  0
 80 81  1  0  0  0  0
 81 82  2  0  0  0  0
 82 83  1  0  0  0  0
 83 84  1  0  0  0  0
 82 85  1  0  0  0  0
 85 86  2  0  0  0  0
 86 87  1  0  0  0  0
 87 88  2  0  0  0  0
 80 89  2  0  0  0  0
 89 90  1  0  0  0  0
 90 91  1  0  0  0  0
 91 92  1  0  0  0  0
 92 93  1  0  0  0  0
 93 94  1  0  0  0  0
 94 95  1  0  0  0  0
 95 96  1  0  0  0  0
 96 97  1  0  0  0  0
 97 98  1  0  0  0  0
 98 99  1  0  0  0  0
 96100  1  0  0  0  0
100101  1  0  0  0  0
 93102  1  0  0  0  0
102103  1  0  0  0  0
 89104  1  0  0  0  0
104105  2  0  0  0  0
105106  1  0  0  0  0
106107  2  0  0  0  0
107108  1  0  0  0  0
108109  2  0  0  0  0
109110  1  0  0  0  0
110111  2  0  0  0  0
111112  1  0  0  0  0
112113  1  0  0  0  0
111114  1  0  0  0  0
107115  1  0  0  0  0
115116  2  0  0  0  0
116117  1  0  0  0  0
117118  1  0  0  0  0
118119  2  0  0  0  0
119120  1  0  0  0  0
120121  2  0  0  0  0
121122  1  0  0  0  0
122123  1  0  0  0  0
121124  1  0  0  0  0
117125  2  0  0  0  0
125126  1  0  0  0  0
116127  1  0  0  0  0
127128  2  0  0  0  0
128129  1  0  0  0  0
128130  1  0  0  0  0
130131  2  0  0  0  0
131132  1  0  0  0  0
132133  2  0  0  0  0
132134  1  0  0  0  0
134135  2  0  0  0  0
135136  1  0  0  0  0
136137  2  0  0  0  0
137138  1  0  0  0  0
138139  1  0  0  0  0
138140  2  0  0  0  0
140141  1  0  0  0  0
135142  1  0  0  0  0
142143  2  0  0  0  0
143144  1  0  0  0  0
144145  3  0  0  0  0
143146  1  0  0  0  0
146147  3  0  0  0  0
 13  2  1  0  0  0  0
 56 19  1  0  0  0  0
 99 57  1  0  0  0  0
126104  1  0  0  0  0
142131  1  0  0  0  0
 11  5  1  0  0  0  0
 28 22  1  0  0  0  0
 35 29  1  0  0  0  0
 55 36  2  0  0  0  0
 64 59  1  0  0  0  0
 98 67  2  0  0  0  0
125106  1  0  0  0  0
140134  1  0  0  0  0
 47 41  1  0  0  0  0
 54 48  1  0  0  0  0
 97 69  2  0  0  0  0
114108  1  0  0  0  0
129115  1  0  0  0  0
 95 70  2  0  0  0  0
124118  1  0  0  0  0
 75 71  2  0  0  0  0
 94 76  2  0  0  0  0
 92 77  2  0  0  0  0
 91 79  2  0  0  0  0
 88 81  1  0  0  0  0
  1148  1  0  0  0  0
  7149  1  0  0  0  0
  8150  1  0  0  0  0
 23151  1  0  0  0  0
 24152  1  0  0  0  0
 26153  1  0  0  0  0
 26154  1  0  0  0  0
 26155  1  0  0  0  0
 27156  1  0  0  0  0
 28157  1  0  0  0  0
 30158  1  0  0  0  0
 31159  1  0  0  0  0
 33160  1  0  0  0  0
 33161  1  0  0  0  0
 33162  1  0  0  0  0
 34163  1  0  0  0  0
 35164  1  0  0  0  0
 42165  1  0  0  0  0
 43166  1  0  0  0  0
 45167  1  0  0  0  0
 45168  1  0  0  0  0
 45169  1  0  0  0  0
 46170  1  0  0  0  0
 47171  1  0  0  0  0
 49172  1  0  0  0  0
 50173  1  0  0  0  0
 52174  1  0  0  0  0
 52175  1  0  0  0  0
 52176  1  0  0  0  0
 53177  1  0  0  0  0
 54178  1  0  0  0  0
 60179  1  0  0  0  0
 61180  1  0  0  0  0
 62181  1  0  0  0  0
 63182  1  0  0  0  0
 65183  1  0  0  0  0
 65184  1  0  0  0  0
 66185  1  0  0  0  0
 66186  1  0  0  0  0
 66187  1  0  0  0  0
 83188  1  0  0  0  0
 83189  1  0  0  0  0
 84190  1  0  0  0  0
 84191  1  0  0  0  0
 84192  1  0  0  0  0
 85193  1  0  0  0  0
 86194  1  0  0  0  0
 87195  1  0  0  0  0
 88196  1  0  0  0  0
100197  1  0  0  0  0
100198  1  0  0  0  0
101199  1  0  0  0  0
101200  1  0  0  0  0
101201  1  0  0  0  0
102202  1  0  0  0  0
102203  1  0  0  0  0
103204  1  0  0  0  0
103205  1  0  0  0  0
103206  1  0  0  0  0
105207  1  0  0  0  0
109208  1  0  0  0  0
110209  1  0  0  0  0
112210  1  0  0  0  0
112211  1  0  0  0  0
113212  1  0  0  0  0
113213  1  0  0  0  0
113214  1  0  0  0  0
119215  1  0  0  0  0
120216  1  0  0  0  0
122217  1  0  0  0  0
122218  1  0  0  0  0
123219  1  0  0  0  0
123220  1  0  0  0  0
123221  1  0  0  0  0
127222  1  0  0  0  0
130223  1  0  0  0  0
136224  1  0  0  0  0
137225  1  0  0  0  0
M  END
