258

C         -3.02390        5.46120       -6.18030
C         -3.45050        4.66070       -7.22520
C         -2.65770        3.55470       -7.77110
O         -1.54890        3.19870       -7.42230
C         -3.42790        3.05780       -8.93850
C         -4.58860        3.83470       -9.09590
C         -5.46630        3.56810      -10.13190
C         -5.18030        2.51520      -10.99030
C         -4.04460        1.74100      -10.81880
Br        -3.72580        0.29980      -12.00080
C         -3.13950        2.00450       -9.78580
Cl        -1.74060        1.03890       -9.55440
C         -4.63100        4.82460       -8.01890
C         -5.69930        5.63840       -7.72330
C         -6.89030        5.67760       -8.46980
N         -7.88780        5.73790       -9.03730
C         -5.75790        6.47640       -6.59270
N         -5.87990        7.15880       -5.67670
C         -2.15280        5.08760       -5.15950
C         -1.78880        3.82110       -4.64630
N         -2.30100        2.59980       -5.00090
C         -1.46370        1.46800       -4.93220
C         -1.97080        0.23780       -4.52550
C         -1.14740       -0.86870       -4.47620
C          0.20170       -0.77970       -4.79980
C          1.07710       -1.98980       -4.69760
C          0.69630        0.45020       -5.21460
C         -0.12240        1.55960       -5.29430
C         -3.62840        2.45650       -5.42280
C         -4.63260        3.26600       -4.88920
C         -5.92520        3.17250       -5.35630
C         -6.27250        2.24860       -6.34000
C         -7.67960        2.17900       -6.84000
C         -5.28090        1.40980       -6.82890
C         -3.97350        1.51350       -6.39000
C         -0.85940        3.96700       -3.59510
S         -0.06040        2.83260       -2.56470
C          0.70350        4.14750       -1.68800
C          0.39020        5.39740       -2.20140
N          0.96640        6.58480       -1.78930
C          0.20800        7.76510       -1.81170
C         -1.14530        7.74020       -1.48070
C         -1.89190        8.89980       -1.52510
C         -1.31420       10.11190       -1.88460
C         -2.14400       11.35750       -1.93490
C          0.03920       10.13000       -2.19720
C          0.79560        8.97490       -2.16800
C          2.29440        6.58990       -1.33060
C          2.66440        7.37670       -0.24340
C          3.94770        7.30660        0.25960
C          4.89500        6.45700       -0.29950
C          6.26160        6.33500        0.30120
C          4.53140        5.71060       -1.41280
C          3.25340        5.77830       -1.93080
C         -0.53490        5.27810       -3.26720
S         -1.38660        6.40640       -4.25410
C          1.60080        3.78410       -0.63460
C          1.71670        4.25420        0.65300
C          0.79670        5.23870        1.29930
C         -0.28560        4.49490        2.08640
C          2.68790        3.52550        1.36770
S          3.16240        3.51310        3.05430
C          4.05790        2.04970        2.77780
C          4.57800        0.96610        3.51050
C          4.57110        0.72990        4.90900
N          4.47630        1.72200        5.78790
C          4.34040        1.42790        7.07130
C          4.46060        2.55550        7.97140
S          5.26590        2.44310        9.50860
C          5.08360        4.13820        9.80120
C          5.60670        4.78750       11.03540
C          7.13600        4.78960       11.06050
C          4.44790        4.71770        8.74190
C          4.10150        3.84470        7.69500
F          4.16820        6.03400        8.70480
C          4.14270        0.07780        7.48020
C          3.68320       -0.32730        8.79050
C          3.92410       -1.53470        9.38550
C          3.26250       -1.64910       10.62060
F          3.37420       -2.74140       11.39980
C          2.50340       -0.57300       10.97950
C          1.66700       -0.39580       12.19910
C          0.17570       -0.39000       11.85980
S          2.60210        0.63920        9.74990
N          4.34000       -0.91240        6.62320
C          4.61960       -0.62040        5.35640
C          4.84420       -1.63830        4.39760
C          4.62200       -3.02900        4.48190
S          3.77650       -4.13810        5.51910
C          3.51650       -5.19980        4.14360
C          2.44410       -6.07640        3.86280
C          1.62460       -6.72250        4.92610
C          2.47900       -7.72780        5.70130
C          2.30040       -6.26820        2.50420
S          3.66930       -5.58440        1.58340
C          4.21430       -4.77910        3.01100
C          4.84430       -3.54670        3.20580
N          5.24510       -2.55820        2.34260
C          6.04740       -2.90620        1.18720
C          7.43870       -2.28520        1.26870
C          5.14490       -1.35900        3.03430
C          4.90590       -0.04730        2.56410
N          4.64780        0.43780        1.29730
C          4.06840        1.66660        1.43610
C          3.28990        2.50680        0.63190
S          2.69210        2.45180       -0.98070
C          4.69770       -0.18030       -0.00600
C          3.48820       -1.07410       -0.27300
C          1.10680       -6.31070        1.71190
C          0.02120       -5.46770        1.92800
N         -0.27420       -4.80230        3.12660
C         -1.07480       -5.43260        4.07910
C         -1.14470       -4.93760        5.38250
C         -1.90070       -5.58790        6.33470
C         -2.59830       -6.75310        6.03360
C         -3.42690       -7.43800        7.07720
C         -2.51500       -7.24740        4.74000
C         -1.76930       -6.60090        3.77250
C         -0.11190       -3.40130        3.11310
C          1.08620       -2.85290        2.66310
C          1.28640       -1.48820        2.70680
C          0.29850       -0.62940        3.17250
C          0.53750        0.84600        3.21860
C         -0.91420       -1.18040        3.56670
C         -1.12350       -2.54540        3.53850
C         -0.66930       -5.21530        0.72830
S         -1.92900       -4.11260        0.32500
C         -1.77900       -4.53740       -1.38570
C         -0.82130       -5.55630       -1.59440
N         -0.45670       -6.06770       -2.80480
C         -1.38850       -6.25740       -3.83800
C         -1.05360       -5.94610       -5.15240
C         -1.97780       -6.13010       -6.16190
C         -3.24830       -6.62590       -5.89200
C         -4.26240       -6.78380       -6.97970
C         -3.56760       -6.94880       -4.57690
C         -2.65320       -6.77210       -3.55860
C          0.89630       -6.39530       -3.03570
C          1.90500       -5.53330       -2.61220
C          3.22560       -5.86570       -2.83320
C          3.57210       -7.04510       -3.48430
C          5.01200       -7.39660       -3.69600
C          2.55500       -7.88560       -3.91880
C          1.22770       -7.57130       -3.69810
C         -0.17200       -5.87920       -0.38390
S          1.17060       -6.88760        0.05740
C         -2.53380       -3.84200       -2.33090
C         -3.04600       -2.56580       -2.22140
C         -4.19740       -2.17910       -3.05830
O         -4.69570       -2.82100       -3.95700
C         -4.62400       -0.85350       -2.54000
C         -3.71220       -0.42970       -1.55450
C         -3.90440        0.77240       -0.89820
C         -5.02700        1.52680       -1.21270
C         -5.92470        1.10480       -2.17930
Br        -7.46800        2.13750       -2.51430
C         -5.72540       -0.08890       -2.88260
Cl        -6.80360       -0.57940       -4.11860
C         -2.64980       -1.43080       -1.43960
C         -1.39600       -1.17670       -0.92650
C         -1.01270        0.03400       -0.32460
N         -0.63110        1.00440        0.15960
C         -0.29700       -2.03530       -1.09460
N          0.65180       -2.66220       -1.26820
H         -3.37050        6.48700       -6.14550
H         -6.35660        4.15420      -10.28770
H         -5.85230        2.28770      -11.80340
H         -3.01480        0.15250       -4.26270
H         -1.55670       -1.82500       -4.18500
H          0.61950       -2.83520       -5.20900
H          2.05610       -1.80280       -5.13070
H          1.20580       -2.26710       -3.65080
H          1.73520        0.54080       -5.49640
H          0.26050        2.49600       -5.66800
H         -4.39370        3.97810       -4.11320
H         -6.68340        3.82660       -4.95230
H         -7.93050        3.08570       -7.39100
H         -7.81890        1.32570       -7.49860
H         -8.37350        2.10030       -6.00460
H         -5.52590        0.67240       -7.57980
H         -3.21240        0.86620       -6.79870
H         -1.60630        6.80980       -1.18080
H         -2.94130        8.86550       -1.27160
H         -2.66100       11.51100       -0.98880
H         -1.52830       12.22880       -2.14220
H         -2.89950       11.27330       -2.71550
H          0.50980       11.06090       -2.47870
H          1.84440        9.00130       -2.42420
H          1.93660        8.03110        0.21320
H          4.21430        7.91020        1.11500
H          6.97340        5.94800       -0.42400
H          6.61380        7.29830        0.66340
H          6.23280        5.64940        1.14920
H          5.25740        5.06250       -1.88270
H          2.99220        5.19350       -2.80060
H          1.37140        5.87160        1.97790
H          0.32580        5.86870        0.54700
H          0.16080        3.92300        2.89550
H         -0.82060        3.80880        1.43340
H         -0.99310        5.20360        2.50950
H          5.23390        5.81340       11.06780
H          5.23330        4.25580       11.91420
H          7.49530        5.26780       11.96790
H          7.51380        3.77000       11.02890
H          7.52800        5.33150       10.20300
H          3.60630        4.14380        6.79080
H          4.55040       -2.29390        8.95790
H          1.88750       -1.21370       12.88820
H          1.92820        0.54660       12.68690
H         -0.41360       -0.25940       12.76360
H         -0.10970       -1.32870       11.39080
H         -0.05030        0.42310       11.17370
H          0.76930       -7.23120        4.48230
H          1.25920       -5.96000        5.61700
H          1.88020       -8.19930        6.47580
H          3.32270       -7.22710        6.17010
H          2.85790       -8.50070        5.03590
H          6.13420       -3.99610        1.19340
H          5.54660       -2.63380        0.25720
H          7.95160       -2.62930        2.16410
H          7.38130       -1.19960        1.30890
H          8.02470       -2.57370        0.40000
H          5.63740       -0.71940       -0.11980
H          4.69830        0.63570       -0.73460
H          2.57390       -0.48730       -0.22820
H          3.41070       -1.87620        0.45610
H          3.55900       -1.50960       -1.26560
H         -0.59660       -4.04420        5.64220
H         -1.94230       -5.18880        7.33800
H         -4.37840       -6.91960        7.20110
H         -2.91740       -7.43250        8.03860
H         -3.63580       -8.46690        6.79470
H         -3.04560       -8.15170        4.47790
H         -1.72470       -7.00620        2.77170
H          1.86380       -3.50070        2.29000
H          2.23310       -1.07690        2.39060
H          1.53880        1.05980        3.58670
H          0.44510        1.26380        2.21560
H         -0.18810        1.33770        3.86170
H         -1.70960       -0.53150        3.90440
H         -2.07290       -2.95550        3.85000
H         -0.07160       -5.55330       -5.37140
H         -1.71070       -5.87390       -7.17660
H         -4.92970       -5.92160       -6.98320
H         -3.78500       -6.84740       -7.95420
H         -4.86760       -7.67360       -6.82040
H         -4.54640       -7.34350       -4.34850
H         -2.91010       -7.02830       -2.54080
H          1.64730       -4.60760       -2.12020
H          4.00310       -5.19500       -2.49810
H          5.11410       -8.22640       -4.39030
H          5.46780       -7.68360       -2.74830
H          5.56310       -6.54220       -4.08460
H          2.80220       -8.80420       -4.43040
H          0.44470       -8.23560       -4.03280
H         -2.81650       -4.36430       -3.23910
H         -3.22110        1.11700       -0.13950
H         -5.21530        2.45400       -0.69350
