307

C         -7.64860        1.72090       -2.25070
C         -7.87850        1.40770       -0.92870
C         -8.66980        0.20000       -0.61300
O         -9.31340       -0.47760       -1.38220
C         -8.44390       -0.03610        0.83460
C         -7.69770        1.02800        1.37260
C         -7.37070        1.03980        2.71790
C         -7.75840       -0.03430        3.50790
C         -8.47590       -1.09040        2.96890
Br        -8.96910       -2.53580        4.08040
C         -8.84120       -1.10440        1.61840
Cl        -9.73520       -2.40710        0.95240
C         -7.39920        1.97220        0.29480
C         -6.92740        3.25970        0.44600
C         -6.38190        3.77130        1.63460
N         -5.87390        4.21400        2.56560
C         -7.00760        4.20240       -0.58990
N         -7.09420        4.99760       -1.41540
C         -6.59500        2.40070       -2.86790
C         -5.30350        2.75970       -2.42610
N         -4.72340        2.38840       -1.23200
C         -4.91660        1.09230       -0.71710
C         -4.78210        0.85460        0.64950
C         -4.96770       -0.41540        1.15830
C         -5.30720       -1.48130        0.33580
C         -5.56030       -2.84540        0.89390
C         -5.41910       -1.24140       -1.02950
C         -5.21590        0.01860       -1.55300
C         -3.64650        3.15800       -0.73440
C         -3.71940        4.54990       -0.73940
C         -2.67080        5.30040       -0.24770
C         -1.52740        4.69520        0.26160
C         -0.39070        5.52450        0.77420
C         -1.46590        3.30820        0.26550
C         -2.50450        2.54440       -0.22870
C         -4.57940        3.38550       -3.46190
S         -2.95150        3.95890       -3.57100
C         -3.11270        4.11490       -5.31800
C         -4.39090        3.82930       -5.76800
N         -4.77200        3.92510       -7.08740
C         -4.11490        4.80590       -7.96100
C         -3.70220        6.06520       -7.53390
C         -3.04720        6.91330       -8.40390
C         -2.79100        6.53940       -9.71750
C         -2.09750        7.47230      -10.66270
C         -3.21730        5.28570      -10.13870
C         -3.86760        4.42510       -9.27700
C         -5.76520        3.06250       -7.58720
C         -5.74370        1.70880       -7.26930
C         -6.73520        0.87090       -7.74120
C         -7.75600        1.35530       -8.54830
C         -8.84560        0.45070       -9.03530
C         -7.75410        2.70600       -8.88040
C         -6.77530        3.55590       -8.40670
C         -5.22450        3.42460       -4.69360
S         -6.81780        2.77500       -4.58460
C         -1.88110        4.09440       -6.05070
C         -0.70960        4.73490       -5.74290
C          0.41550        4.01530       -6.17240
S          2.09250        4.08310       -5.69580
C          2.26400        2.40360       -6.11860
C          3.06590        1.35660       -5.55550
C          4.11620        1.42960       -4.64390
C          4.35090        0.31970       -3.86330
C          5.22350        0.22610       -2.60840
C          6.66500       -0.06530       -2.98190
C          7.24900        0.51920       -4.10070
C          8.56830        0.26270       -4.42400
C          9.34520       -0.58800       -3.64870
C         10.79100       -0.82590       -3.97610
C         11.67520        0.20210       -3.26730
C          8.75700       -1.17980       -2.54020
C          7.43740       -0.92600       -2.21510
C          5.03420        1.54900       -1.88530
C          3.82020        1.79130       -1.25380
C          3.51930        3.04300       -0.75900
C          4.41790        4.09410       -0.88380
C          4.03590        5.47580       -0.43800
C          3.23920        6.18330       -1.53660
C          5.64040        3.84180       -1.48740
C          5.94840        2.58670       -1.98290
C          4.56630       -0.94200       -1.89550
C          3.66610       -1.55120       -2.76760
C          3.53940       -0.82620       -3.98950
C          2.60830       -0.96200       -5.01800
C          2.37830        0.14360       -5.79970
C          1.20780        0.36430       -6.74630
C         -0.04870       -0.25740       -6.16270
C         -0.63120       -1.38950       -6.71350
C         -1.76490       -1.94260       -6.14590
C         -2.34820       -1.38190       -5.01850
C         -3.60350       -1.95940       -4.42990
C         -4.83850       -1.33960       -5.08560
C         -1.75820       -0.25270       -4.46600
C         -0.61630        0.29330       -5.01850
C          1.47730       -0.09570       -8.16470
C          0.57450        0.25080       -9.16400
C          0.78860       -0.14500      -10.46930
C          1.90750       -0.89480      -10.81190
C          2.15940       -1.29180      -12.23810
C          2.99150       -0.22450      -12.95160
C          2.80890       -1.22980       -9.81150
C          2.59970       -0.83660       -8.50140
C          1.13750        1.87200       -6.71880
C          0.09680        2.79830       -6.78580
S         -1.60620        2.64710       -7.03770
S          2.61750       -2.70870       -2.02830
C          3.37100       -2.35510       -0.52080
C          3.06290       -2.60820        0.83380
C          3.96740       -1.92720        1.63980
C          5.03210       -1.26170        0.78910
C          4.43470       -1.44570       -0.59870
C          6.26660       -2.13670        0.99710
C          7.10190       -1.89260        2.08040
C          8.20280       -2.69370        2.31510
C          8.49730       -3.76650        1.48370
C          9.67370       -4.65690        1.76200
C          9.27160       -5.79240        2.70530
C          7.64230       -4.02730        0.42220
C          6.53750       -3.23020        0.18430
C          5.30520        0.18190        1.14730
C          6.49520        0.78820        0.76330
C          6.76530        2.09470        1.11870
C          5.85680        2.83830        1.85930
C          6.18780        4.23530        2.29690
C          6.98150        4.21290        3.60480
C          4.66120        2.23710        2.22350
C          4.38640        0.92890        1.87060
C          3.61980       -1.95770        2.98620
C          2.40220       -2.57770        3.19370
S          1.75720       -3.28050        1.72030
C          1.64760       -2.54890        4.40450
C          0.30130       -2.24850        4.57990
N         -0.67060       -2.03900        3.61750
C         -1.94020       -2.58920        3.92230
C         -3.08030       -1.79570        3.91350
C         -4.30140       -2.34460        4.25830
C         -4.41230       -3.68250        4.62170
C         -5.73750       -4.26970        4.98750
C         -3.26290       -4.46410        4.62830
C         -2.03850       -3.92830        4.28460
C         -0.47430       -1.35140        2.42280
C         -1.25580       -1.65990        1.30830
C         -1.03190       -1.02940        0.10270
C         -0.02420       -0.08160       -0.04050
C          0.24900        0.54200       -1.37520
C          0.72230        0.25130        1.08280
C          0.49870       -0.36030        2.30170
C         -0.01910       -2.19450        5.95650
S         -1.43680       -1.70610        6.80450
C         -0.63580       -1.96180        8.35890
C          0.71870       -2.33580        8.18450
N          1.63250       -2.54250        9.18040
C          2.64530       -3.50070        8.99600
C          2.34970       -4.72470        8.39920
C          3.34400       -5.66370        8.22090
C          4.64790       -5.41750        8.63800
C          5.71830       -6.44150        8.41970
C          4.92800       -4.20040        9.24620
C          3.94400       -3.24770        9.42480
C          1.64250       -1.76010       10.35340
C          1.45950       -0.38140       10.27870
C          1.42490        0.37180       11.43360
C          1.58570       -0.22090       12.68130
C          1.47930        0.59370       13.93060
C          1.81050       -1.59080       12.74010
C          1.84020       -2.35910       11.59270
C          1.03260       -2.46890        6.81600
S          2.49770       -2.75420        5.93250
C         -1.27170       -1.72970        9.57790
C         -2.51180       -1.21260        9.87420
C         -2.66180       -0.51860       11.17130
O         -1.92600       -0.58490       12.13430
C         -3.85760        0.34040       11.01150
C         -4.38920        1.26850       11.88490
C         -5.50860        1.98680       11.49090
C         -6.06210        1.75990       10.23940
Br        -7.58530        2.76960        9.71380
C         -5.54820        0.82180        9.35140
C         -4.43420        0.10620        9.74980
C         -3.69610       -0.97910        9.09750
C         -4.20390       -1.79030        8.10880
C         -5.32830       -1.46080        7.33590
N         -6.20840       -1.19080        6.64700
C         -3.69130       -3.08220        7.87410
N         -3.35740       -4.17440        7.75360
H         -8.36680        1.28220       -2.93810
H         -6.80960        1.84990        3.15480
H         -7.49440       -0.06250        4.55500
H         -4.53510        1.67040        1.31320
H         -4.86550       -0.57620        2.21850
H         -5.16920       -2.93240        1.90440
H         -6.63220       -3.04200        0.92120
H         -5.10190       -3.60880        0.26810
H         -5.66670       -2.05570       -1.69450
H         -5.28860        0.17000       -2.61840
H         -4.60050        5.04220       -1.12000
H         -2.74710        6.37750       -0.25390
H         -0.75910        6.33600        1.39830
H          0.30040        4.91890        1.35530
H          0.15570        5.96660       -0.05940
H         -0.59490        2.80600        0.65970
H         -2.42480        1.46780       -0.21730
H         -3.90070        6.37960       -6.52010
H         -2.73410        7.88720       -8.05630
H         -2.83200        8.06830      -11.20570
H         -1.44260        8.15380      -10.12490
H         -1.51010        6.91870      -11.39180
H         -3.02830        4.97300      -11.15560
H         -4.18100        3.44850       -9.61510
H         -4.93540        1.31930       -6.66780
H         -6.71090       -0.17740       -7.48180
H         -9.18170        0.74520      -10.02700
H         -8.50820       -0.58260       -9.06770
H         -9.70090        0.50550       -8.36100
H         -8.53700        3.09880       -9.51270
H         -6.78500        4.60440       -8.66530
H         -0.66660        5.63230       -5.15330
H          4.62440        2.36670       -4.47020
H          6.67080        1.17540       -4.73270
H          9.00000        0.72890       -5.29870
H         10.94440       -0.75000       -5.05450
H         11.08160       -1.82950       -3.65860
H         11.40930        1.20940       -3.58050
H         11.54430        0.13340       -2.18950
H         12.72310        0.03060       -3.50230
H          9.33160       -1.85450       -1.92080
H          7.00940       -1.41750       -1.35790
H          3.10130        0.99120       -1.16450
H          2.56420        3.21620       -0.28210
H          4.93080        6.05730       -0.20980
H          3.42540        5.41680        0.46570
H          2.34360        5.61550       -1.78020
H          3.83810        6.27230       -2.44010
H          2.94600        7.18010       -1.21430
H          6.36080        4.64180       -1.58680
H          6.90490        2.42260       -2.45640
H          2.00850       -1.85520       -5.11120
H         -0.19770       -1.84690       -7.59070
H         -2.20130       -2.82740       -6.58750
H         -3.62050       -3.04020       -4.58460
H         -3.62800       -1.76720       -3.35510
H         -4.83470       -1.53690       -6.15530
H         -4.84390       -0.26100       -4.93980
H         -5.75030       -1.75080       -4.65800
H         -2.19870        0.20200       -3.58880
H         -0.16050        1.15680       -4.55410
H         -0.30620        0.82460       -8.91130
H          0.07510        0.12820      -11.23360
H          1.20910       -1.41620      -12.76100
H          2.69370       -2.24370      -12.26850
H          3.17430       -0.51130      -13.98460
H          2.46970        0.72990      -12.94250
H          3.94890       -0.09490      -12.45180
H          3.68610       -1.81170      -10.05730
H          3.31330       -1.11190       -7.73880
H          6.89340       -1.06410        2.74110
H          8.84460       -2.48050        3.15820
H         10.04690       -5.08120        0.82770
H         10.47770       -4.07670        2.21970
H          8.48040       -6.39130        2.25960
H         10.12290       -6.43740        2.91030
H          8.90500       -5.38930        3.64680
H          7.84140       -4.86420       -0.23200
H          5.88770       -3.46760       -0.64550
H          7.22450        0.23570        0.19090
H          7.69950        2.54430        0.81450
H          6.77970        4.73030        1.52490
H          5.26920        4.80620        2.44280
H          6.40170        3.73300        4.39030
H          7.90740        3.65690        3.47560
H          7.22460        5.22450        3.92140
H          3.93420        2.79780        2.79470
H          3.45030        0.48290        2.16850
H          4.16620       -1.48280        3.78170
H         -2.99250       -0.75160        3.64940
H         -5.18390       -1.72080        4.27720
H         -5.61060       -5.09820        5.67930
H         -6.37930       -3.52170        5.44510
H         -6.24400       -4.64400        4.09730
H         -3.32840       -5.50190        4.91680
H         -1.14830       -4.54090        4.29800
H         -2.02630       -2.41140        1.39030
H         -1.63830       -1.29440       -0.75210
H          0.81800       -0.14550       -2.00380
H          0.81670        1.46350       -1.27500
H         -0.67910        0.76560       -1.89500
H          1.49690        1.00140        1.00130
H          1.08500       -0.08040        3.16540
H          1.33700       -4.93660        8.08840
H          3.10330       -6.60940        7.75760
H          5.36020       -7.43470        8.68350
H          6.00650       -6.46010        7.36840
H          6.60110       -6.21620        9.01230
H          5.93330       -3.98960        9.58080
H          4.17690       -2.30240        9.89220
H          1.32540        0.08590        9.31370
H          1.26620        1.43810       11.36700
H          1.84450        1.60570       13.77070
H          2.03580        0.13730       14.74550
H          0.43160        0.65460       14.22580
H          1.94510       -2.06810       13.69940
H          1.99510       -3.42650       11.64910
H         -0.64850       -1.84450       10.45820
H         -3.93970        1.42460       12.85310
H         -5.95020        2.72000       12.14790
H         -6.00740        0.67760        8.38690
