255

C          6.72320       10.32240       -0.76150
C          6.74720       10.67340        0.57800
C          6.56000        9.76810        1.70570
O          6.30190        8.57760        1.68380
C          6.77840       10.58580        2.92160
C          7.09240       11.90300        2.54240
C          7.34300       12.85880        3.51250
C          7.27460       12.48530        4.84790
C          6.96030       11.18710        5.21490
Br         6.87290       10.74280        7.05110
C          6.70580       10.20670        4.24990
Cl         6.31760        8.59910        4.69560
C          7.05690       11.98440        1.08010
C          7.25960       13.13700        0.35450
C          7.08590       13.27210       -1.03520
N          6.93010       13.48460       -2.15500
C          7.64320       14.36880        0.91840
N          7.97580       15.39700        1.30880
C          6.40250        9.12020       -1.37140
C          6.40990        8.93700       -2.78610
N          6.99060        9.77260       -3.69140
C          6.54130        9.73760       -5.03080
C          5.18830        9.88870       -5.31770
C          4.75050        9.82510       -6.62550
C          5.64280        9.61370       -7.67050
C          5.15230        9.50200       -9.08060
C          6.99450        9.48670       -7.37250
C          7.44610        9.54910       -6.06940
C          8.14840       10.52740       -3.41420
C          8.30150       11.78300       -3.99530
C          9.43430       12.52860       -3.73630
C         10.43140       12.05170       -2.89380
C         11.63090       12.89360       -2.58780
C         10.27850       10.78610       -2.33840
C          9.15820       10.02300       -2.59900
C          5.74550        7.75020       -3.13370
S          5.37710        6.96730       -4.63770
C          4.66140        5.61580       -3.78030
C          4.78250        5.73720       -2.39850
N          4.45530        4.77070       -1.46230
C          4.03800        5.21060       -0.19040
C          4.57440        4.65300        0.96560
C          4.19510        5.13270        2.20260
C          3.28250        6.17470        2.32130
C          2.92260        6.72660        3.66540
C          2.73790        6.71100        1.16190
C          3.10330        6.23540       -0.08190
C          4.64220        3.40560       -1.70450
C          5.65320        2.94440       -2.54690
C          5.74380        1.60110       -2.85280
C          4.84950        0.67590       -2.32790
C          4.93650       -0.77110       -2.70540
C          3.88760        1.13330       -1.43590
C          3.77850        2.47480       -1.12680
C          5.35970        6.97890       -2.04420
S          5.75240        7.70620       -0.52930
C          4.06560        4.50390       -4.45540
C          4.59280        3.69040       -5.43900
C          5.77430        4.00580       -6.24480
C          5.82360        5.18190       -6.98780
C          6.94340        5.47330       -7.74370
C          8.01030        4.59300       -7.77580
C          7.96380        3.39910       -7.06620
C          9.12460        2.44640       -7.07710
C         10.03820        2.70140       -5.87650
C          6.84060        3.11670       -6.30390
C          3.88080        2.47590       -5.52700
S          4.20960        0.97650       -6.36140
C          2.88250        0.24220       -5.52330
C          2.34980       -1.03780       -5.28960
C          2.80100       -2.32700       -5.65090
C          2.22990       -3.47730       -4.99990
N          2.81930       -4.60540       -5.36260
S          3.98410       -4.25850       -6.43260
N          3.78790       -2.65100       -6.47120
C          1.14120       -3.29830       -4.11830
C          0.36810       -4.19630       -3.35560
S          0.32210       -5.87620       -2.93610
C         -1.06170       -5.57220       -1.91060
C         -1.81090       -6.39390       -1.02950
C         -1.56070       -7.82810       -0.88580
C         -1.18610       -8.57050       -2.00510
C         -0.95340       -9.92690       -1.89320
C         -1.08970      -10.56130       -0.67100
C         -1.44310       -9.83580        0.45870
C         -1.63660      -10.51760        1.78180
C         -3.10880      -10.89330        1.96280
C         -1.66980       -8.47260        0.34090
C         -2.80260       -5.67040       -0.40840
S         -2.80900       -3.97180       -0.89400
C         -1.46410       -4.24110       -1.93350
C         -0.64370       -3.45210       -2.74950
N         -0.52820       -2.12660       -3.08630
C          0.59080       -2.00930       -3.89440
C          1.28900       -0.86930       -4.35920
N          1.21150        0.46330       -4.00840
C          2.18770        1.12970       -4.69730
C          2.77410        2.40030       -4.68310
S          2.57560        3.85450       -3.77740
C          0.56380        1.08820       -2.87720
C         -0.48760        2.10900       -3.31020
C         -1.71110       -1.29230       -3.10430
C         -2.78300       -1.87700       -4.02370
C         -3.87680       -6.01460        0.49290
C         -5.21720       -5.83080        0.19550
N         -5.69980       -5.54260       -1.06610
C         -5.04630       -6.04900       -2.20150
C         -4.61650       -7.37090       -2.23920
C         -3.93770       -7.84830       -3.34280
C         -3.65330       -7.02250       -4.42240
C         -2.85530       -7.51720       -5.58940
C         -4.11020       -5.70920       -4.38740
C         -4.80760       -5.22600       -3.29940
C         -6.79060       -4.67210       -1.21050
C         -7.74470       -4.90410       -2.19610
C         -8.82690       -4.05590       -2.32530
C         -8.99180       -2.96700       -1.47860
C        -10.18000       -2.06260       -1.59390
C         -8.02670       -2.73580       -0.50500
C         -6.93440       -3.56860       -0.37260
C         -6.02440       -5.97730        1.34930
S         -7.71050       -5.79440        1.65400
C         -7.45470       -6.08220        3.38450
C         -6.08320       -6.23830        3.69480
N         -5.52070       -6.22430        4.93460
C         -4.25130       -6.81860        5.12080
C         -3.23460       -6.10110        5.74140
C         -1.99700       -6.68480        5.92720
C         -1.75260       -7.98990        5.51490
C         -0.40190       -8.61050        5.69600
C         -2.78560       -8.70180        4.91620
C         -4.02330       -8.12660        4.70890
C         -6.10660       -5.58650        6.03620
C         -6.78240       -4.37430        5.89670
C         -7.37900       -3.78390        6.99000
C         -7.32250       -4.37490        8.25070
C         -8.02390       -3.74480        9.41210
C         -6.60820       -5.55700        8.38970
C         -6.00280       -6.15900        7.30210
C         -5.30930       -6.23520        2.51040
S         -3.61340       -6.37290        2.19110
C         -8.58630       -6.05950        4.19440
C         -8.69160       -6.59360        5.46640
C         -7.89960       -7.73500        5.94280
O         -7.05100       -8.35460        5.32940
C         -8.44160       -8.05860        7.28470
C         -8.04710       -9.03670        8.16740
C         -8.70930       -9.12740        9.39520
C         -8.25890      -10.16600       10.35510
O         -7.30070      -10.87850       10.18320
O         -9.03520      -10.23060       11.44680
C         -8.66500      -11.20400       12.41140
C         -9.75280       -8.25530        9.69650
C        -10.15150       -7.27380        8.80030
C         -9.48670       -7.16880        7.59000
C         -9.63940       -6.23210        6.47670
C        -10.41850       -5.09840        6.48260
C        -10.41620       -4.13950        5.45140
N        -10.43660       -3.30190        4.66490
C        -11.24000       -4.71010        7.55520
N        -11.91190       -4.33210        8.40780
H          6.98080       11.11530       -1.45160
H          7.58780       13.87650        3.25920
H          7.46640       13.21570        5.61880
H          4.48910       10.05730       -4.51200
H          3.69830        9.94220       -6.83920
H          5.94190        9.74080       -9.78870
H          4.81820        8.48230       -9.27620
H          4.30960       10.16770       -9.25220
H          7.70500        9.33070       -8.17120
H          8.49740        9.44130       -5.84720
H          7.52570       12.17340       -4.63470
H          9.53560       13.50690       -4.18080
H         11.34410       13.73220       -1.95320
H         12.39330       12.31630       -2.07080
H         12.05700       13.30190       -3.50240
H         11.05120       10.38640       -1.69760
H          9.05880        9.03800       -2.16700
H          5.29800        3.85500        0.88560
H          4.62940        4.70220        3.09320
H          1.93150        7.17450        3.65300
H          2.95320        5.95140        4.42800
H          3.63820        7.50040        3.94400
H          2.01950        7.51520        1.23210
H          2.67300        6.65940       -0.97820
H          6.36210        3.64270       -2.96740
H          6.52500        1.26050       -3.51680
H          5.75530       -1.25380       -2.17120
H          5.12440       -0.87990       -3.77210
H          4.01470       -1.29450       -2.46000
H          3.20170        0.42770       -0.98780
H          3.00670        2.81900       -0.45360
H          4.97450        5.84940       -6.99300
H          6.98040        6.39200       -8.31010
H          8.88360        4.82680       -8.36780
H          9.69700        2.56990       -7.99830
H          8.75690        1.41910       -7.03810
H          9.48840        2.57150       -4.94690
H         10.42540        3.71770       -5.90450
H         10.87720        2.00970       -5.88280
H          6.79240        2.19540       -5.74270
H         -1.09290       -8.08700       -2.96420
H         -0.66520      -10.49400       -2.76630
H         -0.91110      -11.62400       -0.59040
H         -1.33120       -9.84790        2.58800
H         -1.02340      -11.41980        1.82920
H         -3.72720       -9.99850        1.96680
H         -3.26030      -11.42550        2.89900
H         -3.43690      -11.53410        1.14710
H         -1.90910       -7.90290        1.22550
H          1.33690        1.61140       -2.30320
H          0.13810        0.31440       -2.23820
H         -1.00550        2.49400       -2.43640
H         -0.00940        2.94080       -3.82030
H         -1.21900        1.67410       -3.98820
H         -1.44550       -0.30500       -3.46770
H         -2.10000       -1.21730       -2.08360
H         -3.65080       -1.22290       -4.03460
H         -3.09330       -2.85970       -3.68000
H         -2.39850       -1.96770       -5.03770
H         -4.80970       -8.02060       -1.39820
H         -3.61980       -8.88030       -3.35780
H         -3.32440       -7.23050       -6.52890
H         -2.75590       -8.59920       -5.56130
H         -1.85600       -7.08000       -5.57070
H         -3.90860       -5.05460       -5.22360
H         -5.16210       -4.20530       -3.28060
H         -7.63340       -5.75390       -2.85340
H         -9.56250       -4.25250       -3.09190
H         -9.86730       -1.02040       -1.63410
H        -10.75870       -2.28990       -2.48560
H        -10.82550       -2.18160       -0.72400
H         -8.13180       -1.88810        0.15630
H         -6.18120       -3.36360        0.37460
H         -3.41950       -5.08890        6.07080
H         -1.20880       -6.11840        6.40130
H         -0.48100       -9.68990        5.80120
H          0.09910       -8.20480        6.57160
H          0.22140       -8.40110        4.82550
H         -2.62320       -9.72690        4.62140
H         -4.83300       -8.68700        4.26870
H         -6.84180       -3.89790        4.92960
H         -7.90610       -2.84930        6.86400
H         -7.77450       -4.25240       10.34010
H         -7.75200       -2.69420        9.49950
H         -9.10420       -3.79390        9.27270
H         -6.53500       -6.02720        9.35950
H         -5.45930       -7.08370        7.42400
H         -9.46500       -5.60160        3.75580
H         -7.24220       -9.71700        7.93490
H         -8.63150      -12.19590       11.95600
H         -9.42260      -11.16440       13.18970
H         -7.67960      -10.97450       12.82260
H        -10.25470       -8.34740       10.64680
H        -10.96620       -6.61520        9.05450
