
  xtb     02072203583D
 energy: -414.333659577587 gnorm: 0.000715304147 xtb: 6.4.1 (unknown)
249274  0     0  0            999 V2000
    8.0710    8.5085    5.8414 C   0  0  0  0  0  0  0  0  0  0  0  0
    7.4739    9.7441    5.7597 C   0  0  0  0  0  0  0  0  0  0  0  0
    7.8770   10.8163    6.6886 C   0  0  0  0  0  0  0  0  0  0  0  0
    8.8299   10.8163    7.4364 O   0  0  0  0  0  0  0  0  0  0  0  0
    6.8418   11.8706    6.5315 C   0  0  0  0  0  0  0  0  0  0  0  0
    5.9604   11.5027    5.4977 C   0  0  0  0  0  0  0  0  0  0  0  0
    4.8745   12.3015    5.1867 C   0  0  0  0  0  0  0  0  0  0  0  0
    4.6844   13.4709    5.9097 C   0  0  0  0  0  0  0  0  0  0  0  0
    5.5635   13.8407    6.9147 C   0  0  0  0  0  0  0  0  0  0  0  0
    5.2567   15.4523    7.8546 Br  0  0  0  0  0  0  0  0  0  0  0  0
    6.6642   13.0424    7.2467 C   0  0  0  0  0  0  0  0  0  0  0  0
    7.7475   13.4968    8.4932 Cl  0  0  0  0  0  0  0  0  0  0  0  0
    6.4292   10.2451    4.9132 C   0  0  0  0  0  0  0  0  0  0  0  0
    6.1177    9.8132    3.6442 C   0  0  0  0  0  0  0  0  0  0  0  0
    5.1889   10.4513    2.8059 C   0  0  0  0  0  0  0  0  0  0  0  0
    4.4504   10.9399    2.0730 N   0  0  0  0  0  0  0  0  0  0  0  0
    6.8023    8.7775    2.9817 C   0  0  0  0  0  0  0  0  0  0  0  0
    7.3753    7.9882    2.3733 N   0  0  0  0  0  0  0  0  0  0  0  0
    7.5599    7.2795    5.4221 C   0  0  0  0  0  0  0  0  0  0  0  0
    8.2645    6.0615    5.3255 C   0  0  0  0  0  0  0  0  0  0  0  0
    9.6158    5.9384    5.4094 N   0  0  0  0  0  0  0  0  0  0  0  0
   10.1971    4.6894    5.7071 C   0  0  0  0  0  0  0  0  0  0  0  0
    9.7369    3.9318    6.7790 C   0  0  0  0  0  0  0  0  0  0  0  0
   10.3331    2.7209    7.0761 C   0  0  0  0  0  0  0  0  0  0  0  0
   11.3939    2.2416    6.3202 C   0  0  0  0  0  0  0  0  0  0  0  0
   12.0571    0.9389    6.6417 C   0  0  0  0  0  0  0  0  0  0  0  0
   11.8482    3.0098    5.2520 C   0  0  0  0  0  0  0  0  0  0  0  0
   11.2637    4.2204    4.9453 C   0  0  0  0  0  0  0  0  0  0  0  0
   10.4963    6.9952    5.0778 C   0  0  0  0  0  0  0  0  0  0  0  0
   11.5949    7.2476    5.8916 C   0  0  0  0  0  0  0  0  0  0  0  0
   12.4681    8.2690    5.5723 C   0  0  0  0  0  0  0  0  0  0  0  0
   12.2691    9.0538    4.4427 C   0  0  0  0  0  0  0  0  0  0  0  0
   13.1977   10.1841    4.1257 C   0  0  0  0  0  0  0  0  0  0  0  0
   11.1779    8.7755    3.6267 C   0  0  0  0  0  0  0  0  0  0  0  0
   10.3005    7.7533    3.9283 C   0  0  0  0  0  0  0  0  0  0  0  0
    7.3828    4.9943    5.0481 C   0  0  0  0  0  0  0  0  0  0  0  0
    7.5870    3.2932    4.8097 S   0  0  0  0  0  0  0  0  0  0  0  0
    5.8777    3.1162    4.4543 C   0  0  0  0  0  0  0  0  0  0  0  0
    5.1771    4.3142    4.5706 C   0  0  0  0  0  0  0  0  0  0  0  0
    3.8093    4.4769    4.4396 N   0  0  0  0  0  0  0  0  0  0  0  0
    3.3106    5.6662    3.8773 C   0  0  0  0  0  0  0  0  0  0  0  0
    2.1673    6.2600    4.4030 C   0  0  0  0  0  0  0  0  0  0  0  0
    1.6555    7.4068    3.8295 C   0  0  0  0  0  0  0  0  0  0  0  0
    2.2690    7.9982    2.7318 C   0  0  0  0  0  0  0  0  0  0  0  0
    1.6905    9.2162    2.0835 C   0  0  0  0  0  0  0  0  0  0  0  0
    3.4271    7.4128    2.2312 C   0  0  0  0  0  0  0  0  0  0  0  0
    3.9436    6.2595    2.7877 C   0  0  0  0  0  0  0  0  0  0  0  0
    2.9232    3.4848    4.8751 C   0  0  0  0  0  0  0  0  0  0  0  0
    3.2235    2.7081    5.9917 C   0  0  0  0  0  0  0  0  0  0  0  0
    2.4101    1.6527    6.3484 C   0  0  0  0  0  0  0  0  0  0  0  0
    1.2592    1.3587    5.6257 C   0  0  0  0  0  0  0  0  0  0  0  0
    0.4155    0.1754    5.9895 C   0  0  0  0  0  0  0  0  0  0  0  0
    0.9287    2.1800    4.5553 C   0  0  0  0  0  0  0  0  0  0  0  0
    1.7469    3.2251    4.1746 C   0  0  0  0  0  0  0  0  0  0  0  0
    6.0553    5.3716    4.8987 C   0  0  0  0  0  0  0  0  0  0  0  0
    5.8279    7.0655    5.1299 S   0  0  0  0  0  0  0  0  0  0  0  0
    5.3798    1.8324    4.0800 C   0  0  0  0  0  0  0  0  0  0  0  0
    5.7772    0.5975    4.5507 C   0  0  0  0  0  0  0  0  0  0  0  0
    6.7628    0.3711    5.6212 C   0  0  0  0  0  0  0  0  0  0  0  0
    6.4628    0.8100    6.9061 C   0  0  0  0  0  0  0  0  0  0  0  0
    7.3144    0.5494    7.9616 C   0  0  0  0  0  0  0  0  0  0  0  0
    8.4781   -0.1648    7.7380 C   0  0  0  0  0  0  0  0  0  0  0  0
    8.7883   -0.5889    6.4593 C   0  0  0  0  0  0  0  0  0  0  0  0
    7.9481   -0.3299    5.3854 C   0  0  0  0  0  0  0  0  0  0  0  0
    8.3573   -0.7518    4.0033 C   0  0  0  0  0  0  0  0  0  0  0  0
    8.9174    0.4354    3.2181 C   0  0  0  0  0  0  0  0  0  0  0  0
    5.0235   -0.4385    3.9668 C   0  0  0  0  0  0  0  0  0  0  0  0
    4.9698   -2.1634    4.2479 S   0  0  0  0  0  0  0  0  0  0  0  0
    3.6739   -2.2847    3.1041 C   0  0  0  0  0  0  0  0  0  0  0  0
    2.7967   -3.2526    2.5853 C   0  0  0  0  0  0  0  0  0  0  0  0
    2.5883   -4.6103    2.9158 C   0  0  0  0  0  0  0  0  0  0  0  0
    1.4574   -5.3022    2.3574 C   0  0  0  0  0  0  0  0  0  0  0  0
    1.3447   -6.5379    2.8185 N   0  0  0  0  0  0  0  0  0  0  0  0
    2.5566   -6.8129    3.8562 S   0  0  0  0  0  0  0  0  0  0  0  0
    3.2720   -5.3634    3.7628 N   0  0  0  0  0  0  0  0  0  0  0  0
    0.6639   -4.6471    1.3905 C   0  0  0  0  0  0  0  0  0  0  0  0
   -0.4420   -5.0640    0.6247 C   0  0  0  0  0  0  0  0  0  0  0  0
   -1.5062   -6.4233    0.4751 S   0  0  0  0  0  0  0  0  0  0  0  0
   -2.3562   -5.5914   -0.8033 C   0  0  0  0  0  0  0  0  0  0  0  0
   -3.4897   -5.9274   -1.5744 C   0  0  0  0  0  0  0  0  0  0  0  0
   -4.2524   -7.1672   -1.3734 C   0  0  0  0  0  0  0  0  0  0  0  0
   -5.6257   -7.1894   -1.1067 C   0  0  0  0  0  0  0  0  0  0  0  0
   -6.4441   -5.9430   -0.8926 C   0  0  0  0  0  0  0  0  0  0  0  0
   -7.6859   -5.8649   -1.7797 C   0  0  0  0  0  0  0  0  0  0  0  0
   -6.2407   -8.4253   -0.9333 C   0  0  0  0  0  0  0  0  0  0  0  0
   -5.5353   -9.6095   -1.0197 C   0  0  0  0  0  0  0  0  0  0  0  0
   -4.1673   -9.5769   -1.2262 C   0  0  0  0  0  0  0  0  0  0  0  0
   -3.5339   -8.3614   -1.3816 C   0  0  0  0  0  0  0  0  0  0  0  0
   -3.7757   -4.9349   -2.4865 C   0  0  0  0  0  0  0  0  0  0  0  0
   -2.7027   -3.5478   -2.3496 S   0  0  0  0  0  0  0  0  0  0  0  0
   -1.8221   -4.3368   -1.0934 C   0  0  0  0  0  0  0  0  0  0  0  0
   -0.7328   -4.0314   -0.2687 C   0  0  0  0  0  0  0  0  0  0  0  0
    0.1306   -2.9821   -0.0787 N   0  0  0  0  0  0  0  0  0  0  0  0
    0.9754   -3.3296    0.9626 C   0  0  0  0  0  0  0  0  0  0  0  0
    1.9457   -2.5785    1.6682 C   0  0  0  0  0  0  0  0  0  0  0  0
    2.2627   -1.2287    1.6704 N   0  0  0  0  0  0  0  0  0  0  0  0
    3.3101   -1.0602    2.5388 C   0  0  0  0  0  0  0  0  0  0  0  0
    4.0805   -0.0020    3.0356 C   0  0  0  0  0  0  0  0  0  0  0  0
    4.1471    1.7088    2.8292 S   0  0  0  0  0  0  0  0  0  0  0  0
    1.4303   -0.0904    1.3319 C   0  0  0  0  0  0  0  0  0  0  0  0
   -0.0006   -0.2511    1.8316 C   0  0  0  0  0  0  0  0  0  0  0  0
    0.4224   -2.0933   -1.1817 C   0  0  0  0  0  0  0  0  0  0  0  0
    1.0086   -2.8620   -2.3651 C   0  0  0  0  0  0  0  0  0  0  0  0
   -4.7624   -4.9513   -3.5244 C   0  0  0  0  0  0  0  0  0  0  0  0
   -4.9794   -5.9579   -4.4514 C   0  0  0  0  0  0  0  0  0  0  0  0
   -4.1827   -7.0771   -4.6170 N   0  0  0  0  0  0  0  0  0  0  0  0
   -4.7955   -8.2867   -4.9841 C   0  0  0  0  0  0  0  0  0  0  0  0
   -6.0232   -8.6397   -4.4306 C   0  0  0  0  0  0  0  0  0  0  0  0
   -6.6347   -9.8214   -4.7952 C   0  0  0  0  0  0  0  0  0  0  0  0
   -6.0436  -10.6832   -5.7112 C   0  0  0  0  0  0  0  0  0  0  0  0
   -6.7244  -11.9564   -6.1103 C   0  0  0  0  0  0  0  0  0  0  0  0
   -4.8204  -10.3207   -6.2616 C   0  0  0  0  0  0  0  0  0  0  0  0
   -4.2016   -9.1368   -5.9122 C   0  0  0  0  0  0  0  0  0  0  0  0
   -2.7922   -6.9701   -4.4925 C   0  0  0  0  0  0  0  0  0  0  0  0
   -2.1381   -5.7780   -4.7973 C   0  0  0  0  0  0  0  0  0  0  0  0
   -0.7783   -5.6521   -4.5937 C   0  0  0  0  0  0  0  0  0  0  0  0
   -0.0256   -6.7057   -4.0936 C   0  0  0  0  0  0  0  0  0  0  0  0
    1.4365   -6.5510   -3.8055 C   0  0  0  0  0  0  0  0  0  0  0  0
   -0.6723   -7.9129   -3.8547 C   0  0  0  0  0  0  0  0  0  0  0  0
   -2.0307   -8.0519   -4.0547 C   0  0  0  0  0  0  0  0  0  0  0  0
   -6.0763   -5.6373   -5.2859 C   0  0  0  0  0  0  0  0  0  0  0  0
   -6.8211   -6.4319   -6.6157 S   0  0  0  0  0  0  0  0  0  0  0  0
   -7.9603   -5.0910   -6.8162 C   0  0  0  0  0  0  0  0  0  0  0  0
   -7.6872   -4.0329   -5.9209 C   0  0  0  0  0  0  0  0  0  0  0  0
   -8.2633   -2.7880   -5.9062 N   0  0  0  0  0  0  0  0  0  0  0  0
   -8.7134   -2.1137   -7.0514 C   0  0  0  0  0  0  0  0  0  0  0  0
   -8.2028   -2.3768   -8.3208 C   0  0  0  0  0  0  0  0  0  0  0  0
   -8.6884   -1.6976   -9.4200 C   0  0  0  0  0  0  0  0  0  0  0  0
   -9.6734   -0.7244   -9.2920 C   0  0  0  0  0  0  0  0  0  0  0  0
  -10.1958   -0.0062  -10.4959 C   0  0  0  0  0  0  0  0  0  0  0  0
  -10.1421   -0.4308   -8.0171 C   0  0  0  0  0  0  0  0  0  0  0  0
   -9.6810   -1.1172   -6.9127 C   0  0  0  0  0  0  0  0  0  0  0  0
   -8.1377   -2.0076   -4.7239 C   0  0  0  0  0  0  0  0  0  0  0  0
   -7.5374   -0.7550   -4.7785 C   0  0  0  0  0  0  0  0  0  0  0  0
   -7.4296    0.0100   -3.6335 C   0  0  0  0  0  0  0  0  0  0  0  0
   -7.9142   -0.4511   -2.4164 C   0  0  0  0  0  0  0  0  0  0  0  0
   -7.8029    0.3724   -1.1716 C   0  0  0  0  0  0  0  0  0  0  0  0
   -8.5119   -1.7060   -2.3742 C   0  0  0  0  0  0  0  0  0  0  0  0
   -8.6252   -2.4813   -3.5104 C   0  0  0  0  0  0  0  0  0  0  0  0
   -6.6399   -4.3912   -5.0426 C   0  0  0  0  0  0  0  0  0  0  0  0
   -5.8184   -3.5709   -3.7564 S   0  0  0  0  0  0  0  0  0  0  0  0
   -8.9162   -5.2690   -7.8203 C   0  0  0  0  0  0  0  0  0  0  0  0
  -10.0938   -4.6005   -8.0635 C   0  0  0  0  0  0  0  0  0  0  0  0
  -10.6422   -4.5543   -9.4352 C   0  0  0  0  0  0  0  0  0  0  0  0
  -10.2674   -5.1804  -10.4025 O   0  0  0  0  0  0  0  0  0  0  0  0
  -11.7045   -3.5222   -9.3890 C   0  0  0  0  0  0  0  0  0  0  0  0
  -12.4594   -3.0015  -10.4208 C   0  0  0  0  0  0  0  0  0  0  0  0
  -13.3752   -2.0006  -10.1326 C   0  0  0  0  0  0  0  0  0  0  0  0
  -13.5203   -1.5631   -8.8244 C   0  0  0  0  0  0  0  0  0  0  0  0
  -14.7511   -0.1597   -8.4602 Br  0  0  0  0  0  0  0  0  0  0  0  0
  -12.7872   -2.0923   -7.7696 C   0  0  0  0  0  0  0  0  0  0  0  0
  -11.8606   -3.0745   -8.0665 C   0  0  0  0  0  0  0  0  0  0  0  0
  -10.9281   -3.8088   -7.2109 C   0  0  0  0  0  0  0  0  0  0  0  0
  -10.9939   -3.9051   -5.8379 C   0  0  0  0  0  0  0  0  0  0  0  0
  -11.7895   -3.0791   -5.0261 C   0  0  0  0  0  0  0  0  0  0  0  0
  -12.3820   -2.3951   -4.3178 N   0  0  0  0  0  0  0  0  0  0  0  0
  -10.3098   -4.8985   -5.1190 C   0  0  0  0  0  0  0  0  0  0  0  0
   -9.7986   -5.7242   -4.5038 N   0  0  0  0  0  0  0  0  0  0  0  0
    9.0023    8.4870    6.3973 H   0  0  0  0  0  0  0  0  0  0  0  0
    4.1752   12.0302    4.4133 H   0  0  0  0  0  0  0  0  0  0  0  0
    3.8414   14.1080    5.6904 H   0  0  0  0  0  0  0  0  0  0  0  0
    8.9235    4.3012    7.3861 H   0  0  0  0  0  0  0  0  0  0  0  0
    9.9671    2.1448    7.9120 H   0  0  0  0  0  0  0  0  0  0  0  0
   11.5753    0.4556    7.4866 H   0  0  0  0  0  0  0  0  0  0  0  0
   12.0143    0.2705    5.7830 H   0  0  0  0  0  0  0  0  0  0  0  0
   13.1073    1.0995    6.8832 H   0  0  0  0  0  0  0  0  0  0  0  0
   12.6719    2.6507    4.6523 H   0  0  0  0  0  0  0  0  0  0  0  0
   11.6226    4.8090    4.1143 H   0  0  0  0  0  0  0  0  0  0  0  0
   11.7532    6.6465    6.7750 H   0  0  0  0  0  0  0  0  0  0  0  0
   13.3135    8.4643    6.2154 H   0  0  0  0  0  0  0  0  0  0  0  0
   14.2138    9.9511    4.4356 H   0  0  0  0  0  0  0  0  0  0  0  0
   12.8813   11.0806    4.6598 H   0  0  0  0  0  0  0  0  0  0  0  0
   13.1924   10.4059    3.0613 H   0  0  0  0  0  0  0  0  0  0  0  0
   11.0151    9.3610    2.7338 H   0  0  0  0  0  0  0  0  0  0  0  0
    9.4624    7.5462    3.2798 H   0  0  0  0  0  0  0  0  0  0  0  0
    1.6811    5.8139    5.2583 H   0  0  0  0  0  0  0  0  0  0  0  0
    0.7626    7.8513    4.2455 H   0  0  0  0  0  0  0  0  0  0  0  0
    1.2540    8.9538    1.1196 H   0  0  0  0  0  0  0  0  0  0  0  0
    2.4667    9.9581    1.9034 H   0  0  0  0  0  0  0  0  0  0  0  0
    0.9139    9.6567    2.7038 H   0  0  0  0  0  0  0  0  0  0  0  0
    3.9257    7.8620    1.3847 H   0  0  0  0  0  0  0  0  0  0  0  0
    4.8337    5.8096    2.3722 H   0  0  0  0  0  0  0  0  0  0  0  0
    4.1039    2.9414    6.5722 H   0  0  0  0  0  0  0  0  0  0  0  0
    2.6701    1.0450    7.2034 H   0  0  0  0  0  0  0  0  0  0  0  0
    0.2956    0.1035    7.0686 H   0  0  0  0  0  0  0  0  0  0  0  0
   -0.5688    0.2408    5.5316 H   0  0  0  0  0  0  0  0  0  0  0  0
    0.8946   -0.7441    5.6486 H   0  0  0  0  0  0  0  0  0  0  0  0
    0.0236    1.9907    3.9967 H   0  0  0  0  0  0  0  0  0  0  0  0
    1.4936    3.8318    3.3181 H   0  0  0  0  0  0  0  0  0  0  0  0
    5.5383    1.3408    7.0751 H   0  0  0  0  0  0  0  0  0  0  0  0
    7.0633    0.8907    8.9552 H   0  0  0  0  0  0  0  0  0  0  0  0
    9.1392   -0.3966    8.5609 H   0  0  0  0  0  0  0  0  0  0  0  0
    9.6985   -1.1448    6.2873 H   0  0  0  0  0  0  0  0  0  0  0  0
    7.5082   -1.1712    3.4626 H   0  0  0  0  0  0  0  0  0  0  0  0
    9.1226   -1.5266    4.0778 H   0  0  0  0  0  0  0  0  0  0  0  0
    9.2984    0.1056    2.2544 H   0  0  0  0  0  0  0  0  0  0  0  0
    9.7242    0.9125    3.7712 H   0  0  0  0  0  0  0  0  0  0  0  0
    8.1422    1.1779    3.0461 H   0  0  0  0  0  0  0  0  0  0  0  0
   -5.8318   -5.0547   -1.0479 H   0  0  0  0  0  0  0  0  0  0  0  0
   -6.7670   -5.9350    0.1538 H   0  0  0  0  0  0  0  0  0  0  0  0
   -8.3807   -6.6712   -1.5631 H   0  0  0  0  0  0  0  0  0  0  0  0
   -7.4242   -5.9244   -2.8323 H   0  0  0  0  0  0  0  0  0  0  0  0
   -8.2002   -4.9222   -1.6104 H   0  0  0  0  0  0  0  0  0  0  0  0
   -7.2974   -8.4562   -0.7129 H   0  0  0  0  0  0  0  0  0  0  0  0
   -6.0460  -10.5530   -0.8976 H   0  0  0  0  0  0  0  0  0  0  0  0
   -3.5955  -10.4922   -1.2552 H   0  0  0  0  0  0  0  0  0  0  0  0
   -2.4644   -8.3218   -1.5196 H   0  0  0  0  0  0  0  0  0  0  0  0
    1.4436    0.1089    0.2562 H   0  0  0  0  0  0  0  0  0  0  0  0
    1.8842    0.7755    1.8211 H   0  0  0  0  0  0  0  0  0  0  0  0
   -0.5544    0.6635    1.6378 H   0  0  0  0  0  0  0  0  0  0  0  0
   -0.5070   -1.0735    1.3354 H   0  0  0  0  0  0  0  0  0  0  0  0
    0.0016   -0.4411    2.9022 H   0  0  0  0  0  0  0  0  0  0  0  0
    1.1437   -1.3497   -0.8577 H   0  0  0  0  0  0  0  0  0  0  0  0
   -0.5063   -1.5978   -1.4820 H   0  0  0  0  0  0  0  0  0  0  0  0
    1.2312   -2.1723   -3.1749 H   0  0  0  0  0  0  0  0  0  0  0  0
    1.9277   -3.3634   -2.0686 H   0  0  0  0  0  0  0  0  0  0  0  0
    0.3054   -3.6080   -2.7247 H   0  0  0  0  0  0  0  0  0  0  0  0
   -6.4896   -7.9910   -3.7056 H   0  0  0  0  0  0  0  0  0  0  0  0
   -7.5863  -10.0807   -4.3552 H   0  0  0  0  0  0  0  0  0  0  0  0
   -7.4864  -11.7511   -6.8628 H   0  0  0  0  0  0  0  0  0  0  0  0
   -7.2158  -12.4158   -5.2552 H   0  0  0  0  0  0  0  0  0  0  0  0
   -6.0138  -12.6633   -6.5316 H   0  0  0  0  0  0  0  0  0  0  0  0
   -4.3464  -10.9709   -6.9829 H   0  0  0  0  0  0  0  0  0  0  0  0
   -3.2575   -8.8636   -6.3602 H   0  0  0  0  0  0  0  0  0  0  0  0
   -2.6963   -4.9443   -5.1977 H   0  0  0  0  0  0  0  0  0  0  0  0
   -0.2962   -4.7151   -4.8356 H   0  0  0  0  0  0  0  0  0  0  0  0
    1.5943   -6.4397   -2.7317 H   0  0  0  0  0  0  0  0  0  0  0  0
    1.9899   -7.4288   -4.1326 H   0  0  0  0  0  0  0  0  0  0  0  0
    1.8417   -5.6731   -4.3031 H   0  0  0  0  0  0  0  0  0  0  0  0
   -0.1025   -8.7569   -3.4929 H   0  0  0  0  0  0  0  0  0  0  0  0
   -2.5149   -8.9964   -3.8606 H   0  0  0  0  0  0  0  0  0  0  0  0
   -7.4181   -3.1066   -8.4477 H   0  0  0  0  0  0  0  0  0  0  0  0
   -8.2919   -1.9281  -10.3977 H   0  0  0  0  0  0  0  0  0  0  0  0
  -11.1058    0.5392  -10.2593 H   0  0  0  0  0  0  0  0  0  0  0  0
  -10.4037   -0.7107  -11.2991 H   0  0  0  0  0  0  0  0  0  0  0  0
   -9.4549    0.7055  -10.8605 H   0  0  0  0  0  0  0  0  0  0  0  0
  -10.8905    0.3367   -7.8857 H   0  0  0  0  0  0  0  0  0  0  0  0
  -10.0784   -0.8918   -5.9338 H   0  0  0  0  0  0  0  0  0  0  0  0
   -7.1550   -0.3871   -5.7195 H   0  0  0  0  0  0  0  0  0  0  0  0
   -6.9572    0.9798   -3.6896 H   0  0  0  0  0  0  0  0  0  0  0  0
   -7.3175    1.3234   -1.3739 H   0  0  0  0  0  0  0  0  0  0  0  0
   -7.2263   -0.1608   -0.4170 H   0  0  0  0  0  0  0  0  0  0  0  0
   -8.7915    0.5660   -0.7580 H   0  0  0  0  0  0  0  0  0  0  0  0
   -8.9005   -2.0787   -1.4381 H   0  0  0  0  0  0  0  0  0  0  0  0
   -9.0886   -3.4540   -3.4605 H   0  0  0  0  0  0  0  0  0  0  0  0
   -8.6612   -6.0144   -8.5682 H   0  0  0  0  0  0  0  0  0  0  0  0
  -12.3301   -3.3659  -11.4280 H   0  0  0  0  0  0  0  0  0  0  0  0
  -13.9724   -1.5593  -10.9156 H   0  0  0  0  0  0  0  0  0  0  0  0
  -12.9311   -1.7253   -6.7660 H   0  0  0  0  0  0  0  0  0  0  0  0
  1  2  2  0  0  0  0
  2  3  1  0  0  0  0
  3  4  2  0  0  0  0
  3  5  1  0  0  0  0
  5  6  2  0  0  0  0
  6  7  1  0  0  0  0
  7  8  2  0  0  0  0
  8  9  1  0  0  0  0
  9 10  1  0  0  0  0
  9 11  2  0  0  0  0
 11 12  1  0  0  0  0
  6 13  1  0  0  0  0
 13 14  2  0  0  0  0
 14 15  1  0  0  0  0
 15 16  3  0  0  0  0
 14 17  1  0  0  0  0
 17 18  3  0  0  0  0
  1 19  1  0  0  0  0
 19 20  2  0  0  0  0
 20 21  1  0  0  0  0
 21 22  1  0  0  0  0
 22 23  2  0  0  0  0
 23 24  1  0  0  0  0
 24 25  2  0  0  0  0
 25 26  1  0  0  0  0
 25 27  1  0  0  0  0
 27 28  2  0  0  0  0
 21 29  1  0  0  0  0
 29 30  2  0  0  0  0
 30 31  1  0  0  0  0
 31 32  2  0  0  0  0
 32 33  1  0  0  0  0
 32 34  1  0  0  0  0
 34 35  2  0  0  0  0
 20 36  1  0  0  0  0
 36 37  1  0  0  0  0
 37 38  1  0  0  0  0
 38 39  2  0  0  0  0
 39 40  1  0  0  0  0
 40 41  1  0  0  0  0
 41 42  2  0  0  0  0
 42 43  1  0  0  0  0
 43 44  2  0  0  0  0
 44 45  1  0  0  0  0
 44 46  1  0  0  0  0
 46 47  2  0  0  0  0
 40 48  1  0  0  0  0
 48 49  2  0  0  0  0
 49 50  1  0  0  0  0
 50 51  2  0  0  0  0
 51 52  1  0  0  0  0
 51 53  1  0  0  0  0
 53 54  2  0  0  0  0
 39 55  1  0  0  0  0
 55 56  1  0  0  0  0
 38 57  1  0  0  0  0
 57 58  2  0  0  0  0
 58 59  1  0  0  0  0
 59 60  2  0  0  0  0
 60 61  1  0  0  0  0
 61 62  2  0  0  0  0
 62 63  1  0  0  0  0
 63 64  2  0  0  0  0
 64 65  1  0  0  0  0
 65 66  1  0  0  0  0
 58 67  1  0  0  0  0
 67 68  1  0  0  0  0
 68 69  1  0  0  0  0
 69 70  1  0  0  0  0
 70 71  1  0  0  0  0
 71 72  1  0  0  0  0
 72 73  2  0  0  0  0
 73 74  1  0  0  0  0
 74 75  1  0  0  0  0
 72 76  1  0  0  0  0
 76 77  1  0  0  0  0
 77 78  1  0  0  0  0
 78 79  1  0  0  0  0
 79 80  1  0  0  0  0
 80 81  1  0  0  0  0
 81 82  2  0  0  0  0
 82 83  1  0  0  0  0
 83 84  1  0  0  0  0
 82 85  1  0  0  0  0
 85 86  2  0  0  0  0
 86 87  1  0  0  0  0
 87 88  2  0  0  0  0
 80 89  2  0  0  0  0
 89 90  1  0  0  0  0
 90 91  1  0  0  0  0
 91 92  1  0  0  0  0
 92 93  1  0  0  0  0
 93 94  1  0  0  0  0
 94 95  1  0  0  0  0
 95 96  1  0  0  0  0
 96 97  1  0  0  0  0
 97 98  1  0  0  0  0
 98 99  1  0  0  0  0
 96100  1  0  0  0  0
100101  1  0  0  0  0
 93102  1  0  0  0  0
102103  1  0  0  0  0
 89104  1  0  0  0  0
104105  2  0  0  0  0
105106  1  0  0  0  0
106107  1  0  0  0  0
107108  2  0  0  0  0
108109  1  0  0  0  0
109110  2  0  0  0  0
110111  1  0  0  0  0
110112  1  0  0  0  0
112113  2  0  0  0  0
106114  1  0  0  0  0
114115  2  0  0  0  0
115116  1  0  0  0  0
116117  2  0  0  0  0
117118  1  0  0  0  0
117119  1  0  0  0  0
119120  2  0  0  0  0
105121  1  0  0  0  0
121122  1  0  0  0  0
122123  1  0  0  0  0
123124  2  0  0  0  0
124125  1  0  0  0  0
125126  1  0  0  0  0
126127  2  0  0  0  0
127128  1  0  0  0  0
128129  2  0  0  0  0
129130  1  0  0  0  0
129131  1  0  0  0  0
131132  2  0  0  0  0
125133  1  0  0  0  0
133134  2  0  0  0  0
134135  1  0  0  0  0
135136  2  0  0  0  0
136137  1  0  0  0  0
136138  1  0  0  0  0
138139  2  0  0  0  0
124140  1  0  0  0  0
140141  1  0  0  0  0
123142  1  0  0  0  0
142143  2  0  0  0  0
143144  1  0  0  0  0
144145  2  0  0  0  0
144146  1  0  0  0  0
146147  2  0  0  0  0
147148  1  0  0  0  0
148149  2  0  0  0  0
149150  1  0  0  0  0
149151  1  0  0  0  0
151152  2  0  0  0  0
152153  1  0  0  0  0
153154  2  0  0  0  0
154155  1  0  0  0  0
155156  3  0  0  0  0
154157  1  0  0  0  0
157158  3  0  0  0  0
 13  2  1  0  0  0  0
 56 19  1  0  0  0  0
 99 57  1  0  0  0  0
141104  1  0  0  0  0
153143  1  0  0  0  0
 11  5  1  0  0  0  0
 28 22  1  0  0  0  0
 35 29  1  0  0  0  0
 55 36  2  0  0  0  0
 64 59  1  0  0  0  0
 98 67  2  0  0  0  0
113107  1  0  0  0  0
120114  1  0  0  0  0
140121  2  0  0  0  0
152146  1  0  0  0  0
 47 41  1  0  0  0  0
 54 48  1  0  0  0  0
 97 69  2  0  0  0  0
132126  1  0  0  0  0
139133  1  0  0  0  0
 95 70  2  0  0  0  0
 75 71  2  0  0  0  0
 94 76  2  0  0  0  0
 92 77  2  0  0  0  0
 91 79  2  0  0  0  0
 88 81  1  0  0  0  0
  1159  1  0  0  0  0
  7160  1  0  0  0  0
  8161  1  0  0  0  0
 23162  1  0  0  0  0
 24163  1  0  0  0  0
 26164  1  0  0  0  0
 26165  1  0  0  0  0
 26166  1  0  0  0  0
 27167  1  0  0  0  0
 28168  1  0  0  0  0
 30169  1  0  0  0  0
 31170  1  0  0  0  0
 33171  1  0  0  0  0
 33172  1  0  0  0  0
 33173  1  0  0  0  0
 34174  1  0  0  0  0
 35175  1  0  0  0  0
 42176  1  0  0  0  0
 43177  1  0  0  0  0
 45178  1  0  0  0  0
 45179  1  0  0  0  0
 45180  1  0  0  0  0
 46181  1  0  0  0  0
 47182  1  0  0  0  0
 49183  1  0  0  0  0
 50184  1  0  0  0  0
 52185  1  0  0  0  0
 52186  1  0  0  0  0
 52187  1  0  0  0  0
 53188  1  0  0  0  0
 54189  1  0  0  0  0
 60190  1  0  0  0  0
 61191  1  0  0  0  0
 62192  1  0  0  0  0
 63193  1  0  0  0  0
 65194  1  0  0  0  0
 65195  1  0  0  0  0
 66196  1  0  0  0  0
 66197  1  0  0  0  0
 66198  1  0  0  0  0
 83199  1  0  0  0  0
 83200  1  0  0  0  0
 84201  1  0  0  0  0
 84202  1  0  0  0  0
 84203  1  0  0  0  0
 85204  1  0  0  0  0
 86205  1  0  0  0  0
 87206  1  0  0  0  0
 88207  1  0  0  0  0
100208  1  0  0  0  0
100209  1  0  0  0  0
101210  1  0  0  0  0
101211  1  0  0  0  0
101212  1  0  0  0  0
102213  1  0  0  0  0
102214  1  0  0  0  0
103215  1  0  0  0  0
103216  1  0  0  0  0
103217  1  0  0  0  0
108218  1  0  0  0  0
109219  1  0  0  0  0
111220  1  0  0  0  0
111221  1  0  0  0  0
111222  1  0  0  0  0
112223  1  0  0  0  0
113224  1  0  0  0  0
115225  1  0  0  0  0
116226  1  0  0  0  0
118227  1  0  0  0  0
118228  1  0  0  0  0
118229  1  0  0  0  0
119230  1  0  0  0  0
120231  1  0  0  0  0
127232  1  0  0  0  0
128233  1  0  0  0  0
130234  1  0  0  0  0
130235  1  0  0  0  0
130236  1  0  0  0  0
131237  1  0  0  0  0
132238  1  0  0  0  0
134239  1  0  0  0  0
135240  1  0  0  0  0
137241  1  0  0  0  0
137242  1  0  0  0  0
137243  1  0  0  0  0
138244  1  0  0  0  0
139245  1  0  0  0  0
142246  1  0  0  0  0
147247  1  0  0  0  0
148248  1  0  0  0  0
151249  1  0  0  0  0
M  END
