187

C          4.40030        2.94940       -7.24280
C          4.21710        3.64970       -8.42150
C          3.08990        3.50620       -9.33730
O          2.08980        2.82470       -9.19990
C          3.41750        4.34320      -10.51450
C          4.66880        4.95390      -10.31510
C          5.19240        5.78830      -11.28810
C          4.45830        6.00140      -12.44700
C          3.22430        5.40070      -12.63580
Br         2.26970        5.73600      -14.23320
C          2.67820        4.55420      -11.66470
Cl         1.15070        3.81510      -11.88680
C          5.17510        4.55330       -9.00050
C          6.34350        5.01030       -8.43510
C          6.77390        4.74500       -7.12160
N          7.18480        4.61210       -6.05550
C          7.26600        5.84690       -9.09250
N          8.06600        6.51390       -9.57720
C          3.54320        2.09900       -6.55910
C          3.89940        1.44400       -5.34510
N          5.15710        1.37260       -4.82010
C          5.30200        1.26750       -3.42090
C          4.58560        2.11520       -2.58140
C          4.71740        2.00400       -1.21140
C          5.56500        1.05820       -0.64810
C          5.71950        0.95130        0.83700
C          6.28810        0.22720       -1.49710
C          6.16210        0.32410       -2.86800
C          6.31580        1.28290       -5.61570
C          6.30990        0.55790       -6.80460
C          7.45320        0.48790       -7.57500
C          8.62760        1.11640       -7.17680
C          9.86340        1.06310       -8.02030
C          8.63070        1.80900       -5.97150
C          7.49200        1.89920       -5.19640
C          2.76810        0.86990       -4.74280
S          2.49290        0.00250       -3.26480
C          0.79460       -0.18250       -3.67560
C          0.45740        0.44340       -4.86940
N         -0.82320        0.57570       -5.37050
C         -1.00630        0.58510       -6.76390
C         -1.91400        1.45740       -7.35570
C         -2.05800        1.47980       -8.72880
C         -1.30420        0.64640       -9.54520
C         -1.42330        0.70480      -11.03650
C         -0.40900       -0.22970       -8.94420
C         -0.25980       -0.26680       -7.57330
C         -1.90590        0.77030       -4.50420
C         -1.76000        1.50810       -3.33160
C         -2.80750        1.60880       -2.43820
C         -4.02410        0.98430       -2.68110
C         -5.12450        1.01090       -1.66530
C         -4.18490        0.31300       -3.88750
C         -3.14840        0.21290       -4.79290
C          1.59890        1.01470       -5.48100
S          1.84060        1.85090       -6.96920
C         -0.09630       -0.83170       -2.76390
C         -1.12710       -1.70690       -3.05440
C         -1.27270       -2.40440       -4.33010
C         -0.14420       -2.77070       -5.06140
C         -0.28130       -3.44910       -6.25690
C         -1.53790       -3.76680       -6.73950
C         -2.67440       -3.43570       -6.01220
C         -4.03920       -3.76000       -6.54820
C         -4.51700       -2.66320       -7.50260
C         -2.52940       -2.76570       -4.80770
C         -1.94040       -1.91800       -1.91870
S         -3.40690       -2.82740       -1.65300
C         -3.39100       -2.34590        0.01050
C         -4.15910       -2.50700        1.17880
C         -5.42940       -3.07100        1.43980
C         -6.00630       -2.93340        2.75380
N         -7.22700       -3.43930        2.82190
S         -7.61910       -4.04240        1.37170
N         -6.24660       -3.67920        0.59510
C         -5.23020       -2.37210        3.79440
C         -5.42750       -2.22890        5.17910
S         -6.66920       -2.46270        6.36150
C         -5.55830       -1.93180        7.60710
C         -5.68920       -1.74100        8.98730
C         -6.94820       -1.92940        9.70350
C         -7.41620       -0.96770       10.59870
C         -8.63300       -1.15190       11.22740
C         -9.39220       -2.28060       10.96990
C         -8.94570       -3.24320       10.07280
C         -9.78800       -4.43840        9.73390
C        -10.58630       -4.17350        8.45560
C         -7.72470       -3.05520        9.44410
C         -4.49150       -1.29610        9.56400
S         -3.23800       -1.04920        8.34970
C         -4.29480       -1.59220        7.10330
C         -4.22250       -1.75930        5.72100
N         -3.29190       -1.58160        4.72630
C         -3.90880       -1.92000        3.53740
C         -3.45270       -1.83140        2.20680
N         -2.33730       -1.21200        1.67360
C         -2.30190       -1.53180        0.34000
C         -1.48710       -1.27170       -0.76880
S         -0.05680       -0.35660       -1.07340
C         -1.71820        0.00220        2.16600
C         -2.25230        1.22900        1.42950
C         -1.87610       -1.69090        5.02190
C         -1.54790       -3.03340        5.67420
C         -4.28080       -1.12590       10.94320
C         -3.20240       -0.60570       11.60700
C         -1.96060       -0.24250       11.06290
C         -0.99400        0.52270       11.66470
C          0.40360        0.46740       11.18960
O          0.81470       -0.04550       10.17150
C          1.19740        1.13820       12.24740
C          2.56530        1.27920       12.34560
C          3.08660        1.93050       13.45870
Cl         4.78820        2.12210       13.61430
C          2.22700        2.42230       14.44270
Br         2.93920        3.29260       15.96400
C          0.84690        2.28950       14.33960
C          0.32820        1.64330       13.23170
C         -1.05220        1.37970       12.82080
C         -2.16300        2.01540       13.31910
C         -2.14060        2.86630       14.44220
N         -2.17450        3.54930       15.36440
C         -3.42970        1.99100       12.70030
N         -4.46480        2.05620       12.20740
H          5.36140        3.08920       -6.76540
H          6.14760        6.27160      -11.16970
H          4.84960        6.64760      -13.21760
H          3.93280        2.86180       -3.00950
H          4.15460        2.66620       -0.57000
H          4.83710        1.32840        1.34770
H          5.88800       -0.08100        1.13510
H          6.57760        1.53890        1.16480
H          6.95340       -0.51300       -1.07740
H          6.72090       -0.33310       -3.51760
H          5.40680        0.05840       -7.12390
H          7.43320       -0.07240       -8.49870
H          9.73010        0.39760       -8.86930
H         10.10330        2.05820       -8.39450
H         10.71260        0.71780       -7.43300
H          9.53290        2.30210       -5.64330
H          7.50370        2.45760       -4.27390
H         -2.49470        2.12480       -6.73580
H         -2.75940        2.17060       -9.17440
H         -0.58050        1.26000      -11.44840
H         -1.40470       -0.29440      -11.46790
H         -2.34070        1.20420      -11.33840
H          0.18260       -0.89160       -9.55990
H          0.43390       -0.95830       -7.11970
H         -0.82110        1.99930       -3.12030
H         -2.67690        2.18960       -1.53620
H         -5.00040        1.84380       -0.97690
H         -5.11670        0.08530       -1.08670
H         -6.09620        1.09210       -2.14710
H         -5.13370       -0.15250       -4.11300
H         -3.27890       -0.31850       -5.72280
H          0.84010       -2.54310       -4.67940
H          0.59840       -3.73630       -6.81460
H         -1.63850       -4.28930       -7.67960
H         -4.74820       -3.85730       -5.72410
H         -4.00550       -4.71030       -7.08510
H         -5.47580       -2.93160       -7.93980
H         -3.79660       -2.51570       -8.30470
H         -4.63320       -1.72050       -6.97300
H         -3.40840       -2.50670       -4.23740
H         -6.84590       -0.06750       10.77270
H         -8.99470       -0.40440       11.91750
H        -10.34340       -2.41320       11.46470
H        -10.47580       -4.65420       10.55340
H         -9.14910       -5.31110        9.58370
H        -11.19300       -5.03900        8.20050
H         -9.91470       -3.96180        7.62670
H        -11.24250       -3.31670        8.59120
H         -7.36130       -3.80290        8.75410
H         -0.63530       -0.07330        2.02450
H         -1.94280        0.11280        3.22500
H         -1.80990        2.12750        1.85080
H         -2.00370        1.18000        0.37390
H         -3.33380        1.28760        1.53420
H         -1.31110       -1.61480        4.09500
H         -1.59450       -0.87360        5.69330
H         -1.84540       -3.85140        5.02130
H         -2.05880       -3.14220        6.62650
H         -0.47790       -3.09660        5.85020
H         -5.13020       -1.41060       11.55100
H         -3.32080       -0.47530       12.67490
H         -1.65890       -0.67800       10.11740
H          3.21520        0.89270       11.57670
H          0.21680        2.68140       15.12200
