
  xtb     02052221363D
 energy: -405.618080838681 gnorm: 0.000595606976 xtb: 6.4.1 (unknown)
239264  0     0  0            999 V2000
   -9.2864    7.7940   -3.3268 C   0  0  0  0  0  0  0  0  0  0  0  0
   -9.4313    8.9815   -2.6332 C   0  0  0  0  0  0  0  0  0  0  0  0
   -8.9336    9.2571   -1.2891 C   0  0  0  0  0  0  0  0  0  0  0  0
   -8.4120    8.4847   -0.5054 O   0  0  0  0  0  0  0  0  0  0  0  0
   -9.1668   10.7025   -1.0619 C   0  0  0  0  0  0  0  0  0  0  0  0
   -9.7773   11.2579   -2.2009 C   0  0  0  0  0  0  0  0  0  0  0  0
  -10.0970   12.6049   -2.2255 C   0  0  0  0  0  0  0  0  0  0  0  0
   -9.7980   13.3800   -1.1133 C   0  0  0  0  0  0  0  0  0  0  0  0
   -9.1968   12.8274    0.0058 C   0  0  0  0  0  0  0  0  0  0  0  0
   -8.8161   13.9351    1.4903 Br  0  0  0  0  0  0  0  0  0  0  0  0
   -8.8700   11.4677    0.0518 C   0  0  0  0  0  0  0  0  0  0  0  0
   -8.1377   10.7759    1.4356 Cl  0  0  0  0  0  0  0  0  0  0  0  0
   -9.9754   10.1929   -3.1861 C   0  0  0  0  0  0  0  0  0  0  0  0
  -10.5927   10.3550   -4.4056 C   0  0  0  0  0  0  0  0  0  0  0  0
  -10.9189    9.3194   -5.3007 C   0  0  0  0  0  0  0  0  0  0  0  0
  -11.2531    8.5360   -6.0737 N   0  0  0  0  0  0  0  0  0  0  0  0
  -11.0121   11.5963   -4.9210 C   0  0  0  0  0  0  0  0  0  0  0  0
  -11.3580   12.5767   -5.4102 N   0  0  0  0  0  0  0  0  0  0  0  0
   -8.7678    6.5708   -2.9268 C   0  0  0  0  0  0  0  0  0  0  0  0
   -8.6172    5.4634   -3.8094 C   0  0  0  0  0  0  0  0  0  0  0  0
   -8.7490    5.5048   -5.1677 N   0  0  0  0  0  0  0  0  0  0  0  0
   -8.3743    6.6226   -5.9389 C   0  0  0  0  0  0  0  0  0  0  0  0
   -7.2683    7.3933   -5.5888 C   0  0  0  0  0  0  0  0  0  0  0  0
   -6.9276    8.4951   -6.3470 C   0  0  0  0  0  0  0  0  0  0  0  0
   -7.6586    8.8436   -7.4774 C   0  0  0  0  0  0  0  0  0  0  0  0
   -7.3124   10.0581   -8.2815 C   0  0  0  0  0  0  0  0  0  0  0  0
   -8.7352    8.0432   -7.8404 C   0  0  0  0  0  0  0  0  0  0  0  0
   -9.0985    6.9475   -7.0827 C   0  0  0  0  0  0  0  0  0  0  0  0
   -9.1339    4.3299   -5.8465 C   0  0  0  0  0  0  0  0  0  0  0  0
   -8.4413    3.9098   -6.9783 C   0  0  0  0  0  0  0  0  0  0  0  0
   -8.8296    2.7610   -7.6355 C   0  0  0  0  0  0  0  0  0  0  0  0
   -9.9097    2.0062   -7.1884 C   0  0  0  0  0  0  0  0  0  0  0  0
  -10.3041    0.7556   -7.9118 C   0  0  0  0  0  0  0  0  0  0  0  0
  -10.5967    2.4372   -6.0610 C   0  0  0  0  0  0  0  0  0  0  0  0
  -10.2188    3.5863   -5.3938 C   0  0  0  0  0  0  0  0  0  0  0  0
   -8.2673    4.3058   -3.0968 C   0  0  0  0  0  0  0  0  0  0  0  0
   -7.9486    2.6630   -3.5498 S   0  0  0  0  0  0  0  0  0  0  0  0
   -7.5178    2.2714   -1.8951 C   0  0  0  0  0  0  0  0  0  0  0  0
   -7.6664    3.3532   -1.0381 C   0  0  0  0  0  0  0  0  0  0  0  0
   -7.4691    3.3089    0.3291 N   0  0  0  0  0  0  0  0  0  0  0  0
   -7.8116    2.1778    1.0782 C   0  0  0  0  0  0  0  0  0  0  0  0
   -7.0611    1.8337    2.2012 C   0  0  0  0  0  0  0  0  0  0  0  0
   -7.3700    0.6995    2.9246 C   0  0  0  0  0  0  0  0  0  0  0  0
   -8.4282   -0.1233    2.5559 C   0  0  0  0  0  0  0  0  0  0  0  0
   -8.7234   -1.3805    3.3152 C   0  0  0  0  0  0  0  0  0  0  0  0
   -9.1883    0.2426    1.4530 C   0  0  0  0  0  0  0  0  0  0  0  0
   -8.8901    1.3730    0.7187 C   0  0  0  0  0  0  0  0  0  0  0  0
   -6.9952    4.4700    0.9681 C   0  0  0  0  0  0  0  0  0  0  0  0
   -7.5741    4.9185    2.1497 C   0  0  0  0  0  0  0  0  0  0  0  0
   -7.1239    6.0830    2.7405 C   0  0  0  0  0  0  0  0  0  0  0  0
   -6.0987    6.8272    2.1719 C   0  0  0  0  0  0  0  0  0  0  0  0
   -5.6273    8.1066    2.7902 C   0  0  0  0  0  0  0  0  0  0  0  0
   -5.5162    6.3621    0.9986 C   0  0  0  0  0  0  0  0  0  0  0  0
   -5.9509    5.1966    0.4023 C   0  0  0  0  0  0  0  0  0  0  0  0
   -8.0893    4.5107   -1.7336 C   0  0  0  0  0  0  0  0  0  0  0  0
   -8.3453    6.1502   -1.2617 S   0  0  0  0  0  0  0  0  0  0  0  0
   -6.9480    1.0060   -1.5321 C   0  0  0  0  0  0  0  0  0  0  0  0
   -7.4014   -0.2826   -1.7004 C   0  0  0  0  0  0  0  0  0  0  0  0
   -8.6503   -0.6998   -2.3456 C   0  0  0  0  0  0  0  0  0  0  0  0
   -8.9585   -0.3539   -3.6555 C   0  0  0  0  0  0  0  0  0  0  0  0
  -10.1414   -0.7928   -4.2219 C   0  0  0  0  0  0  0  0  0  0  0  0
  -11.0168   -1.5792   -3.4959 C   0  0  0  0  0  0  0  0  0  0  0  0
  -10.7106   -1.9583   -2.1942 C   0  0  0  0  0  0  0  0  0  0  0  0
  -11.6659   -2.7953   -1.3927 C   0  0  0  0  0  0  0  0  0  0  0  0
  -12.6923   -1.9086   -0.6846 C   0  0  0  0  0  0  0  0  0  0  0  0
   -9.5234   -1.5166   -1.6332 C   0  0  0  0  0  0  0  0  0  0  0  0
   -6.5281   -1.2143   -1.0958 C   0  0  0  0  0  0  0  0  0  0  0  0
   -6.5498   -2.9585   -0.9982 S   0  0  0  0  0  0  0  0  0  0  0  0
   -5.0099   -2.9128   -0.2052 C   0  0  0  0  0  0  0  0  0  0  0  0
   -4.0340   -3.7976    0.2924 C   0  0  0  0  0  0  0  0  0  0  0  0
   -4.0008   -5.2023    0.4347 C   0  0  0  0  0  0  0  0  0  0  0  0
   -2.8299   -5.8211    0.9971 C   0  0  0  0  0  0  0  0  0  0  0  0
   -2.9569   -7.1339    1.1061 N   0  0  0  0  0  0  0  0  0  0  0  0
   -4.4167   -7.5583    0.5494 S   0  0  0  0  0  0  0  0  0  0  0  0
   -4.9457   -6.0825    0.1444 N   0  0  0  0  0  0  0  0  0  0  0  0
   -1.6966   -5.0234    1.2724 C   0  0  0  0  0  0  0  0  0  0  0  0
   -0.3651   -5.3590    1.5725 C   0  0  0  0  0  0  0  0  0  0  0  0
    0.6002   -6.7703    1.8495 S   0  0  0  0  0  0  0  0  0  0  0  0
    2.0299   -5.7649    1.8463 C   0  0  0  0  0  0  0  0  0  0  0  0
    3.4015   -6.0606    1.9778 C   0  0  0  0  0  0  0  0  0  0  0  0
    3.9158   -7.4155    2.1944 C   0  0  0  0  0  0  0  0  0  0  0  0
    3.5111   -8.4515    1.3592 C   0  0  0  0  0  0  0  0  0  0  0  0
    4.0055   -9.7267    1.5582 C   0  0  0  0  0  0  0  0  0  0  0  0
    4.9007   -9.9762    2.5830 C   0  0  0  0  0  0  0  0  0  0  0  0
    5.2995   -8.9571    3.4391 C   0  0  0  0  0  0  0  0  0  0  0  0
    6.3105   -9.2140    4.5185 C   0  0  0  0  0  0  0  0  0  0  0  0
    7.7253   -9.0295    3.9653 C   0  0  0  0  0  0  0  0  0  0  0  0
    4.7927   -7.6823    3.2410 C   0  0  0  0  0  0  0  0  0  0  0  0
    4.1746   -4.9190    1.8726 C   0  0  0  0  0  0  0  0  0  0  0  0
    3.1984   -3.4700    1.6491 S   0  0  0  0  0  0  0  0  0  0  0  0
    1.7492   -4.4095    1.6662 C   0  0  0  0  0  0  0  0  0  0  0  0
    0.3770   -4.1754    1.5179 C   0  0  0  0  0  0  0  0  0  0  0  0
   -0.4468   -3.1183    1.2342 N   0  0  0  0  0  0  0  0  0  0  0  0
   -1.7280   -3.6146    1.0868 C   0  0  0  0  0  0  0  0  0  0  0  0
   -2.9488   -2.9926    0.7301 C   0  0  0  0  0  0  0  0  0  0  0  0
   -3.2860   -1.6575    0.5767 N   0  0  0  0  0  0  0  0  0  0  0  0
   -4.5257   -1.6181   -0.0099 C   0  0  0  0  0  0  0  0  0  0  0  0
   -5.4010   -0.6456   -0.5086 C   0  0  0  0  0  0  0  0  0  0  0  0
   -5.4183    1.0717   -0.6511 S   0  0  0  0  0  0  0  0  0  0  0  0
   -2.8470   -0.5401    1.3848 C   0  0  0  0  0  0  0  0  0  0  0  0
   -3.8458   -0.2409    2.5021 C   0  0  0  0  0  0  0  0  0  0  0  0
    0.1110   -1.8580    0.7971 C   0  0  0  0  0  0  0  0  0  0  0  0
    0.6618   -1.0354    1.9619 C   0  0  0  0  0  0  0  0  0  0  0  0
    5.5877   -4.7609    1.7977 C   0  0  0  0  0  0  0  0  0  0  0  0
    6.2591   -3.5686    1.7935 C   0  0  0  0  0  0  0  0  0  0  0  0
    7.6535   -3.6915    1.5988 C   0  0  0  0  0  0  0  0  0  0  0  0
    8.6161   -2.6689    1.5641 C   0  0  0  0  0  0  0  0  0  0  0  0
    8.2395   -1.2541    1.6746 C   0  0  0  0  0  0  0  0  0  0  0  0
    7.2392   -0.7180    0.8721 C   0  0  0  0  0  0  0  0  0  0  0  0
    6.8787    0.6142    0.9678 C   0  0  0  0  0  0  0  0  0  0  0  0
    7.5193    1.4437    1.8825 C   0  0  0  0  0  0  0  0  0  0  0  0
    7.2444    2.7602    2.0717 O   0  0  0  0  0  0  0  0  0  0  0  0
    6.2401    3.3734    1.2894 C   0  0  0  0  0  0  0  0  0  0  0  0
    6.1533    4.8318    1.7111 C   0  0  0  0  0  0  0  0  0  0  0  0
    8.5297    0.9110    2.6867 C   0  0  0  0  0  0  0  0  0  0  0  0
    8.8858   -0.4134    2.5807 C   0  0  0  0  0  0  0  0  0  0  0  0
    9.9370   -3.0618    1.4033 C   0  0  0  0  0  0  0  0  0  0  0  0
   10.3267   -4.4250    1.2879 C   0  0  0  0  0  0  0  0  0  0  0  0
    9.3605   -5.4566    1.3464 C   0  0  0  0  0  0  0  0  0  0  0  0
    9.7315   -6.8735    1.3159 C   0  0  0  0  0  0  0  0  0  0  0  0
   10.7340   -7.3623    2.1558 C   0  0  0  0  0  0  0  0  0  0  0  0
   11.0454   -8.7017    2.1715 C   0  0  0  0  0  0  0  0  0  0  0  0
   10.3711   -9.6031    1.3424 C   0  0  0  0  0  0  0  0  0  0  0  0
   10.7453  -10.9014    1.4694 O   0  0  0  0  0  0  0  0  0  0  0  0
   10.1842  -11.8871    0.6255 C   0  0  0  0  0  0  0  0  0  0  0  0
   10.7898  -11.8745   -0.7749 C   0  0  0  0  0  0  0  0  0  0  0  0
    9.3785   -9.1194    0.4950 C   0  0  0  0  0  0  0  0  0  0  0  0
    9.0647   -7.7735    0.4922 C   0  0  0  0  0  0  0  0  0  0  0  0
    8.0458   -5.0509    1.4693 C   0  0  0  0  0  0  0  0  0  0  0  0
    6.6664   -6.1220    1.5645 S   0  0  0  0  0  0  0  0  0  0  0  0
   11.7022   -4.5441    1.0531 C   0  0  0  0  0  0  0  0  0  0  0  0
   12.3755   -3.3332    0.9957 C   0  0  0  0  0  0  0  0  0  0  0  0
   11.2915   -1.9779    1.2497 S   0  0  0  0  0  0  0  0  0  0  0  0
   13.7579   -3.2754    0.7396 C   0  0  0  0  0  0  0  0  0  0  0  0
   14.6032   -2.2036    0.6215 C   0  0  0  0  0  0  0  0  0  0  0  0
   14.2322   -0.7857    0.7662 C   0  0  0  0  0  0  0  0  0  0  0  0
   13.1398   -0.3219    1.0306 O   0  0  0  0  0  0  0  0  0  0  0  0
   15.4660   -0.0156    0.5299 C   0  0  0  0  0  0  0  0  0  0  0  0
   15.6398    1.3377    0.5430 C   0  0  0  0  0  0  0  0  0  0  0  0
   16.9227    1.8686    0.2833 C   0  0  0  0  0  0  0  0  0  0  0  0
   17.1609    3.2580    0.2821 C   0  0  0  0  0  0  0  0  0  0  0  0
   18.4076    3.7586    0.0283 C   0  0  0  0  0  0  0  0  0  0  0  0
   19.4557    2.8659   -0.2330 C   0  0  0  0  0  0  0  0  0  0  0  0
   20.6760    3.3775   -0.4811 F   0  0  0  0  0  0  0  0  0  0  0  0
   19.2793    1.5103   -0.2439 C   0  0  0  0  0  0  0  0  0  0  0  0
   18.0016    0.9771    0.0154 C   0  0  0  0  0  0  0  0  0  0  0  0
   17.7890   -0.4216    0.0102 C   0  0  0  0  0  0  0  0  0  0  0  0
   16.5364   -0.9141    0.2639 C   0  0  0  0  0  0  0  0  0  0  0  0
   16.0206   -2.2804    0.3219 C   0  0  0  0  0  0  0  0  0  0  0  0
   16.7723   -3.4110    0.1208 C   0  0  0  0  0  0  0  0  0  0  0  0
   18.1526   -3.4006   -0.1692 C   0  0  0  0  0  0  0  0  0  0  0  0
   19.2731   -3.4688   -0.4109 N   0  0  0  0  0  0  0  0  0  0  0  0
   16.3064   -4.7408    0.1708 C   0  0  0  0  0  0  0  0  0  0  0  0
   16.0200   -5.8537    0.1891 N   0  0  0  0  0  0  0  0  0  0  0  0
   -9.6201    7.8169   -4.3560 H   0  0  0  0  0  0  0  0  0  0  0  0
  -10.5669   13.0627   -3.0797 H   0  0  0  0  0  0  0  0  0  0  0  0
  -10.0373   14.4323   -1.1137 H   0  0  0  0  0  0  0  0  0  0  0  0
   -6.6854    7.1311   -4.7179 H   0  0  0  0  0  0  0  0  0  0  0  0
   -6.0729    9.0901   -6.0588 H   0  0  0  0  0  0  0  0  0  0  0  0
   -7.2966    9.8242   -9.3442 H   0  0  0  0  0  0  0  0  0  0  0  0
   -6.3426   10.4558   -7.9933 H   0  0  0  0  0  0  0  0  0  0  0  0
   -8.0627   10.8335   -8.1244 H   0  0  0  0  0  0  0  0  0  0  0  0
   -9.3125    8.2931   -8.7174 H   0  0  0  0  0  0  0  0  0  0  0  0
   -9.9508    6.3493   -7.3635 H   0  0  0  0  0  0  0  0  0  0  0  0
   -7.5992    4.4858   -7.3321 H   0  0  0  0  0  0  0  0  0  0  0  0
   -8.2831    2.4394   -8.5100 H   0  0  0  0  0  0  0  0  0  0  0  0
   -9.5776   -0.0343   -7.7178 H   0  0  0  0  0  0  0  0  0  0  0  0
  -10.3270    0.9258   -8.9865 H   0  0  0  0  0  0  0  0  0  0  0  0
  -11.2842    0.4105   -7.5918 H   0  0  0  0  0  0  0  0  0  0  0  0
  -11.4450    1.8745   -5.7002 H   0  0  0  0  0  0  0  0  0  0  0  0
  -10.7686    3.9192   -4.5257 H   0  0  0  0  0  0  0  0  0  0  0  0
   -6.2301    2.4590    2.4931 H   0  0  0  0  0  0  0  0  0  0  0  0
   -6.7746    0.4440    3.7898 H   0  0  0  0  0  0  0  0  0  0  0  0
   -8.0785   -2.1879    2.9645 H   0  0  0  0  0  0  0  0  0  0  0  0
   -9.7566   -1.6877    3.1720 H   0  0  0  0  0  0  0  0  0  0  0  0
   -8.5399   -1.2440    4.3788 H   0  0  0  0  0  0  0  0  0  0  0  0
  -10.0359   -0.3621    1.1654 H   0  0  0  0  0  0  0  0  0  0  0  0
   -9.4990    1.6370   -0.1337 H   0  0  0  0  0  0  0  0  0  0  0  0
   -8.3834    4.3569    2.5930 H   0  0  0  0  0  0  0  0  0  0  0  0
   -7.5911    6.4267    3.6522 H   0  0  0  0  0  0  0  0  0  0  0  0
   -6.1416    8.3019    3.7278 H   0  0  0  0  0  0  0  0  0  0  0  0
   -4.5549    8.0711    2.9794 H   0  0  0  0  0  0  0  0  0  0  0  0
   -5.8163    8.9372    2.1114 H   0  0  0  0  0  0  0  0  0  0  0  0
   -4.7120    6.9241    0.5459 H   0  0  0  0  0  0  0  0  0  0  0  0
   -5.4875    4.8401   -0.5069 H   0  0  0  0  0  0  0  0  0  0  0  0
   -8.2632    0.2286   -4.2400 H   0  0  0  0  0  0  0  0  0  0  0  0
  -10.3731   -0.5241   -5.2408 H   0  0  0  0  0  0  0  0  0  0  0  0
  -11.9389   -1.9180   -3.9466 H   0  0  0  0  0  0  0  0  0  0  0  0
  -11.1140   -3.3748   -0.6502 H   0  0  0  0  0  0  0  0  0  0  0  0
  -12.1881   -3.4926   -2.0508 H   0  0  0  0  0  0  0  0  0  0  0  0
  -12.1944   -1.2078   -0.0178 H   0  0  0  0  0  0  0  0  0  0  0  0
  -13.2652   -1.3365   -1.4111 H   0  0  0  0  0  0  0  0  0  0  0  0
  -13.3803   -2.5145   -0.0996 H   0  0  0  0  0  0  0  0  0  0  0  0
   -9.2666   -1.8062   -0.6249 H   0  0  0  0  0  0  0  0  0  0  0  0
    2.8240   -8.2518    0.5508 H   0  0  0  0  0  0  0  0  0  0  0  0
    3.6927  -10.5294    0.9068 H   0  0  0  0  0  0  0  0  0  0  0  0
    5.2897  -10.9741    2.7274 H   0  0  0  0  0  0  0  0  0  0  0  0
    6.1540   -8.5206    5.3470 H   0  0  0  0  0  0  0  0  0  0  0  0
    6.2008  -10.2319    4.8980 H   0  0  0  0  0  0  0  0  0  0  0  0
    8.4664   -9.2022    4.7418 H   0  0  0  0  0  0  0  0  0  0  0  0
    7.9097   -9.7254    3.1505 H   0  0  0  0  0  0  0  0  0  0  0  0
    7.8551   -8.0213    3.5787 H   0  0  0  0  0  0  0  0  0  0  0  0
    5.0764   -6.8838    3.9123 H   0  0  0  0  0  0  0  0  0  0  0  0
   -2.7412    0.3376    0.7387 H   0  0  0  0  0  0  0  0  0  0  0  0
   -1.8900   -0.7811    1.8343 H   0  0  0  0  0  0  0  0  0  0  0  0
   -3.4720    0.5749    3.1151 H   0  0  0  0  0  0  0  0  0  0  0  0
   -3.9793   -1.1194    3.1304 H   0  0  0  0  0  0  0  0  0  0  0  0
   -4.8113    0.0470    2.0957 H   0  0  0  0  0  0  0  0  0  0  0  0
   -0.6464   -1.3099    0.2367 H   0  0  0  0  0  0  0  0  0  0  0  0
    0.9369   -2.0801    0.1112 H   0  0  0  0  0  0  0  0  0  0  0  0
    0.9727   -0.0577    1.6050 H   0  0  0  0  0  0  0  0  0  0  0  0
    1.5241   -1.5335    2.3962 H   0  0  0  0  0  0  0  0  0  0  0  0
   -0.0783   -0.9029    2.7479 H   0  0  0  0  0  0  0  0  0  0  0  0
    5.7647   -2.6251    1.9441 H   0  0  0  0  0  0  0  0  0  0  0  0
    6.7495   -1.3442    0.1404 H   0  0  0  0  0  0  0  0  0  0  0  0
    6.1026    0.9925    0.3208 H   0  0  0  0  0  0  0  0  0  0  0  0
    5.2750    2.8731    1.4538 H   0  0  0  0  0  0  0  0  0  0  0  0
    6.4955    3.3017    0.2227 H   0  0  0  0  0  0  0  0  0  0  0  0
    5.3885    5.3408    1.1314 H   0  0  0  0  0  0  0  0  0  0  0  0
    7.1097    5.3210    1.5494 H   0  0  0  0  0  0  0  0  0  0  0  0
    5.9057    4.8980    2.7670 H   0  0  0  0  0  0  0  0  0  0  0  0
    9.0216    1.5644    3.3894 H   0  0  0  0  0  0  0  0  0  0  0  0
    9.6604   -0.8100    3.2188 H   0  0  0  0  0  0  0  0  0  0  0  0
   11.2471   -6.6858    2.8230 H   0  0  0  0  0  0  0  0  0  0  0  0
   11.8097   -9.0870    2.8275 H   0  0  0  0  0  0  0  0  0  0  0  0
   10.4197  -12.8328    1.1219 H   0  0  0  0  0  0  0  0  0  0  0  0
    9.0928  -11.7840    0.5814 H   0  0  0  0  0  0  0  0  0  0  0  0
   10.3673  -12.6838   -1.3642 H   0  0  0  0  0  0  0  0  0  0  0  0
   10.5918  -10.9305   -1.2766 H   0  0  0  0  0  0  0  0  0  0  0  0
   11.8666  -12.0085   -0.7104 H   0  0  0  0  0  0  0  0  0  0  0  0
    8.8347   -9.7758   -0.1657 H   0  0  0  0  0  0  0  0  0  0  0  0
    8.3024   -7.4161   -0.1838 H   0  0  0  0  0  0  0  0  0  0  0  0
   12.2011   -5.4850    0.8986 H   0  0  0  0  0  0  0  0  0  0  0  0
   14.1978   -4.2569    0.6080 H   0  0  0  0  0  0  0  0  0  0  0  0
   14.8074    1.9943    0.7481 H   0  0  0  0  0  0  0  0  0  0  0  0
   16.3369    3.9252    0.4863 H   0  0  0  0  0  0  0  0  0  0  0  0
   18.6070    4.8185    0.0234 H   0  0  0  0  0  0  0  0  0  0  0  0
   20.1097    0.8529   -0.4492 H   0  0  0  0  0  0  0  0  0  0  0  0
   18.6279   -1.0660   -0.1967 H   0  0  0  0  0  0  0  0  0  0  0  0
  1  2  2  0  0  0  0
  2  3  1  0  0  0  0
  3  4  2  0  0  0  0
  3  5  1  0  0  0  0
  5  6  2  0  0  0  0
  6  7  1  0  0  0  0
  7  8  2  0  0  0  0
  8  9  1  0  0  0  0
  9 10  1  0  0  0  0
  9 11  2  0  0  0  0
 11 12  1  0  0  0  0
  6 13  1  0  0  0  0
 13 14  2  0  0  0  0
 14 15  1  0  0  0  0
 15 16  3  0  0  0  0
 14 17  1  0  0  0  0
 17 18  3  0  0  0  0
  1 19  1  0  0  0  0
 19 20  2  0  0  0  0
 20 21  1  0  0  0  0
 21 22  1  0  0  0  0
 22 23  2  0  0  0  0
 23 24  1  0  0  0  0
 24 25  2  0  0  0  0
 25 26  1  0  0  0  0
 25 27  1  0  0  0  0
 27 28  2  0  0  0  0
 21 29  1  0  0  0  0
 29 30  2  0  0  0  0
 30 31  1  0  0  0  0
 31 32  2  0  0  0  0
 32 33  1  0  0  0  0
 32 34  1  0  0  0  0
 34 35  2  0  0  0  0
 20 36  1  0  0  0  0
 36 37  1  0  0  0  0
 37 38  1  0  0  0  0
 38 39  2  0  0  0  0
 39 40  1  0  0  0  0
 40 41  1  0  0  0  0
 41 42  2  0  0  0  0
 42 43  1  0  0  0  0
 43 44  2  0  0  0  0
 44 45  1  0  0  0  0
 44 46  1  0  0  0  0
 46 47  2  0  0  0  0
 40 48  1  0  0  0  0
 48 49  2  0  0  0  0
 49 50  1  0  0  0  0
 50 51  2  0  0  0  0
 51 52  1  0  0  0  0
 51 53  1  0  0  0  0
 53 54  2  0  0  0  0
 39 55  1  0  0  0  0
 55 56  1  0  0  0  0
 38 57  1  0  0  0  0
 57 58  2  0  0  0  0
 58 59  1  0  0  0  0
 59 60  2  0  0  0  0
 60 61  1  0  0  0  0
 61 62  2  0  0  0  0
 62 63  1  0  0  0  0
 63 64  1  0  0  0  0
 64 65  1  0  0  0  0
 63 66  2  0  0  0  0
 58 67  1  0  0  0  0
 67 68  1  0  0  0  0
 68 69  1  0  0  0  0
 69 70  1  0  0  0  0
 70 71  1  0  0  0  0
 71 72  1  0  0  0  0
 72 73  2  0  0  0  0
 73 74  1  0  0  0  0
 74 75  1  0  0  0  0
 72 76  1  0  0  0  0
 76 77  1  0  0  0  0
 77 78  1  0  0  0  0
 78 79  1  0  0  0  0
 79 80  1  0  0  0  0
 80 81  1  0  0  0  0
 81 82  2  0  0  0  0
 82 83  1  0  0  0  0
 83 84  2  0  0  0  0
 84 85  1  0  0  0  0
 85 86  1  0  0  0  0
 86 87  1  0  0  0  0
 85 88  2  0  0  0  0
 80 89  2  0  0  0  0
 89 90  1  0  0  0  0
 90 91  1  0  0  0  0
 91 92  1  0  0  0  0
 92 93  1  0  0  0  0
 93 94  1  0  0  0  0
 94 95  1  0  0  0  0
 95 96  1  0  0  0  0
 96 97  1  0  0  0  0
 97 98  1  0  0  0  0
 98 99  1  0  0  0  0
 96100  1  0  0  0  0
100101  1  0  0  0  0
 93102  1  0  0  0  0
102103  1  0  0  0  0
 89104  1  0  0  0  0
104105  2  0  0  0  0
105106  1  0  0  0  0
106107  2  0  0  0  0
107108  1  0  0  0  0
108109  2  0  0  0  0
109110  1  0  0  0  0
110111  2  0  0  0  0
111112  1  0  0  0  0
112113  1  0  0  0  0
113114  1  0  0  0  0
111115  1  0  0  0  0
115116  2  0  0  0  0
107117  1  0  0  0  0
117118  2  0  0  0  0
118119  1  0  0  0  0
119120  1  0  0  0  0
120121  2  0  0  0  0
121122  1  0  0  0  0
122123  2  0  0  0  0
123124  1  0  0  0  0
124125  1  0  0  0  0
125126  1  0  0  0  0
123127  1  0  0  0  0
127128  2  0  0  0  0
119129  2  0  0  0  0
129130  1  0  0  0  0
118131  1  0  0  0  0
131132  2  0  0  0  0
132133  1  0  0  0  0
132134  1  0  0  0  0
134135  2  0  0  0  0
135136  1  0  0  0  0
136137  2  0  0  0  0
136138  1  0  0  0  0
138139  2  0  0  0  0
139140  1  0  0  0  0
140141  2  0  0  0  0
141142  1  0  0  0  0
142143  2  0  0  0  0
143144  1  0  0  0  0
143145  1  0  0  0  0
145146  2  0  0  0  0
146147  1  0  0  0  0
147148  2  0  0  0  0
148149  1  0  0  0  0
149150  2  0  0  0  0
150151  1  0  0  0  0
151152  3  0  0  0  0
150153  1  0  0  0  0
153154  3  0  0  0  0
 13  2  1  0  0  0  0
 56 19  1  0  0  0  0
 99 57  1  0  0  0  0
130104  1  0  0  0  0
149135  1  0  0  0  0
 11  5  1  0  0  0  0
 28 22  1  0  0  0  0
 35 29  1  0  0  0  0
 55 36  2  0  0  0  0
 66 59  1  0  0  0  0
 98 67  2  0  0  0  0
129106  1  0  0  0  0
148138  1  0  0  0  0
 47 41  1  0  0  0  0
 54 48  1  0  0  0  0
 97 69  2  0  0  0  0
116108  1  0  0  0  0
133117  1  0  0  0  0
146140  1  0  0  0  0
 95 70  2  0  0  0  0
128120  1  0  0  0  0
 75 71  2  0  0  0  0
 94 76  2  0  0  0  0
 92 77  2  0  0  0  0
 91 79  2  0  0  0  0
 88 81  1  0  0  0  0
  1155  1  0  0  0  0
  7156  1  0  0  0  0
  8157  1  0  0  0  0
 23158  1  0  0  0  0
 24159  1  0  0  0  0
 26160  1  0  0  0  0
 26161  1  0  0  0  0
 26162  1  0  0  0  0
 27163  1  0  0  0  0
 28164  1  0  0  0  0
 30165  1  0  0  0  0
 31166  1  0  0  0  0
 33167  1  0  0  0  0
 33168  1  0  0  0  0
 33169  1  0  0  0  0
 34170  1  0  0  0  0
 35171  1  0  0  0  0
 42172  1  0  0  0  0
 43173  1  0  0  0  0
 45174  1  0  0  0  0
 45175  1  0  0  0  0
 45176  1  0  0  0  0
 46177  1  0  0  0  0
 47178  1  0  0  0  0
 49179  1  0  0  0  0
 50180  1  0  0  0  0
 52181  1  0  0  0  0
 52182  1  0  0  0  0
 52183  1  0  0  0  0
 53184  1  0  0  0  0
 54185  1  0  0  0  0
 60186  1  0  0  0  0
 61187  1  0  0  0  0
 62188  1  0  0  0  0
 64189  1  0  0  0  0
 64190  1  0  0  0  0
 65191  1  0  0  0  0
 65192  1  0  0  0  0
 65193  1  0  0  0  0
 66194  1  0  0  0  0
 82195  1  0  0  0  0
 83196  1  0  0  0  0
 84197  1  0  0  0  0
 86198  1  0  0  0  0
 86199  1  0  0  0  0
 87200  1  0  0  0  0
 87201  1  0  0  0  0
 87202  1  0  0  0  0
 88203  1  0  0  0  0
100204  1  0  0  0  0
100205  1  0  0  0  0
101206  1  0  0  0  0
101207  1  0  0  0  0
101208  1  0  0  0  0
102209  1  0  0  0  0
102210  1  0  0  0  0
103211  1  0  0  0  0
103212  1  0  0  0  0
103213  1  0  0  0  0
105214  1  0  0  0  0
109215  1  0  0  0  0
110216  1  0  0  0  0
113217  1  0  0  0  0
113218  1  0  0  0  0
114219  1  0  0  0  0
114220  1  0  0  0  0
114221  1  0  0  0  0
115222  1  0  0  0  0
116223  1  0  0  0  0
121224  1  0  0  0  0
122225  1  0  0  0  0
125226  1  0  0  0  0
125227  1  0  0  0  0
126228  1  0  0  0  0
126229  1  0  0  0  0
126230  1  0  0  0  0
127231  1  0  0  0  0
128232  1  0  0  0  0
131233  1  0  0  0  0
134234  1  0  0  0  0
139235  1  0  0  0  0
141236  1  0  0  0  0
142237  1  0  0  0  0
145238  1  0  0  0  0
147239  1  0  0  0  0
M  END
