190

C          1.08270        7.43530        0.50460
C          2.04490        7.40120       -0.49560
C          2.21710        6.26130       -1.40000
O          1.55290        5.24300       -1.44430
C          3.28760        6.66100       -2.34460
C          3.68710        7.97800       -2.05970
C          4.67790        8.57910       -2.81520
C          5.27800        7.84300       -3.82860
C          4.90280        6.53400       -4.08030
Br         5.79920        5.56360       -5.43350
C          3.88710        5.91570       -3.34310
Cl         3.44370        4.28030       -3.62870
C          2.93410        8.44680       -0.89390
C          3.17990        9.61220       -0.20420
C          2.54040        9.95890        1.00100
N          2.08010       10.28750        2.00130
C          4.15400       10.55670       -0.56990
N          4.94800       11.35230       -0.81100
C          0.54180        6.31750        1.12550
C          1.01750        4.98380        1.21500
N          2.28330        4.55000        0.98720
C          2.54040        3.16730        0.79780
C          3.46950        2.53570        1.61750
C          3.73790        1.19410        1.44140
C          3.09310        0.45920        0.45180
C          3.39860       -0.99760        0.28620
C          2.18280        1.10660       -0.37270
C          1.90690        2.45180       -0.21060
C          3.40460        5.39300        0.95420
C          3.55110        6.45350        1.84770
C          4.64870        7.28270        1.76210
C          5.63240        7.08270        0.79500
C          6.78460        8.02960        0.68260
C          5.50610        5.99150       -0.05340
C          4.41130        5.15040        0.02200
C         -0.00660        4.14090        1.69580
S         -0.12370        2.42820        1.88120
C         -1.78910        2.59080        2.40730
C         -2.18630        3.91330        2.57030
N         -3.36110        4.29650        3.17310
C         -3.89700        5.57940        2.94710
C         -4.02170        6.07560        1.65560
C         -4.54430        7.33690        1.44510
C         -4.95780        8.12760        2.50880
C         -5.49670        9.50600        2.28080
C         -4.84040        7.61610        3.79700
C         -4.31630        6.35940        4.02090
C         -4.00880        3.45280        4.09170
C         -5.40000        3.43710        4.14510
C         -6.05410        2.59500        5.02130
C         -5.34830        1.74730        5.86730
C         -6.07100        0.80690        6.78240
C         -3.96080        1.79270        5.83140
C         -3.29470        2.63680        4.96490
C         -1.17080        4.78590        2.10420
S         -1.04960        6.49600        1.89500
C         -2.56580        1.39350        2.43840
C         -3.78730        1.17250        1.83500
C         -4.45390        2.17520        0.99520
C         -5.79850        2.49180        1.13110
C         -6.36750        3.42100        0.27870
C         -5.61800        4.00860       -0.72610
C         -4.28200        3.66860       -0.90530
C         -3.46490        4.23530       -2.03510
C         -2.26240        5.05480       -1.56310
C         -3.71310        2.75580       -0.02960
C         -4.12510       -0.19680        1.85110
S         -5.38110       -1.11890        1.05170
C         -4.46300       -2.57390        1.31180
C         -4.38710       -3.89400        0.81850
C         -5.24250       -4.72360        0.05500
C         -4.75340       -5.99420       -0.42820
N         -5.67680       -6.66670       -1.09300
S         -7.04010       -5.79210       -1.11750
N         -6.50270       -4.51240       -0.28410
C         -3.37890       -6.30480       -0.28030
C         -2.51520       -7.15800       -0.99330
S         -2.57560       -8.36790       -2.23610
C         -0.83340       -8.26290       -2.40570
C          0.06810       -8.77650       -3.35720
C         -0.34100       -9.66630       -4.44240
C          0.06610       -9.43970       -5.75510
C         -0.37670      -10.27160       -6.76520
C         -1.22840      -11.32590       -6.48160
C         -1.65360      -11.55950       -5.18000
C         -2.63130      -12.65480       -4.86870
C         -4.05470      -12.09410       -4.83590
C         -1.20560      -10.72150       -4.17000
C          1.33520       -8.24230       -3.16720
S          1.42200       -7.13010       -1.81320
C         -0.25510       -7.36520       -1.50210
C         -1.20910       -6.76540       -0.67710
N         -1.22170       -5.77460        0.26730
C         -2.54620       -5.46480        0.50540
C         -3.11080       -4.37870        1.20760
N         -2.49750       -3.45920        2.03640
C         -3.29890       -2.34870        2.05460
C         -3.12670       -1.00460        2.39560
S         -1.82040       -0.07710        3.03740
C         -1.56950       -3.74280        3.10890
C         -2.24060       -3.58780        4.47300
C         -0.05460       -4.93680        0.44300
C         -0.09310       -3.71680       -0.47360
C          2.54940       -8.37640       -3.89060
C          3.08150       -9.33910       -4.74910
C          4.34750       -8.88820       -5.09500
C          4.53260       -7.65580       -4.45670
O          3.43480       -7.38710       -3.71760
C          5.62720       -6.78120       -4.53120
C          5.70140       -5.46910       -4.12390
C          4.56010       -4.59120       -3.77970
O          3.38720       -4.86720       -3.67060
C          5.14080       -3.22760       -3.65920
C          6.53010       -3.28340       -3.86300
C          7.28500       -2.12220       -3.80940
C          6.64010       -0.92050       -3.55720
C          5.26800       -0.86690       -3.36550
Br         4.45420        0.80890       -3.05050
C          4.49110       -2.02870       -3.41700
Cl         2.79150       -1.96820       -3.21340
C          6.90660       -4.67180       -4.12580
C          8.19530       -5.12110       -4.27730
C          9.33450       -4.29170       -4.23470
N         10.30150       -3.67250       -4.21400
C          8.57570       -6.46660       -4.46090
N          8.97360       -7.53560       -4.59750
H          0.67540        8.39290        0.80390
H          4.99420        9.59310       -2.63620
H          6.05800        8.28940       -4.42590
H          3.97170        3.10130        2.38890
H          4.45710        0.70600        2.08320
H          2.79760       -1.43280       -0.50690
H          3.20130       -1.53450        1.21340
H          4.45120       -1.13830        0.04100
H          1.68900        0.55760       -1.16020
H          1.22580        2.96570       -0.87040
H          2.80210        6.62940        2.60500
H          4.74290        8.10770        2.45310
H          7.26910        8.16000        1.64860
H          7.51760        7.66840       -0.03380
H          6.43650        9.00950        0.35480
H          6.26680        5.80050       -0.79610
H          4.32350        4.30920       -0.64910
H         -3.72610        5.45680        0.82490
H         -4.63770        7.70910        0.43510
H         -6.24910        9.75750        3.02480
H         -4.69020       10.23580        2.35890
H         -5.93510        9.59350        1.28950
H         -5.15840        8.21520        4.63790
H         -4.22780        5.97430        5.02630
H         -5.96060        4.08800        3.49110
H         -7.13440        2.58950        5.04390
H         -6.93480        1.29300        7.23110
H         -5.41520        0.45270        7.57400
H         -6.42870       -0.05820        6.22290
H         -3.38790        1.16280        6.49700
H         -2.21520        2.66890        4.97370
H         -6.38520        2.01500        1.90140
H         -7.40950        3.68200        0.39130
H         -6.08010        4.72600       -1.38890
H         -4.10030        4.85960       -2.66640
H         -3.10090        3.40440       -2.64610
H         -1.65810        5.35910       -2.41430
H         -1.62900        4.47360       -0.89700
H         -2.58330        5.95200       -1.03830
H         -2.68150        2.46250       -0.16400
H          0.70520       -8.59960       -5.98070
H         -0.06250      -10.09190       -7.78290
H         -1.57160      -11.96890       -7.27900
H         -2.39670      -13.09570       -3.89780
H         -2.56710      -13.43840       -5.62590
H         -4.31450      -11.66680       -5.80180
H         -4.76750      -12.88070       -4.60080
H         -4.13640      -11.31250       -4.08410
H         -1.52380      -10.89640       -3.15250
H         -0.71830       -3.05570        3.04280
H         -1.23080       -4.77450        3.00430
H         -1.54240       -3.87050        5.25610
H         -2.54600       -2.55820        4.63730
H         -3.11740       -4.22850        4.53750
H          0.81330       -5.55300        0.19540
H          0.04320       -4.62110        1.47890
H          0.80880       -3.12800       -0.33330
H         -0.95580       -3.09320       -0.25050
H         -0.14600       -4.02830       -1.51400
H          2.59950      -10.24440       -5.05590
H          5.05560       -9.37050       -5.73830
H          6.49900       -7.21640       -5.00070
H          8.35020       -2.12860       -3.96720
H          7.20960       -0.00460       -3.51800
