
  xtb     02072222003D
 energy: -403.365148728698 gnorm: 0.000911343668 xtb: 6.4.1 (unknown)
225249  0     0  0            999 V2000
    5.2101   -1.8054   11.3074 C   0  0  0  0  0  0  0  0  0  0  0  0
    4.9339   -2.4936   12.4754 C   0  0  0  0  0  0  0  0  0  0  0  0
    3.6663   -3.1299   12.8187 C   0  0  0  0  0  0  0  0  0  0  0  0
    2.6234   -3.1198   12.1899 O   0  0  0  0  0  0  0  0  0  0  0  0
    3.9021   -3.8367   14.0985 C   0  0  0  0  0  0  0  0  0  0  0  0
    5.2375   -3.6432   14.4949 C   0  0  0  0  0  0  0  0  0  0  0  0
    5.7010   -4.2224   15.6642 C   0  0  0  0  0  0  0  0  0  0  0  0
    4.8226   -4.9841   16.4227 C   0  0  0  0  0  0  0  0  0  0  0  0
    3.5058   -5.1640   16.0312 C   0  0  0  0  0  0  0  0  0  0  0  0
    2.3556   -6.2033   17.1138 Br  0  0  0  0  0  0  0  0  0  0  0  0
    3.0188   -4.5890   14.8524 C   0  0  0  0  0  0  0  0  0  0  0  0
    1.3914   -4.8027   14.3628 Cl  0  0  0  0  0  0  0  0  0  0  0  0
    5.8920   -2.7790   13.5102 C   0  0  0  0  0  0  0  0  0  0  0  0
    7.1822   -2.3111   13.6129 C   0  0  0  0  0  0  0  0  0  0  0  0
    7.7779   -1.3599   12.7641 C   0  0  0  0  0  0  0  0  0  0  0  0
    8.3266   -0.5601   12.1460 N   0  0  0  0  0  0  0  0  0  0  0  0
    8.0858   -2.6952   14.6227 C   0  0  0  0  0  0  0  0  0  0  0  0
    8.8804   -2.9785   15.4027 N   0  0  0  0  0  0  0  0  0  0  0  0
    4.3785   -1.4359   10.2600 C   0  0  0  0  0  0  0  0  0  0  0  0
    4.8334   -0.6940    9.1319 C   0  0  0  0  0  0  0  0  0  0  0  0
    6.1391   -0.4524    8.8128 N   0  0  0  0  0  0  0  0  0  0  0  0
    7.1616   -1.3966    9.0252 C   0  0  0  0  0  0  0  0  0  0  0  0
    6.9122   -2.7596    8.8857 C   0  0  0  0  0  0  0  0  0  0  0  0
    7.9252   -3.6722    9.1023 C   0  0  0  0  0  0  0  0  0  0  0  0
    9.2072   -3.2555    9.4420 C   0  0  0  0  0  0  0  0  0  0  0  0
   10.3038   -4.2419    9.6991 C   0  0  0  0  0  0  0  0  0  0  0  0
    9.4522   -1.8912    9.5469 C   0  0  0  0  0  0  0  0  0  0  0  0
    8.4466   -0.9670    9.3476 C   0  0  0  0  0  0  0  0  0  0  0  0
    6.4567    0.7369    8.1251 C   0  0  0  0  0  0  0  0  0  0  0  0
    5.9317    1.9509    8.5612 C   0  0  0  0  0  0  0  0  0  0  0  0
    6.2390    3.1162    7.8904 C   0  0  0  0  0  0  0  0  0  0  0  0
    7.0758    3.1049    6.7790 C   0  0  0  0  0  0  0  0  0  0  0  0
    7.3944    4.3807    6.0635 C   0  0  0  0  0  0  0  0  0  0  0  0
    7.6016    1.8898    6.3592 C   0  0  0  0  0  0  0  0  0  0  0  0
    7.2989    0.7147    7.0194 C   0  0  0  0  0  0  0  0  0  0  0  0
    3.7479   -0.2315    8.3717 C   0  0  0  0  0  0  0  0  0  0  0  0
    3.6080    0.6922    6.9082 S   0  0  0  0  0  0  0  0  0  0  0  0
    1.8610    0.5171    6.9563 C   0  0  0  0  0  0  0  0  0  0  0  0
    1.4247   -0.2813    8.0067 C   0  0  0  0  0  0  0  0  0  0  0  0
    0.1261   -0.7040    8.2065 N   0  0  0  0  0  0  0  0  0  0  0  0
   -0.3079   -0.9650    9.5191 C   0  0  0  0  0  0  0  0  0  0  0  0
    0.0383   -0.1063   10.5579 C   0  0  0  0  0  0  0  0  0  0  0  0
   -0.3463   -0.3941   11.8519 C   0  0  0  0  0  0  0  0  0  0  0  0
   -1.0861   -1.5328   12.1440 C   0  0  0  0  0  0  0  0  0  0  0  0
   -1.4539   -1.8632   13.5573 C   0  0  0  0  0  0  0  0  0  0  0  0
   -1.4484   -2.3704   11.0963 C   0  0  0  0  0  0  0  0  0  0  0  0
   -1.0662   -2.0973    9.7984 C   0  0  0  0  0  0  0  0  0  0  0  0
   -0.7269   -0.9477    7.1222 C   0  0  0  0  0  0  0  0  0  0  0  0
   -2.0826   -0.6400    7.2131 C   0  0  0  0  0  0  0  0  0  0  0  0
   -2.9006   -0.7727    6.1099 C   0  0  0  0  0  0  0  0  0  0  0  0
   -2.4019   -1.2232    4.8923 C   0  0  0  0  0  0  0  0  0  0  0  0
   -3.2817   -1.2770    3.6810 C   0  0  0  0  0  0  0  0  0  0  0  0
   -1.0684   -1.6035    4.8322 C   0  0  0  0  0  0  0  0  0  0  0  0
   -0.2396   -1.4785    5.9303 C   0  0  0  0  0  0  0  0  0  0  0  0
    2.5101   -0.6683    8.8292 C   0  0  0  0  0  0  0  0  0  0  0  0
    2.6232   -1.6535   10.2404 S   0  0  0  0  0  0  0  0  0  0  0  0
    1.0312    1.1126    5.9530 C   0  0  0  0  0  0  0  0  0  0  0  0
   -0.1492    1.8010    6.1545 C   0  0  0  0  0  0  0  0  0  0  0  0
   -0.5801    2.3252    7.4482 C   0  0  0  0  0  0  0  0  0  0  0  0
    0.3536    2.7915    8.3723 C   0  0  0  0  0  0  0  0  0  0  0  0
   -0.0680    3.2998    9.5854 C   0  0  0  0  0  0  0  0  0  0  0  0
   -1.4167    3.3484    9.8945 C   0  0  0  0  0  0  0  0  0  0  0  0
   -2.3622    2.9060    8.9794 C   0  0  0  0  0  0  0  0  0  0  0  0
   -3.8317    3.0082    9.2688 C   0  0  0  0  0  0  0  0  0  0  0  0
   -4.4106    4.2736    8.6329 C   0  0  0  0  0  0  0  0  0  0  0  0
   -1.9330    2.4088    7.7584 C   0  0  0  0  0  0  0  0  0  0  0  0
   -0.8350    1.9949    4.9355 C   0  0  0  0  0  0  0  0  0  0  0  0
   -2.3675    2.7308    4.5380 S   0  0  0  0  0  0  0  0  0  0  0  0
   -2.0956    2.3570    2.8698 C   0  0  0  0  0  0  0  0  0  0  0  0
   -2.7014    2.5558    1.6183 C   0  0  0  0  0  0  0  0  0  0  0  0
   -3.8378    3.3040    1.2414 C   0  0  0  0  0  0  0  0  0  0  0  0
   -4.1045    3.5035   -0.1551 C   0  0  0  0  0  0  0  0  0  0  0  0
   -5.1521    4.2856   -0.3630 N   0  0  0  0  0  0  0  0  0  0  0  0
   -5.7566    4.7264    1.0728 S   0  0  0  0  0  0  0  0  0  0  0  0
   -4.7026    3.9389    2.0170 N   0  0  0  0  0  0  0  0  0  0  0  0
   -3.3023    2.8361   -1.1062 C   0  0  0  0  0  0  0  0  0  0  0  0
   -3.3908    2.7615   -2.5068 C   0  0  0  0  0  0  0  0  0  0  0  0
   -4.3102    3.4476   -3.8028 S   0  0  0  0  0  0  0  0  0  0  0  0
   -3.3819    2.4906   -4.9323 C   0  0  0  0  0  0  0  0  0  0  0  0
   -3.4133    2.3819   -6.3346 C   0  0  0  0  0  0  0  0  0  0  0  0
   -4.3463    3.1404   -7.1737 C   0  0  0  0  0  0  0  0  0  0  0  0
   -4.4072    4.5249   -7.0568 C   0  0  0  0  0  0  0  0  0  0  0  0
   -5.2878    5.2422   -7.8441 C   0  0  0  0  0  0  0  0  0  0  0  0
   -6.1096    4.5886   -8.7451 C   0  0  0  0  0  0  0  0  0  0  0  0
   -6.0691    3.2052   -8.8665 C   0  0  0  0  0  0  0  0  0  0  0  0
   -6.9881    2.4912   -9.8149 C   0  0  0  0  0  0  0  0  0  0  0  0
   -8.2975    2.1185   -9.1167 C   0  0  0  0  0  0  0  0  0  0  0  0
   -5.1921    2.4895   -8.0660 C   0  0  0  0  0  0  0  0  0  0  0  0
   -2.4617    1.4870   -6.7921 C   0  0  0  0  0  0  0  0  0  0  0  0
   -1.5472    0.7521   -5.4766 S   0  0  0  0  0  0  0  0  0  0  0  0
   -2.4276    1.6776   -4.3149 C   0  0  0  0  0  0  0  0  0  0  0  0
   -2.4268    1.8421   -2.9261 C   0  0  0  0  0  0  0  0  0  0  0  0
   -1.7187    1.3674   -1.8498 N   0  0  0  0  0  0  0  0  0  0  0  0
   -2.2336    1.9829   -0.7160 C   0  0  0  0  0  0  0  0  0  0  0  0
   -1.8508    1.9514    0.6497 C   0  0  0  0  0  0  0  0  0  0  0  0
   -0.7410    1.4477    1.3015 N   0  0  0  0  0  0  0  0  0  0  0  0
   -0.8899    1.6928    2.6389 C   0  0  0  0  0  0  0  0  0  0  0  0
   -0.1630    1.4953    3.8206 C   0  0  0  0  0  0  0  0  0  0  0  0
    1.3501    0.7883    4.2575 S   0  0  0  0  0  0  0  0  0  0  0  0
    0.5404    1.0254    0.7881 C   0  0  0  0  0  0  0  0  0  0  0  0
    0.7599   -0.4761    0.9698 C   0  0  0  0  0  0  0  0  0  0  0  0
   -1.1029    0.0619   -1.9648 C   0  0  0  0  0  0  0  0  0  0  0  0
   -2.0722   -1.0375   -1.5348 C   0  0  0  0  0  0  0  0  0  0  0  0
   -2.0553    1.1856   -8.1199 C   0  0  0  0  0  0  0  0  0  0  0  0
   -1.1205    0.2519   -8.4838 C   0  0  0  0  0  0  0  0  0  0  0  0
   -0.8330    0.2379   -9.8648 C   0  0  0  0  0  0  0  0  0  0  0  0
    0.0521   -0.6058  -10.5635 C   0  0  0  0  0  0  0  0  0  0  0  0
    0.8283   -1.6261   -9.8796 C   0  0  0  0  0  0  0  0  0  0  0  0
    1.8199   -1.2418   -8.5029 S   0  0  0  0  0  0  0  0  0  0  0  0
    2.3753   -2.8738   -8.3458 C   0  0  0  0  0  0  0  0  0  0  0  0
    3.2899   -3.2699   -7.2401 C   0  0  0  0  0  0  0  0  0  0  0  0
    2.5262   -3.4096   -5.9214 C   0  0  0  0  0  0  0  0  0  0  0  0
    1.8093   -3.6596   -9.3041 C   0  0  0  0  0  0  0  0  0  0  0  0
    2.1045   -5.3423   -9.4622 Cl  0  0  0  0  0  0  0  0  0  0  0  0
    0.9388   -2.9556  -10.1799 C   0  0  0  0  0  0  0  0  0  0  0  0
    0.0589   -3.7400  -11.4231 Cl  0  0  0  0  0  0  0  0  0  0  0  0
    0.1684   -0.4007  -11.9329 C   0  0  0  0  0  0  0  0  0  0  0  0
   -0.5881    0.5823  -12.6276 C   0  0  0  0  0  0  0  0  0  0  0  0
   -1.5388    1.3679  -11.9394 C   0  0  0  0  0  0  0  0  0  0  0  0
   -2.4081    2.2844  -12.6488 C   0  0  0  0  0  0  0  0  0  0  0  0
   -2.6730    3.9072  -12.0832 S   0  0  0  0  0  0  0  0  0  0  0  0
   -3.7642    4.2623  -13.3767 C   0  0  0  0  0  0  0  0  0  0  0  0
   -4.4468    5.5820  -13.4576 C   0  0  0  0  0  0  0  0  0  0  0  0
   -5.6016    5.6514  -12.4556 C   0  0  0  0  0  0  0  0  0  0  0  0
   -3.9189    3.1727  -14.1821 C   0  0  0  0  0  0  0  0  0  0  0  0
   -3.1498    2.0500  -13.7775 C   0  0  0  0  0  0  0  0  0  0  0  0
   -3.2503    0.5406  -14.5819 Cl  0  0  0  0  0  0  0  0  0  0  0  0
   -4.9331    3.1384  -15.5639 Cl  0  0  0  0  0  0  0  0  0  0  0  0
   -1.6013    1.2032  -10.5669 C   0  0  0  0  0  0  0  0  0  0  0  0
   -2.6496    2.0907   -9.4965 S   0  0  0  0  0  0  0  0  0  0  0  0
   -0.2199    0.6896  -13.9772 C   0  0  0  0  0  0  0  0  0  0  0  0
    0.7575   -0.1995  -14.3591 C   0  0  0  0  0  0  0  0  0  0  0  0
    1.2774   -1.1996  -12.9992 S   0  0  0  0  0  0  0  0  0  0  0  0
    1.3827   -0.4408  -15.5996 C   0  0  0  0  0  0  0  0  0  0  0  0
    1.1602    0.0881  -16.8434 C   0  0  0  0  0  0  0  0  0  0  0  0
    0.1309    1.0651  -17.2669 C   0  0  0  0  0  0  0  0  0  0  0  0
   -0.5889    1.7626  -16.5864 O   0  0  0  0  0  0  0  0  0  0  0  0
    0.1644    1.0589  -18.7464 C   0  0  0  0  0  0  0  0  0  0  0  0
    1.2059    0.2288  -19.1957 C   0  0  0  0  0  0  0  0  0  0  0  0
    1.4256    0.0698  -20.5551 C   0  0  0  0  0  0  0  0  0  0  0  0
    0.6023    0.7452  -21.4436 C   0  0  0  0  0  0  0  0  0  0  0  0
   -0.4216    1.5656  -20.9949 C   0  0  0  0  0  0  0  0  0  0  0  0
   -1.5069    2.4575  -22.2582 Br  0  0  0  0  0  0  0  0  0  0  0  0
   -0.6618    1.7390  -19.6274 C   0  0  0  0  0  0  0  0  0  0  0  0
   -1.9301    2.7422  -19.0687 Cl  0  0  0  0  0  0  0  0  0  0  0  0
    1.8856   -0.3345  -18.0312 C   0  0  0  0  0  0  0  0  0  0  0  0
    3.0364   -1.0760  -18.0832 C   0  0  0  0  0  0  0  0  0  0  0  0
    3.6932   -1.4336  -19.2805 C   0  0  0  0  0  0  0  0  0  0  0  0
    4.2773   -1.7607  -20.2129 N   0  0  0  0  0  0  0  0  0  0  0  0
    3.7710   -1.5580  -16.9772 C   0  0  0  0  0  0  0  0  0  0  0  0
    4.4496   -1.9752  -16.1498 N   0  0  0  0  0  0  0  0  0  0  0  0
    6.2385   -1.4892   11.1888 H   0  0  0  0  0  0  0  0  0  0  0  0
    6.7180   -4.0987   15.9966 H   0  0  0  0  0  0  0  0  0  0  0  0
    5.1648   -5.4451   17.3364 H   0  0  0  0  0  0  0  0  0  0  0  0
    5.9236   -3.0994    8.6135 H   0  0  0  0  0  0  0  0  0  0  0  0
    7.7158   -4.7269    8.9967 H   0  0  0  0  0  0  0  0  0  0  0  0
   10.6027   -4.2030   10.7465 H   0  0  0  0  0  0  0  0  0  0  0  0
   11.1795   -4.0057    9.0969 H   0  0  0  0  0  0  0  0  0  0  0  0
    9.9823   -5.2544    9.4691 H   0  0  0  0  0  0  0  0  0  0  0  0
   10.4413   -1.5468    9.8080 H   0  0  0  0  0  0  0  0  0  0  0  0
    8.6473    0.0873    9.4530 H   0  0  0  0  0  0  0  0  0  0  0  0
    5.2920    1.9716    9.4315 H   0  0  0  0  0  0  0  0  0  0  0  0
    5.8295    4.0537    8.2372 H   0  0  0  0  0  0  0  0  0  0  0  0
    8.0767    4.2049    5.2362 H   0  0  0  0  0  0  0  0  0  0  0  0
    6.4829    4.8320    5.6733 H   0  0  0  0  0  0  0  0  0  0  0  0
    7.8515    5.0952    6.7468 H   0  0  0  0  0  0  0  0  0  0  0  0
    8.2538    1.8586    5.4987 H   0  0  0  0  0  0  0  0  0  0  0  0
    7.7083   -0.2249    6.6793 H   0  0  0  0  0  0  0  0  0  0  0  0
    0.6068    0.7860   10.3429 H   0  0  0  0  0  0  0  0  0  0  0  0
   -0.0637    0.2773   12.6498 H   0  0  0  0  0  0  0  0  0  0  0  0
   -2.3373   -2.4962   13.5949 H   0  0  0  0  0  0  0  0  0  0  0  0
   -0.6322   -2.4004   14.0318 H   0  0  0  0  0  0  0  0  0  0  0  0
   -1.6393   -0.9596   14.1341 H   0  0  0  0  0  0  0  0  0  0  0  0
   -2.0258   -3.2604   11.3010 H   0  0  0  0  0  0  0  0  0  0  0  0
   -1.3409   -2.7658    8.9955 H   0  0  0  0  0  0  0  0  0  0  0  0
   -2.4771   -0.2749    8.1494 H   0  0  0  0  0  0  0  0  0  0  0  0
   -3.9439   -0.5022    6.1865 H   0  0  0  0  0  0  0  0  0  0  0  0
   -3.4809   -0.2669    3.3198 H   0  0  0  0  0  0  0  0  0  0  0  0
   -4.2385   -1.7385    3.9178 H   0  0  0  0  0  0  0  0  0  0  0  0
   -2.8082   -1.8407    2.8804 H   0  0  0  0  0  0  0  0  0  0  0  0
   -0.6663   -2.0009    3.9106 H   0  0  0  0  0  0  0  0  0  0  0  0
    0.7948   -1.7835    5.8637 H   0  0  0  0  0  0  0  0  0  0  0  0
    1.4059    2.7730    8.1293 H   0  0  0  0  0  0  0  0  0  0  0  0
    0.6601    3.6648   10.2957 H   0  0  0  0  0  0  0  0  0  0  0  0
   -1.7368    3.7397   10.8492 H   0  0  0  0  0  0  0  0  0  0  0  0
   -4.3487    2.1358    8.8635 H   0  0  0  0  0  0  0  0  0  0  0  0
   -3.9976    3.0339   10.3474 H   0  0  0  0  0  0  0  0  0  0  0  0
   -4.2607    4.2576    7.5558 H   0  0  0  0  0  0  0  0  0  0  0  0
   -5.4764    4.3477    8.8354 H   0  0  0  0  0  0  0  0  0  0  0  0
   -3.9185    5.1569    9.0341 H   0  0  0  0  0  0  0  0  0  0  0  0
   -2.6635    2.0641    7.0428 H   0  0  0  0  0  0  0  0  0  0  0  0
   -3.7560    5.0332   -6.3618 H   0  0  0  0  0  0  0  0  0  0  0  0
   -5.3316    6.3175   -7.7556 H   0  0  0  0  0  0  0  0  0  0  0  0
   -6.7946    5.1561   -9.3587 H   0  0  0  0  0  0  0  0  0  0  0  0
   -6.5042    1.5852  -10.1853 H   0  0  0  0  0  0  0  0  0  0  0  0
   -7.2065    3.1350  -10.6691 H   0  0  0  0  0  0  0  0  0  0  0  0
   -8.7998    3.0121   -8.7528 H   0  0  0  0  0  0  0  0  0  0  0  0
   -8.9620    1.6022   -9.8054 H   0  0  0  0  0  0  0  0  0  0  0  0
   -8.1023    1.4671   -8.2678 H   0  0  0  0  0  0  0  0  0  0  0  0
   -5.1660    1.4107   -8.1316 H   0  0  0  0  0  0  0  0  0  0  0  0
    0.6246    1.3361   -0.2540 H   0  0  0  0  0  0  0  0  0  0  0  0
    1.3135    1.5592    1.3525 H   0  0  0  0  0  0  0  0  0  0  0  0
   -0.0586   -1.0520    0.5461 H   0  0  0  0  0  0  0  0  0  0  0  0
    0.8282   -0.7097    2.0290 H   0  0  0  0  0  0  0  0  0  0  0  0
    1.6893   -0.7754    0.4930 H   0  0  0  0  0  0  0  0  0  0  0  0
   -0.1874    0.0028   -1.3842 H   0  0  0  0  0  0  0  0  0  0  0  0
   -0.8399   -0.0676   -3.0178 H   0  0  0  0  0  0  0  0  0  0  0  0
   -2.3677   -0.9002   -0.4964 H   0  0  0  0  0  0  0  0  0  0  0  0
   -1.6032   -2.0115   -1.6445 H   0  0  0  0  0  0  0  0  0  0  0  0
   -2.9681   -1.0121   -2.1509 H   0  0  0  0  0  0  0  0  0  0  0  0
   -0.6522   -0.4018   -7.7702 H   0  0  0  0  0  0  0  0  0  0  0  0
    3.7561   -4.2219   -7.4986 H   0  0  0  0  0  0  0  0  0  0  0  0
    4.0718   -2.5165   -7.1272 H   0  0  0  0  0  0  0  0  0  0  0  0
    2.0566   -2.4648   -5.6565 H   0  0  0  0  0  0  0  0  0  0  0  0
    3.2066   -3.6981   -5.1248 H   0  0  0  0  0  0  0  0  0  0  0  0
    1.7538   -4.1692   -6.0123 H   0  0  0  0  0  0  0  0  0  0  0  0
   -3.7309    6.3765  -13.2393 H   0  0  0  0  0  0  0  0  0  0  0  0
   -4.8262    5.7206  -14.4712 H   0  0  0  0  0  0  0  0  0  0  0  0
   -6.3333    4.8774  -12.6741 H   0  0  0  0  0  0  0  0  0  0  0  0
   -5.2290    5.5043  -11.4442 H   0  0  0  0  0  0  0  0  0  0  0  0
   -6.0904    6.6201  -12.5151 H   0  0  0  0  0  0  0  0  0  0  0  0
   -0.6333    1.4164  -14.6497 H   0  0  0  0  0  0  0  0  0  0  0  0
    2.1434   -1.2106  -15.5428 H   0  0  0  0  0  0  0  0  0  0  0  0
    2.2094   -0.5629  -20.9357 H   0  0  0  0  0  0  0  0  0  0  0  0
    0.7555    0.6338  -22.5060 H   0  0  0  0  0  0  0  0  0  0  0  0
  1  2  2  0  0  0  0
  2  3  1  0  0  0  0
  3  4  2  0  0  0  0
  3  5  1  0  0  0  0
  5  6  2  0  0  0  0
  6  7  1  0  0  0  0
  7  8  2  0  0  0  0
  8  9  1  0  0  0  0
  9 10  1  0  0  0  0
  9 11  2  0  0  0  0
 11 12  1  0  0  0  0
  6 13  1  0  0  0  0
 13 14  2  0  0  0  0
 14 15  1  0  0  0  0
 15 16  3  0  0  0  0
 14 17  1  0  0  0  0
 17 18  3  0  0  0  0
  1 19  1  0  0  0  0
 19 20  2  0  0  0  0
 20 21  1  0  0  0  0
 21 22  1  0  0  0  0
 22 23  2  0  0  0  0
 23 24  1  0  0  0  0
 24 25  2  0  0  0  0
 25 26  1  0  0  0  0
 25 27  1  0  0  0  0
 27 28  2  0  0  0  0
 21 29  1  0  0  0  0
 29 30  2  0  0  0  0
 30 31  1  0  0  0  0
 31 32  2  0  0  0  0
 32 33  1  0  0  0  0
 32 34  1  0  0  0  0
 34 35  2  0  0  0  0
 20 36  1  0  0  0  0
 36 37  1  0  0  0  0
 37 38  1  0  0  0  0
 38 39  2  0  0  0  0
 39 40  1  0  0  0  0
 40 41  1  0  0  0  0
 41 42  2  0  0  0  0
 42 43  1  0  0  0  0
 43 44  2  0  0  0  0
 44 45  1  0  0  0  0
 44 46  1  0  0  0  0
 46 47  2  0  0  0  0
 40 48  1  0  0  0  0
 48 49  2  0  0  0  0
 49 50  1  0  0  0  0
 50 51  2  0  0  0  0
 51 52  1  0  0  0  0
 51 53  1  0  0  0  0
 53 54  2  0  0  0  0
 39 55  1  0  0  0  0
 55 56  1  0  0  0  0
 38 57  1  0  0  0  0
 57 58  2  0  0  0  0
 58 59  1  0  0  0  0
 59 60  2  0  0  0  0
 60 61  1  0  0  0  0
 61 62  2  0  0  0  0
 62 63  1  0  0  0  0
 63 64  1  0  0  0  0
 64 65  1  0  0  0  0
 63 66  2  0  0  0  0
 58 67  1  0  0  0  0
 67 68  1  0  0  0  0
 68 69  1  0  0  0  0
 69 70  1  0  0  0  0
 70 71  1  0  0  0  0
 71 72  1  0  0  0  0
 72 73  2  0  0  0  0
 73 74  1  0  0  0  0
 74 75  1  0  0  0  0
 72 76  1  0  0  0  0
 76 77  1  0  0  0  0
 77 78  1  0  0  0  0
 78 79  1  0  0  0  0
 79 80  1  0  0  0  0
 80 81  1  0  0  0  0
 81 82  2  0  0  0  0
 82 83  1  0  0  0  0
 83 84  2  0  0  0  0
 84 85  1  0  0  0  0
 85 86  1  0  0  0  0
 86 87  1  0  0  0  0
 85 88  2  0  0  0  0
 80 89  2  0  0  0  0
 89 90  1  0  0  0  0
 90 91  1  0  0  0  0
 91 92  1  0  0  0  0
 92 93  1  0  0  0  0
 93 94  1  0  0  0  0
 94 95  1  0  0  0  0
 95 96  1  0  0  0  0
 96 97  1  0  0  0  0
 97 98  1  0  0  0  0
 98 99  1  0  0  0  0
 96100  1  0  0  0  0
100101  1  0  0  0  0
 93102  1  0  0  0  0
102103  1  0  0  0  0
 89104  1  0  0  0  0
104105  2  0  0  0  0
105106  1  0  0  0  0
106107  2  0  0  0  0
107108  1  0  0  0  0
108109  1  0  0  0  0
109110  1  0  0  0  0
110111  1  0  0  0  0
111112  1  0  0  0  0
110113  2  0  0  0  0
113114  1  0  0  0  0
113115  1  0  0  0  0
115116  1  0  0  0  0
107117  1  0  0  0  0
117118  2  0  0  0  0
118119  1  0  0  0  0
119120  1  0  0  0  0
120121  1  0  0  0  0
121122  1  0  0  0  0
122123  1  0  0  0  0
123124  1  0  0  0  0
122125  2  0  0  0  0
125126  1  0  0  0  0
126127  1  0  0  0  0
125128  1  0  0  0  0
119129  2  0  0  0  0
129130  1  0  0  0  0
118131  1  0  0  0  0
131132  2  0  0  0  0
132133  1  0  0  0  0
132134  1  0  0  0  0
134135  2  0  0  0  0
135136  1  0  0  0  0
136137  2  0  0  0  0
136138  1  0  0  0  0
138139  2  0  0  0  0
139140  1  0  0  0  0
140141  2  0  0  0  0
141142  1  0  0  0  0
142143  1  0  0  0  0
142144  2  0  0  0  0
144145  1  0  0  0  0
139146  1  0  0  0  0
146147  2  0  0  0  0
147148  1  0  0  0  0
148149  3  0  0  0  0
147150  1  0  0  0  0
150151  3  0  0  0  0
 13  2  1  0  0  0  0
 56 19  1  0  0  0  0
 99 57  1  0  0  0  0
130104  1  0  0  0  0
146135  1  0  0  0  0
 11  5  1  0  0  0  0
 28 22  1  0  0  0  0
 35 29  1  0  0  0  0
 55 36  2  0  0  0  0
 66 59  1  0  0  0  0
 98 67  2  0  0  0  0
129106  1  0  0  0  0
144138  1  0  0  0  0
 47 41  1  0  0  0  0
 54 48  1  0  0  0  0
 97 69  2  0  0  0  0
115108  2  0  0  0  0
133117  1  0  0  0  0
 95 70  2  0  0  0  0
126120  2  0  0  0  0
 75 71  2  0  0  0  0
 94 76  2  0  0  0  0
 92 77  2  0  0  0  0
 91 79  2  0  0  0  0
 88 81  1  0  0  0  0
  1152  1  0  0  0  0
  7153  1  0  0  0  0
  8154  1  0  0  0  0
 23155  1  0  0  0  0
 24156  1  0  0  0  0
 26157  1  0  0  0  0
 26158  1  0  0  0  0
 26159  1  0  0  0  0
 27160  1  0  0  0  0
 28161  1  0  0  0  0
 30162  1  0  0  0  0
 31163  1  0  0  0  0
 33164  1  0  0  0  0
 33165  1  0  0  0  0
 33166  1  0  0  0  0
 34167  1  0  0  0  0
 35168  1  0  0  0  0
 42169  1  0  0  0  0
 43170  1  0  0  0  0
 45171  1  0  0  0  0
 45172  1  0  0  0  0
 45173  1  0  0  0  0
 46174  1  0  0  0  0
 47175  1  0  0  0  0
 49176  1  0  0  0  0
 50177  1  0  0  0  0
 52178  1  0  0  0  0
 52179  1  0  0  0  0
 52180  1  0  0  0  0
 53181  1  0  0  0  0
 54182  1  0  0  0  0
 60183  1  0  0  0  0
 61184  1  0  0  0  0
 62185  1  0  0  0  0
 64186  1  0  0  0  0
 64187  1  0  0  0  0
 65188  1  0  0  0  0
 65189  1  0  0  0  0
 65190  1  0  0  0  0
 66191  1  0  0  0  0
 82192  1  0  0  0  0
 83193  1  0  0  0  0
 84194  1  0  0  0  0
 86195  1  0  0  0  0
 86196  1  0  0  0  0
 87197  1  0  0  0  0
 87198  1  0  0  0  0
 87199  1  0  0  0  0
 88200  1  0  0  0  0
100201  1  0  0  0  0
100202  1  0  0  0  0
101203  1  0  0  0  0
101204  1  0  0  0  0
101205  1  0  0  0  0
102206  1  0  0  0  0
102207  1  0  0  0  0
103208  1  0  0  0  0
103209  1  0  0  0  0
103210  1  0  0  0  0
105211  1  0  0  0  0
111212  1  0  0  0  0
111213  1  0  0  0  0
112214  1  0  0  0  0
112215  1  0  0  0  0
112216  1  0  0  0  0
123217  1  0  0  0  0
123218  1  0  0  0  0
124219  1  0  0  0  0
124220  1  0  0  0  0
124221  1  0  0  0  0
131222  1  0  0  0  0
134223  1  0  0  0  0
140224  1  0  0  0  0
141225  1  0  0  0  0
M  END
