296

C         -7.67190       -1.63350       12.14650
C         -8.60510       -0.86540       12.81140
C         -8.73400       -0.98540       14.27490
O         -8.20810       -1.80290       14.99670
C         -9.59670        0.15540       14.67660
C        -10.05690        0.81880       13.52560
C        -10.90600        1.90530       13.63920
C        -11.25140        2.34600       14.90850
C        -10.76930        1.71080       16.04120
Br       -11.23490        2.38940       17.74420
C         -9.93930        0.58910       15.94450
Cl        -9.35620       -0.20870       17.34420
C         -9.49460        0.15370       12.35030
C         -9.91190        0.33790       11.04820
C         -9.59970       -0.55780       10.01370
N         -9.40380       -1.28460        9.14440
C        -10.73720        1.39240       10.62420
N        -11.36440        2.26390       10.21400
C         -6.99830       -1.39370       10.94900
C         -6.75910       -0.21480       10.20380
N         -7.04770        1.06920       10.58540
C         -7.05590        1.50750       11.91910
C         -7.85560        2.59540       12.27080
C         -7.88670        3.04790       13.57460
C         -7.14280        2.42530       14.56910
C         -7.19960        2.89020       15.98980
C         -6.32340        1.36130       14.20510
C         -6.26760        0.91190       12.90150
C         -7.08820        2.07720        9.58480
C         -6.28660        3.20700        9.70660
C         -6.33080        4.19250        8.74070
C         -7.16990        4.07870        7.63860
C         -7.19510        5.13360        6.57770
C         -7.96980        2.94750        7.53020
C         -7.93380        1.95310        8.48770
C         -6.09190       -0.52410        8.99950
S         -5.54410        0.39740        7.64010
C         -4.93090       -1.04890        6.84890
C         -5.15870       -2.19350        7.60950
N         -4.78860       -3.50210        7.30520
C         -5.28210       -4.14250        6.16640
C         -6.47410       -3.72660        5.57270
C         -6.91230       -4.32320        4.40860
C         -6.19480       -5.35480        3.81310
C         -6.67850       -5.96980        2.53730
C         -5.02020       -5.77830        4.42180
C         -4.56100       -5.18280        5.58050
C         -4.17660       -4.23250        8.33790
C         -4.53920       -5.54740        8.61720
C         -3.92720       -6.23000        9.64890
C         -2.95230       -5.62670       10.43510
C         -2.32060       -6.36560       11.57460
C         -2.60030       -4.31270       10.15320
C         -3.19690       -3.62190        9.11760
C         -5.79220       -1.86940        8.82910
S         -6.27370       -2.81480       10.18220
C         -4.28530       -0.86770        5.59530
S         -3.73230        0.75090        5.17740
C         -3.14320        0.17060        3.67500
C         -2.49570        0.67610        2.52200
C         -2.34980       -0.33470        1.59010
C         -2.85810       -1.65120        2.15000
C         -3.37790       -1.18790        3.50070
C         -4.00510       -1.77700        4.59140
C         -4.00600       -2.18700        1.30920
C         -4.05800       -3.47280        0.79930
C         -5.13630       -3.88850        0.03420
C         -6.18940       -3.03350       -0.25050
C         -7.35680       -3.41380       -1.12410
C         -7.58860       -4.90930       -1.30870
C         -6.13520       -1.74430        0.27200
C         -5.06750       -1.32840        1.03850
C         -1.74410       -2.64670        2.41790
C         -0.41740       -2.36810        2.12120
C          0.57920       -3.28420        2.41120
C          0.28350       -4.49930        3.01110
C          1.37000       -5.47470        3.36110
C          1.88100       -5.21800        4.78010
C         -1.04210       -4.76530        3.32960
C         -2.03970       -3.85410        3.04370
C         -1.73540        0.11690        0.39700
C         -1.47940       -0.53470       -0.81900
C         -1.91590       -1.88700       -1.16770
C         -1.31380       -3.08470       -0.95190
C         -1.94790       -4.15560       -1.62350
C         -3.01910       -3.77240       -2.36430
C         -3.92220       -4.57750       -3.23850
C         -3.76330       -6.08110       -3.04590
S         -3.28190       -2.06210       -2.23470
C         -0.78810        0.17480       -1.78590
S         -0.28820       -0.57620       -3.29010
C          0.59600        0.85200       -3.67230
C          1.60860        1.16500       -4.60750
C          2.17290        2.39020       -4.27310
C          1.37290        3.03700       -3.15240
C          2.25910        3.43120       -1.98960
C          2.95210        2.41440       -1.34020
C          3.77900        2.69480       -0.27190
C          3.94530        3.99980        0.17640
C          4.81060        4.29820        1.36690
C          4.00680        4.15810        2.66100
C          3.25100        5.00920       -0.47290
C          2.41590        4.73220       -1.54100
C          0.62510        4.17600       -3.82440
C          1.33460        5.24510       -4.36130
C          0.67680        6.28270       -4.99240
C         -0.70610        6.27540       -5.12510
C         -1.41530        7.39080       -5.83740
C         -1.50330        7.09820       -7.33650
C         -1.40660        5.18620       -4.62820
C         -0.75240        4.14850       -3.98860
C          0.46490        1.88240       -2.75890
C         -0.33380        1.51830       -1.64550
C         -0.66320        2.19730       -0.45800
C         -1.34750        1.48230        0.51530
S         -1.84300        2.19920        2.03870
C         -0.33690        3.58890       -0.16790
C          0.38180        4.05970        0.89110
C          0.39730        5.46730        0.96860
C         -0.33240        6.06990       -0.00770
C         -0.54750        7.52360       -0.25680
C          0.13260        7.98510       -1.54700
S         -1.04600        4.89600       -1.06230
C          3.31870        2.66970       -5.00780
C          3.64440        1.64200       -5.87670
S          2.43930        0.36800       -5.87170
C          4.82080        1.53710       -6.66760
C          5.55240        0.39930       -7.00000
N          5.31680       -0.88680       -6.55060
C          4.85790       -1.14000       -5.25340
C          5.20730       -0.31100       -4.19040
C          4.64800       -0.50490       -2.94210
C          3.73640       -1.52740       -2.71370
C          3.07070       -1.70610       -1.38290
C          3.43910       -2.38910       -3.76480
C          3.98950       -2.20650       -5.01570
C          5.63830       -1.95470       -7.40940
C          6.31290       -3.07210       -6.93090
C          6.65880       -4.09270       -7.79500
C          6.34900       -4.02510       -9.14680
C          6.74670       -5.11340      -10.09480
C          5.65950       -2.91140       -9.61230
C          5.30140       -1.88860       -8.75900
C          6.65540        0.72900       -7.82350
S          7.85280       -0.22420       -8.61830
C          8.61520        1.24210       -9.24610
C          7.87790        2.41210       -8.90260
N          8.16410        3.68150       -9.32050
C          8.67970        3.96490      -10.59960
C          9.57430        5.01860      -10.76880
C         10.07880        5.29970      -12.02260
C          9.71820        4.54100      -13.13000
C         10.30970        4.83510      -14.47360
C          8.80950        3.50370      -12.95280
C          8.28470        3.21970      -11.70800
C          7.81340        4.76170       -8.48600
C          8.11060        4.71480       -7.12670
C          7.75880        5.76680       -6.30580
C          7.11300        6.88800       -6.81440
C          6.75170        8.03100       -5.91720
C          6.83440        6.93060       -8.17540
C          7.17630        5.88290       -9.00710
C          6.79270        2.09000       -8.07410
S          5.54550        3.01350       -7.29540
C          9.84510        1.27770       -9.88670
C         10.66230        0.24860      -10.32120
C         10.32490       -1.17100      -10.32770
O          9.33010       -1.71230       -9.87950
C         11.43920       -1.84770      -11.03120
C         12.39020       -0.88830      -11.42240
C         13.52830       -1.28320      -12.10510
C         13.69980       -2.63150      -12.38840
C         12.76160       -3.57220      -11.99630
Br        13.05540       -5.39470      -12.40600
C         11.60600       -3.19360      -11.30430
Cl        10.44770       -4.35160      -10.80650
C         11.93690        0.42640      -10.96300
C         12.64680        1.59680      -11.10950
C         12.29840        2.83940      -10.54880
N         12.11040        3.88110      -10.09860
C         13.85510        1.70480      -11.82390
N         14.83100        1.86860      -12.40800
H         -7.37890       -2.53960       12.66900
H        -11.28420        2.42140       12.77220
H        -11.89860        3.20200       15.02330
H         -8.46110        3.07770       11.51720
H         -8.51630        3.88900       13.82470
H         -7.28160        2.04230       16.66670
H         -8.04560        3.55390       16.14990
H         -6.28800        3.43030       16.24580
H         -5.71810        0.87550       14.95590
H         -5.60610        0.09900       12.64340
H         -5.62870        3.30480       10.55780
H         -5.69850        5.06200        8.84350
H         -8.19790        5.25140        6.17390
H         -6.53450        4.84700        5.75890
H         -6.85490        6.08900        6.96890
H         -8.63460        2.84160        6.68620
H         -8.55920        1.08020        8.38400
H         -7.04710       -2.93190        6.02620
H         -7.83210       -3.98590        3.95380
H         -6.61510       -5.23620        1.73380
H         -6.07710       -6.83420        2.26670
H         -7.71800       -6.28060        2.63140
H         -4.44670       -6.57890        3.97640
H         -3.63300       -5.50390        6.03020
H         -5.30910       -6.02580        8.03040
H         -4.22190       -7.24850        9.85620
H         -2.25040       -7.42880       11.35690
H         -1.32520       -5.98060       11.78380
H         -2.92470       -6.24650       12.47470
H         -1.84350       -3.82350       10.74960
H         -2.90640       -2.60320        8.90350
H         -4.28060       -2.80880        4.64700
H         -3.24700       -4.16310        0.97010
H         -5.13250       -4.89650       -0.34970
H         -8.26050       -2.96440       -0.70350
H         -7.20370       -2.95290       -2.10650
H         -7.72100       -5.40200       -0.34830
H         -6.75910       -5.38060       -1.82990
H         -8.48810       -5.06900       -1.89950
H         -6.94240       -1.05520        0.06750
H         -5.05170       -0.32070        1.42860
H         -0.14720       -1.43240        1.65590
H          1.60430       -3.04680        2.16230
H          0.98640       -6.49500        3.29660
H          2.19860       -5.37580        2.65680
H          2.66550       -5.92620        5.03660
H          2.28210       -4.21010        4.86060
H          1.07070       -5.32080        5.49850
H         -1.29820       -5.69930        3.80960
H         -3.05910       -4.08950        3.30780
H         -0.44060       -3.20500       -0.33640
H         -1.59940       -5.16990       -1.55280
H         -3.71860       -4.32420       -4.28440
H         -4.95560       -4.28330       -3.03670
H         -2.76640       -6.40190       -3.33700
H         -4.48600       -6.61310       -3.66040
H         -3.92390       -6.35540       -2.00580
H          2.83480        1.39620       -1.68200
H          4.30730        1.89160        0.22360
H          5.20190        5.31500        1.29520
H          5.65650        3.60780        1.39320
H          3.61840        3.14650        2.75800
H          4.63230        4.37350        3.52430
H          3.16610        4.84790        2.65930
H          3.35970        6.03120       -0.13780
H          1.87400        5.53810       -2.00970
H          2.41120        5.26850       -4.28590
H          1.24660        7.11170       -5.38810
H         -2.42300        7.50550       -5.43320
H         -0.87660        8.32860       -5.68490
H         -0.50720        6.98980       -7.75980
H         -2.01520        7.90670       -7.85330
H         -2.04970        6.17380       -7.50910
H         -2.48120        5.14900       -4.73310
H         -1.32690        3.31800       -3.60730
H          0.90830        3.41720        1.57370
H          0.92360        6.01300        1.73180
H         -1.61950        7.72500       -0.33080
H         -0.15340        8.08730        0.59170
H         -0.23630        7.41120       -2.39510
H         -0.07140        9.03830       -1.72430
H          1.20970        7.84940       -1.47790
H          3.95250        3.52960       -4.88570
H          5.90600        0.49770       -4.34730
H          4.92650        0.15910       -2.13640
H          3.24390       -2.71130       -1.00040
H          3.44420       -0.98740       -0.65720
H          1.99260       -1.57250       -1.48110
H          2.74290       -3.19940       -3.60420
H          3.72510       -2.86440       -5.82980
H          6.57400       -3.12850       -5.88420
H          7.19390       -4.94970       -7.41190
H          5.87250       -5.51910      -10.60290
H          7.41680       -4.71550      -10.85570
H          7.25380       -5.92160       -9.57370
H          5.40200       -2.84570      -10.65950
H          4.76080       -1.02950       -9.13030
H          9.88050        5.60210       -9.91510
H         10.78150        6.11070      -12.13890
H         10.23320        5.89660      -14.70220
H         11.36720        4.57050      -14.48110
H          9.80800        4.26980      -15.25490
H          8.50000        2.91300      -13.80290
H          7.57340        2.41580      -11.58780
H          8.62300        3.85370       -6.72320
H          7.99390        5.71950       -5.25250
H          6.43390        7.67080       -4.94120
H          5.95450        8.62930       -6.35120
H          7.61810        8.67660       -5.76960
H          6.33450        7.79350       -8.59050
H          6.94530        5.92320      -10.06110
H         10.21840        2.27570      -10.07560
H         14.27710       -0.57620      -12.42030
H         14.57910       -2.95930      -12.92130
