215

C          5.22910       -9.28190       -4.45210
C          6.22420      -10.02000       -3.84770
C          5.99290      -11.44810       -3.55710
O          5.07320      -12.13810       -3.93450
C          7.10030      -11.83400       -2.64450
C          8.00310      -10.76260       -2.52770
C          9.14430      -10.89160       -1.75590
C          9.34480      -12.07740       -1.06470
C          8.43280      -13.11700       -1.14960
Br         8.73100      -14.68610       -0.13690
C          7.29550      -13.01900       -1.95790
Cl         6.17660      -14.31060       -2.07890
C          7.49820       -9.64310       -3.32030
C          8.20680       -8.51240       -3.67000
C          7.79260       -7.67020       -4.71320
N          7.49970       -6.98840       -5.59110
C          9.42060       -8.12330       -3.08140
N         10.38470       -7.73360       -2.59170
C          4.92680       -7.92130       -4.35820
C          5.28680       -6.92690       -3.42160
N          6.02420       -7.09680       -2.27390
C          6.66880       -5.95660       -1.72890
C          6.49650       -5.61880       -0.39120
C          7.14080       -4.51470        0.13250
C          7.96220       -3.72150       -0.65770
C          8.66760       -2.52700       -0.09610
C          8.12000       -4.06290       -1.99670
C          7.48470       -5.16410       -2.53210
C          5.92920       -8.24060       -1.46690
C          6.98980       -8.57980       -0.62610
C          6.91240       -9.69670        0.18160
C          5.79590      -10.52340        0.16160
C          5.71950      -11.75030        1.01360
C          4.73330      -10.16760       -0.66300
C          4.78730       -9.03990       -1.45610
C          4.69080       -5.69290       -3.75750
S          4.63700       -4.14780       -2.97460
C          3.52640       -3.55180       -4.19350
C          3.17180       -4.51860       -5.12540
N          2.22110       -4.36840       -6.11720
C          1.08790       -3.56990       -5.90560
C          0.57790       -2.77890       -6.93330
C         -0.47310       -1.91900       -6.69200
C         -1.05390       -1.82550       -5.43130
C         -2.14730       -0.83520       -5.17130
C         -0.58750       -2.66810       -4.43250
C          0.46300       -3.53620       -4.66220
C          2.41160       -5.01770       -7.34800
C          1.33320       -5.57450       -8.02880
C          1.53500       -6.21800       -9.23380
C          2.80550       -6.33260       -9.78480
C          3.02580       -7.05970      -11.07580
C          3.87500       -5.77210       -9.09690
C          3.68620       -5.11780       -7.89700
C          3.86390       -5.72660       -4.87280
S          3.79900       -7.29740       -5.57190
C          3.01120       -2.21670       -4.13770
C          2.92240       -1.32940       -5.19210
C          3.70410       -1.48670       -6.41670
C          3.20520       -1.10500       -7.65850
C          3.97460       -1.28720       -8.79180
C          5.25260       -1.81220       -8.69950
C          5.79050       -2.14420       -7.46250
C          7.19920       -2.65060       -7.32240
C          7.24990       -4.11390       -6.88330
C          5.00160       -1.98550       -6.33340
C          2.08570       -0.24060       -4.86640
S          1.51380        1.14660       -5.75900
C          0.61490        1.65880       -4.36750
C         -0.22200        2.71560       -3.95320
C         -0.59010        3.95420       -4.52790
C         -1.29390        4.92620       -3.72480
N         -1.48530        6.06470       -4.37120
S         -0.85500        5.93150       -5.85610
N         -0.30440        4.41360       -5.73550
C         -1.74180        4.56660       -2.43250
C         -2.51500        5.21320       -1.44730
S         -3.19340        6.77220       -1.11010
C         -3.79970        6.16300        0.41460
C         -4.51980        6.75460        1.47180
C         -5.01550        8.12920        1.44290
C         -4.20170        9.16140        0.98730
C         -4.67520       10.45950        0.97840
C         -5.95820       10.73930        1.41440
C         -6.79270        9.71750        1.85210
C         -8.20320       10.00810        2.27990
C         -9.15790        9.89500        1.09000
C         -6.31480        8.41750        1.85030
C         -4.75810        5.84080        2.48710
S         -4.16510        4.23720        2.10480
C         -3.50870        4.81300        0.61690
C         -2.76560        4.27610       -0.43940
N         -2.16190        3.08050       -0.74080
C         -1.49720        3.26030       -1.93900
C         -0.59990        2.41470       -2.62090
N          0.02210        1.25010       -2.20970
C          0.75710        0.79720       -3.27670
C          1.59590       -0.28450       -3.56120
S          2.16180       -1.66830       -2.70240
C          0.43390        0.93200       -0.85750
C          1.86740        1.39190       -0.59280
C         -2.70640        1.83260       -0.24610
C         -4.18230        1.68820       -0.61680
C         -5.29930        6.07930        3.79670
C         -5.12230        7.31130        4.45890
N         -4.51180        8.44100        4.07330
N         -4.69900        9.26070        5.06560
C         -4.14360       10.58200        5.05430
C         -2.73160       10.55230        5.63170
N         -5.35950        8.80760        6.09250
C         -5.63600        7.53850        5.76530
C         -6.29680        6.52080        6.47920
C         -6.45490        5.29820        5.82150
C         -5.96810        5.07380        4.51460
O         -6.06740        3.88510        3.85710
C         -7.10200        2.96490        4.13740
O         -7.06720        4.26250        6.50570
C         -6.26260        3.65760        7.49740
C         -6.81270        6.72710        7.80300
C         -6.18660        7.43730        8.77660
C         -4.74160        7.79840        8.76290
O         -3.90380        7.48740        7.94370
C         -4.49930        8.48340       10.04470
C         -3.32800        9.03160       10.52580
C         -3.30970        9.60900       11.79090
C         -2.04680       10.20990       12.32000
C         -4.48030        9.61830       12.56550
C         -4.47260       10.22850       13.93090
C         -5.65600        9.05720       12.07620
C         -5.67460        8.48670       10.81380
C         -6.73960        7.83630       10.05930
C         -8.03450        7.67950       10.47880
C         -8.51350        8.09690       11.73800
N         -8.96440        8.40740       12.74750
C         -9.07260        7.08780        9.72890
N         -9.97720        6.63090        9.18860
H          4.51980       -9.87060       -5.02670
H          9.85970      -10.09070       -1.66580
H         10.21710      -12.19590       -0.44030
H          5.85330       -6.22030        0.23430
H          6.99550       -4.26500        1.17330
H          9.74640       -2.65760       -0.17190
H          8.40200       -1.63200       -0.65670
H          8.40860       -2.37490        0.94830
H          8.75520       -3.46070       -2.62900
H          7.61930       -5.41200       -3.57340
H          7.87920       -7.96690       -0.61440
H          7.74490       -9.93820        0.82590
H          6.69910      -12.01960        1.40030
H          5.05370      -11.57910        1.85980
H          5.32050      -12.58750        0.44470
H          3.84570      -10.78240       -0.68200
H          3.93660       -8.77380       -2.06460
H          1.02910       -2.83190       -7.91230
H         -0.83880       -1.28990       -7.49060
H         -1.78790        0.17830       -5.34990
H         -2.49710       -0.90190       -4.14380
H         -2.98990       -1.01010       -5.83900
H         -1.04390       -2.64220       -3.45290
H          0.81250       -4.18300       -3.87020
H          0.34100       -5.50190       -7.60830
H          0.68890       -6.64680       -9.75130
H          3.78680       -6.56310      -11.67410
H          3.36830       -8.07560      -10.87630
H          2.10590       -7.11920      -11.65220
H          4.87050       -5.84350       -9.51040
H          4.52050       -4.66830       -7.38280
H          2.21820       -0.67560       -7.73000
H          3.57800       -1.00830       -9.75690
H          5.84540       -1.94290       -9.59320
H          7.72550       -2.53990       -8.27220
H          7.71790       -2.04080       -6.57730
H          8.27770       -4.42690       -6.71920
H          6.70060       -4.26070       -5.95580
H          6.81970       -4.76180       -7.64240
H          5.41570       -2.22230       -5.36360
H         -3.19340        8.94880        0.66790
H         -4.03710       11.26080        0.63410
H         -6.31910       11.75840        1.41440
H         -8.50740        9.30150        3.05530
H         -8.26380       11.01640        2.69520
H         -8.87710       10.60150        0.31210
H        -10.17920       10.10500        1.39940
H         -9.12040        8.89240        0.67000
H         -6.95740        7.61280        2.18000
H         -0.22350        1.43700       -0.15310
H          0.36010       -0.15140       -0.71840
H          1.95530        2.46160       -0.77090
H          2.56960        0.87130       -1.23780
H          2.13050        1.18610        0.44090
H         -2.59670        1.80820        0.84290
H         -2.15590        1.00480       -0.69120
H         -4.30680        1.75660       -1.69550
H         -4.54840        0.72150       -0.28210
H         -4.77700        2.46510       -0.14520
H         -4.13430       10.92380        4.01710
H         -4.79350       11.21650        5.65960
H         -2.09010        9.93260        5.01060
H         -2.75310       10.13540        6.63590
H         -2.32250       11.55770        5.67160
H         -6.84780        2.31370        4.97630
H         -7.19950        2.36240        3.23310
H         -8.04520        3.47120        4.34710
H         -6.89800        2.92650        7.99400
H         -5.90360        4.38900        8.22820
H         -5.39790        3.15310        7.05020
H         -7.76990        6.26080        8.00450
H         -2.43720        9.00800        9.91540
H         -1.74290        9.71240       13.24050
H         -1.24310       10.11800       11.59440
H         -2.19020       11.26530       12.54950
H         -4.18430       11.27790       13.88010
H         -3.75320        9.72060       14.57260
H         -5.45520       10.15990       14.38930
H         -6.53960        9.07050       12.69390
