
  xtb     02062204033D
 energy: -414.804718639746 gnorm: 0.000768215490 xtb: 6.4.1 (unknown)
249274  0     0  0            999 V2000
   -2.4426   -9.8343    7.7230 C   0  0  0  0  0  0  0  0  0  0  0  0
   -3.4407  -10.0668    8.6526 C   0  0  0  0  0  0  0  0  0  0  0  0
   -3.8792   -9.1364    9.6877 C   0  0  0  0  0  0  0  0  0  0  0  0
   -3.4951   -7.9981    9.8892 O   0  0  0  0  0  0  0  0  0  0  0  0
   -4.8798   -9.8724   10.4945 C   0  0  0  0  0  0  0  0  0  0  0  0
   -5.0230  -11.1734    9.9799 C   0  0  0  0  0  0  0  0  0  0  0  0
   -5.9109  -12.0558   10.5718 C   0  0  0  0  0  0  0  0  0  0  0  0
   -6.6429  -11.6264   11.6704 C   0  0  0  0  0  0  0  0  0  0  0  0
   -6.5000  -10.3424   12.1705 C   0  0  0  0  0  0  0  0  0  0  0  0
   -7.5310   -9.8144   13.6651 Br  0  0  0  0  0  0  0  0  0  0  0  0
   -5.6092   -9.4355   11.5861 C   0  0  0  0  0  0  0  0  0  0  0  0
   -5.4369   -7.8433   12.1900 Cl  0  0  0  0  0  0  0  0  0  0  0  0
   -4.1436  -11.3108    8.8167 C   0  0  0  0  0  0  0  0  0  0  0  0
   -4.0590  -12.4339    8.0254 C   0  0  0  0  0  0  0  0  0  0  0  0
   -3.3250  -12.5400    6.8295 C   0  0  0  0  0  0  0  0  0  0  0  0
   -2.7828  -12.7089    5.8294 N   0  0  0  0  0  0  0  0  0  0  0  0
   -4.7332  -13.6414    8.2911 C   0  0  0  0  0  0  0  0  0  0  0  0
   -5.2390  -14.6597    8.4566 N   0  0  0  0  0  0  0  0  0  0  0  0
   -1.7503   -8.6708    7.4203 C   0  0  0  0  0  0  0  0  0  0  0  0
   -0.7585   -8.6030    6.4008 C   0  0  0  0  0  0  0  0  0  0  0  0
   -0.1981   -9.6751    5.7662 N   0  0  0  0  0  0  0  0  0  0  0  0
    0.2240   -9.5201    4.4305 C   0  0  0  0  0  0  0  0  0  0  0  0
    1.4673   -9.9868    4.0177 C   0  0  0  0  0  0  0  0  0  0  0  0
    1.8640   -9.8227    2.7052 C   0  0  0  0  0  0  0  0  0  0  0  0
    1.0415   -9.1924    1.7793 C   0  0  0  0  0  0  0  0  0  0  0  0
    1.4851   -8.9886    0.3641 C   0  0  0  0  0  0  0  0  0  0  0  0
   -0.2023   -8.7357    2.2013 C   0  0  0  0  0  0  0  0  0  0  0  0
   -0.6133   -8.8978    3.5083 C   0  0  0  0  0  0  0  0  0  0  0  0
    0.0920  -10.8806    6.4322 C   0  0  0  0  0  0  0  0  0  0  0  0
    0.5026  -10.8740    7.7630 C   0  0  0  0  0  0  0  0  0  0  0  0
    0.7829  -12.0642    8.4038 C   0  0  0  0  0  0  0  0  0  0  0  0
    0.6791  -13.2803    7.7383 C   0  0  0  0  0  0  0  0  0  0  0  0
    0.9637  -14.5749    8.4347 C   0  0  0  0  0  0  0  0  0  0  0  0
    0.2951  -13.2719    6.4023 C   0  0  0  0  0  0  0  0  0  0  0  0
   -0.0003  -12.0915    5.7507 C   0  0  0  0  0  0  0  0  0  0  0  0
   -0.4149   -7.2701    6.1303 C   0  0  0  0  0  0  0  0  0  0  0  0
    0.6800   -6.5137    5.0165 S   0  0  0  0  0  0  0  0  0  0  0  0
    0.3096   -4.9448    5.7131 C   0  0  0  0  0  0  0  0  0  0  0  0
   -0.6664   -5.0016    6.7006 C   0  0  0  0  0  0  0  0  0  0  0  0
   -1.2366   -3.9170    7.3325 N   0  0  0  0  0  0  0  0  0  0  0  0
   -1.3748   -2.6734    6.7030 C   0  0  0  0  0  0  0  0  0  0  0  0
   -1.6849   -2.5740    5.3491 C   0  0  0  0  0  0  0  0  0  0  0  0
   -1.7466   -1.3363    4.7383 C   0  0  0  0  0  0  0  0  0  0  0  0
   -1.5202   -0.1678    5.4544 C   0  0  0  0  0  0  0  0  0  0  0  0
   -1.5287    1.1704    4.7804 C   0  0  0  0  0  0  0  0  0  0  0  0
   -1.2722   -0.2729    6.8180 C   0  0  0  0  0  0  0  0  0  0  0  0
   -1.2054   -1.5029    7.4393 C   0  0  0  0  0  0  0  0  0  0  0  0
   -1.7299   -4.0778    8.6435 C   0  0  0  0  0  0  0  0  0  0  0  0
   -2.9886   -3.5972    8.9850 C   0  0  0  0  0  0  0  0  0  0  0  0
   -3.4771   -3.7909   10.2626 C   0  0  0  0  0  0  0  0  0  0  0  0
   -2.7318   -4.4635   11.2221 C   0  0  0  0  0  0  0  0  0  0  0  0
   -3.2653   -4.6992   12.6010 C   0  0  0  0  0  0  0  0  0  0  0  0
   -1.4662   -4.9214   10.8749 C   0  0  0  0  0  0  0  0  0  0  0  0
   -0.9650   -4.7310    9.6040 C   0  0  0  0  0  0  0  0  0  0  0  0
   -1.0518   -6.3423    6.9475 C   0  0  0  0  0  0  0  0  0  0  0  0
   -2.1097   -7.0768    8.0951 S   0  0  0  0  0  0  0  0  0  0  0  0
    0.9745   -3.7537    5.2770 C   0  0  0  0  0  0  0  0  0  0  0  0
    1.5382   -2.8023    6.1039 C   0  0  0  0  0  0  0  0  0  0  0  0
    1.8729   -3.0846    7.4984 C   0  0  0  0  0  0  0  0  0  0  0  0
    1.7700   -2.1136    8.4898 C   0  0  0  0  0  0  0  0  0  0  0  0
    2.0701   -2.4359    9.7999 C   0  0  0  0  0  0  0  0  0  0  0  0
    2.4926   -3.7115   10.1341 C   0  0  0  0  0  0  0  0  0  0  0  0
    2.6481   -4.6813    9.1513 C   0  0  0  0  0  0  0  0  0  0  0  0
    3.1432   -6.0643    9.4761 C   0  0  0  0  0  0  0  0  0  0  0  0
    2.0617   -7.1293    9.2820 C   0  0  0  0  0  0  0  0  0  0  0  0
    2.3375   -4.3524    7.8408 C   0  0  0  0  0  0  0  0  0  0  0  0
    1.8038   -1.6103    5.3968 C   0  0  0  0  0  0  0  0  0  0  0  0
    2.3791   -0.0352    5.8800 S   0  0  0  0  0  0  0  0  0  0  0  0
    2.1933    0.5161    4.2482 C   0  0  0  0  0  0  0  0  0  0  0  0
    2.2882    1.7055    3.5020 C   0  0  0  0  0  0  0  0  0  0  0  0
    2.5014    3.0506    3.8795 C   0  0  0  0  0  0  0  0  0  0  0  0
    2.3045    4.0949    2.9075 C   0  0  0  0  0  0  0  0  0  0  0  0
    2.4493    5.3023    3.4299 N   0  0  0  0  0  0  0  0  0  0  0  0
    2.8114    5.1453    5.0002 S   0  0  0  0  0  0  0  0  0  0  0  0
    2.7905    3.5283    5.0795 N   0  0  0  0  0  0  0  0  0  0  0  0
    2.0408    3.7427    1.5652 C   0  0  0  0  0  0  0  0  0  0  0  0
    1.8701    4.4960    0.3876 C   0  0  0  0  0  0  0  0  0  0  0  0
    1.7531    6.1499   -0.1169 S   0  0  0  0  0  0  0  0  0  0  0  0
    1.5291    5.6133   -1.7676 C   0  0  0  0  0  0  0  0  0  0  0  0
    1.3450    6.3008   -2.9827 C   0  0  0  0  0  0  0  0  0  0  0  0
    1.2965    7.7617   -3.0577 C   0  0  0  0  0  0  0  0  0  0  0  0
    2.0379    8.4756   -3.9956 C   0  0  0  0  0  0  0  0  0  0  0  0
    1.9614    9.8541   -4.0217 C   0  0  0  0  0  0  0  0  0  0  0  0
    1.1691   10.5298   -3.1092 C   0  0  0  0  0  0  0  0  0  0  0  0
    0.4504    9.8369   -2.1433 C   0  0  0  0  0  0  0  0  0  0  0  0
   -0.3693   10.5622   -1.1114 C   0  0  0  0  0  0  0  0  0  0  0  0
   -1.8086   10.0545   -1.0292 C   0  0  0  0  0  0  0  0  0  0  0  0
    0.5223    8.4523   -2.1327 C   0  0  0  0  0  0  0  0  0  0  0  0
    1.2164    5.4203   -4.0477 C   0  0  0  0  0  0  0  0  0  0  0  0
    1.3313    3.7363   -3.5335 S   0  0  0  0  0  0  0  0  0  0  0  0
    1.5626    4.2250   -1.8976 C   0  0  0  0  0  0  0  0  0  0  0  0
    1.7580    3.5879   -0.6686 C   0  0  0  0  0  0  0  0  0  0  0  0
    1.8438    2.3009   -0.1990 N   0  0  0  0  0  0  0  0  0  0  0  0
    1.9758    2.3792    1.1766 C   0  0  0  0  0  0  0  0  0  0  0  0
    1.9408    1.3706    2.1662 C   0  0  0  0  0  0  0  0  0  0  0  0
    1.5895    0.0309    2.1116 N   0  0  0  0  0  0  0  0  0  0  0  0
    1.7385   -0.4758    3.3764 C   0  0  0  0  0  0  0  0  0  0  0  0
    1.5023   -1.6874    4.0371 C   0  0  0  0  0  0  0  0  0  0  0  0
    0.8893   -3.2411    3.6011 S   0  0  0  0  0  0  0  0  0  0  0  0
    0.7173   -0.6392    1.1671 C   0  0  0  0  0  0  0  0  0  0  0  0
   -0.5492    0.1630    0.8879 C   0  0  0  0  0  0  0  0  0  0  0  0
    2.3616    1.2483   -1.0462 C   0  0  0  0  0  0  0  0  0  0  0  0
    3.7108    1.6316   -1.6536 C   0  0  0  0  0  0  0  0  0  0  0  0
    0.8432    5.6798   -5.3932 C   0  0  0  0  0  0  0  0  0  0  0  0
    0.8609    4.7747   -6.4530 C   0  0  0  0  0  0  0  0  0  0  0  0
    1.4653    3.5252   -6.4443 N   0  0  0  0  0  0  0  0  0  0  0  0
    0.8358    2.5278   -7.2184 C   0  0  0  0  0  0  0  0  0  0  0  0
   -0.5257    2.2968   -7.0498 C   0  0  0  0  0  0  0  0  0  0  0  0
   -1.1780    1.3826   -7.8527 C   0  0  0  0  0  0  0  0  0  0  0  0
   -0.4928    0.6753   -8.8323 C   0  0  0  0  0  0  0  0  0  0  0  0
   -1.2144   -0.2684   -9.7435 C   0  0  0  0  0  0  0  0  0  0  0  0
    0.8721    0.8936   -8.9740 C   0  0  0  0  0  0  0  0  0  0  0  0
    1.5349    1.8091   -8.1823 C   0  0  0  0  0  0  0  0  0  0  0  0
    2.7794    3.3481   -6.0038 C   0  0  0  0  0  0  0  0  0  0  0  0
    3.6720    4.4139   -5.9101 C   0  0  0  0  0  0  0  0  0  0  0  0
    4.9497    4.2139   -5.4270 C   0  0  0  0  0  0  0  0  0  0  0  0
    5.3849    2.9529   -5.0391 C   0  0  0  0  0  0  0  0  0  0  0  0
    6.7628    2.7481   -4.4880 C   0  0  0  0  0  0  0  0  0  0  0  0
    4.4964    1.8901   -5.1540 C   0  0  0  0  0  0  0  0  0  0  0  0
    3.2115    2.0785   -5.6187 C   0  0  0  0  0  0  0  0  0  0  0  0
    0.1903    5.2869   -7.5845 C   0  0  0  0  0  0  0  0  0  0  0  0
   -0.1450    4.6308   -9.1457 S   0  0  0  0  0  0  0  0  0  0  0  0
   -0.9421    6.1391   -9.6071 C   0  0  0  0  0  0  0  0  0  0  0  0
   -0.8082    7.1411   -8.6006 C   0  0  0  0  0  0  0  0  0  0  0  0
   -1.1280    8.4555   -8.7617 N   0  0  0  0  0  0  0  0  0  0  0  0
   -1.0513    9.1045  -10.0135 C   0  0  0  0  0  0  0  0  0  0  0  0
   -0.0286    8.8129  -10.9119 C   0  0  0  0  0  0  0  0  0  0  0  0
    0.0149    9.4489  -12.1365 C   0  0  0  0  0  0  0  0  0  0  0  0
   -0.9381   10.3985  -12.4873 C   0  0  0  0  0  0  0  0  0  0  0  0
   -0.9139   11.0647  -13.8278 C   0  0  0  0  0  0  0  0  0  0  0  0
   -1.9296   10.7118  -11.5649 C   0  0  0  0  0  0  0  0  0  0  0  0
   -1.9940   10.0747  -10.3418 C   0  0  0  0  0  0  0  0  0  0  0  0
   -1.3788    9.2686   -7.6365 C   0  0  0  0  0  0  0  0  0  0  0  0
   -2.2791    8.8685   -6.6556 C   0  0  0  0  0  0  0  0  0  0  0  0
   -2.5511    9.7038   -5.5882 C   0  0  0  0  0  0  0  0  0  0  0  0
   -1.9429   10.9470   -5.4772 C   0  0  0  0  0  0  0  0  0  0  0  0
   -2.2554   11.8715   -4.3427 C   0  0  0  0  0  0  0  0  0  0  0  0
   -1.0280   11.3266   -6.4536 C   0  0  0  0  0  0  0  0  0  0  0  0
   -0.7458   10.5032   -7.5224 C   0  0  0  0  0  0  0  0  0  0  0  0
   -0.2464    6.5981   -7.4346 C   0  0  0  0  0  0  0  0  0  0  0  0
    0.1108    7.2158   -5.8489 S   0  0  0  0  0  0  0  0  0  0  0  0
   -1.7311    6.2980  -10.7367 C   0  0  0  0  0  0  0  0  0  0  0  0
   -1.9672    5.4398  -11.7956 C   0  0  0  0  0  0  0  0  0  0  0  0
   -1.3058    4.1595  -12.0367 C   0  0  0  0  0  0  0  0  0  0  0  0
   -0.5010    3.5787  -11.3265 O   0  0  0  0  0  0  0  0  0  0  0  0
   -1.7916    3.6915  -13.3508 C   0  0  0  0  0  0  0  0  0  0  0  0
   -1.4678    2.5397  -14.0391 C   0  0  0  0  0  0  0  0  0  0  0  0
   -2.0576    2.3174  -15.2744 C   0  0  0  0  0  0  0  0  0  0  0  0
   -2.9514    3.2483  -15.7872 C   0  0  0  0  0  0  0  0  0  0  0  0
   -3.6741    2.9570  -17.3255 Cl  0  0  0  0  0  0  0  0  0  0  0  0
   -3.2875    4.4129  -15.1020 C   0  0  0  0  0  0  0  0  0  0  0  0
   -2.6972    4.6318  -13.8702 C   0  0  0  0  0  0  0  0  0  0  0  0
   -2.8441    5.7225  -12.9015 C   0  0  0  0  0  0  0  0  0  0  0  0
   -3.6984    6.7912  -13.0457 C   0  0  0  0  0  0  0  0  0  0  0  0
   -3.9537    7.7755  -12.0733 C   0  0  0  0  0  0  0  0  0  0  0  0
   -4.2489    8.5996  -11.3269 N   0  0  0  0  0  0  0  0  0  0  0  0
   -4.4730    7.0364  -14.1962 C   0  0  0  0  0  0  0  0  0  0  0  0
   -5.1185    7.3138  -15.1053 N   0  0  0  0  0  0  0  0  0  0  0  0
   -2.1633  -10.6868    7.1172 H   0  0  0  0  0  0  0  0  0  0  0  0
   -6.0467  -13.0590   10.2042 H   0  0  0  0  0  0  0  0  0  0  0  0
   -7.3396  -12.2993   12.1462 H   0  0  0  0  0  0  0  0  0  0  0  0
    2.1186  -10.4714    4.7299 H   0  0  0  0  0  0  0  0  0  0  0  0
    2.8338  -10.1854    2.3972 H   0  0  0  0  0  0  0  0  0  0  0  0
    0.6560   -9.1331   -0.3253 H   0  0  0  0  0  0  0  0  0  0  0  0
    1.8540   -7.9706    0.2347 H   0  0  0  0  0  0  0  0  0  0  0  0
    2.2858   -9.6758    0.1033 H   0  0  0  0  0  0  0  0  0  0  0  0
   -0.8601   -8.2524    1.4939 H   0  0  0  0  0  0  0  0  0  0  0  0
   -1.5876   -8.5525    3.8226 H   0  0  0  0  0  0  0  0  0  0  0  0
    0.5961   -9.9362    8.2909 H   0  0  0  0  0  0  0  0  0  0  0  0
    1.0961  -12.0453    9.4377 H   0  0  0  0  0  0  0  0  0  0  0  0
    1.6690  -15.1719    7.8592 H   0  0  0  0  0  0  0  0  0  0  0  0
    1.3752  -14.4043    9.4263 H   0  0  0  0  0  0  0  0  0  0  0  0
    0.0460  -15.1541    8.5361 H   0  0  0  0  0  0  0  0  0  0  0  0
    0.2086  -14.2056    5.8677 H   0  0  0  0  0  0  0  0  0  0  0  0
   -0.3149  -12.1024    4.7193 H   0  0  0  0  0  0  0  0  0  0  0  0
   -1.8763   -3.4701    4.7766 H   0  0  0  0  0  0  0  0  0  0  0  0
   -1.9779   -1.2823    3.6835 H   0  0  0  0  0  0  0  0  0  0  0  0
   -1.8447    1.9485    5.4711 H   0  0  0  0  0  0  0  0  0  0  0  0
   -2.1971    1.1722    3.9215 H   0  0  0  0  0  0  0  0  0  0  0  0
   -0.5249    1.4228    4.4337 H   0  0  0  0  0  0  0  0  0  0  0  0
   -1.1150    0.6239    7.3994 H   0  0  0  0  0  0  0  0  0  0  0  0
   -1.0084   -1.5721    8.4984 H   0  0  0  0  0  0  0  0  0  0  0  0
   -3.5819   -3.0818    8.2437 H   0  0  0  0  0  0  0  0  0  0  0  0
   -4.4622   -3.4237   10.5124 H   0  0  0  0  0  0  0  0  0  0  0  0
   -3.2938   -5.7674   12.8106 H   0  0  0  0  0  0  0  0  0  0  0  0
   -4.2696   -4.2965   12.7070 H   0  0  0  0  0  0  0  0  0  0  0  0
   -2.6218   -4.2321   13.3463 H   0  0  0  0  0  0  0  0  0  0  0  0
   -0.8668   -5.4356   11.6123 H   0  0  0  0  0  0  0  0  0  0  0  0
    0.0222   -5.0771    9.3422 H   0  0  0  0  0  0  0  0  0  0  0  0
    1.4478   -1.1170    8.2318 H   0  0  0  0  0  0  0  0  0  0  0  0
    1.9759   -1.6842   10.5696 H   0  0  0  0  0  0  0  0  0  0  0  0
    2.7197   -3.9503   11.1631 H   0  0  0  0  0  0  0  0  0  0  0  0
    3.4969   -6.0947   10.5083 H   0  0  0  0  0  0  0  0  0  0  0  0
    3.9879   -6.2998    8.8230 H   0  0  0  0  0  0  0  0  0  0  0  0
    1.2291   -6.9632    9.9625 H   0  0  0  0  0  0  0  0  0  0  0  0
    1.6814   -7.1103    8.2623 H   0  0  0  0  0  0  0  0  0  0  0  0
    2.4719   -8.1181    9.4772 H   0  0  0  0  0  0  0  0  0  0  0  0
    2.4834   -5.0898    7.0648 H   0  0  0  0  0  0  0  0  0  0  0  0
    2.6812    7.9500   -4.6855 H   0  0  0  0  0  0  0  0  0  0  0  0
    2.5297   10.4091   -4.7534 H   0  0  0  0  0  0  0  0  0  0  0  0
    1.1278   11.6096   -3.1377 H   0  0  0  0  0  0  0  0  0  0  0  0
    0.1067   10.4368   -0.1344 H   0  0  0  0  0  0  0  0  0  0  0  0
   -0.3725   11.6308   -1.3385 H   0  0  0  0  0  0  0  0  0  0  0  0
   -1.8431    9.0426   -0.6352 H   0  0  0  0  0  0  0  0  0  0  0  0
   -2.3935   10.6936   -0.3718 H   0  0  0  0  0  0  0  0  0  0  0  0
   -2.2680   10.0529   -2.0143 H   0  0  0  0  0  0  0  0  0  0  0  0
   -0.0335    7.8934   -1.3958 H   0  0  0  0  0  0  0  0  0  0  0  0
    0.4492   -1.5942    1.6257 H   0  0  0  0  0  0  0  0  0  0  0  0
    1.2350   -0.8654    0.2321 H   0  0  0  0  0  0  0  0  0  0  0  0
   -1.0611    0.3862    1.8207 H   0  0  0  0  0  0  0  0  0  0  0  0
   -0.3194    1.0995    0.3875 H   0  0  0  0  0  0  0  0  0  0  0  0
   -1.2138   -0.4164    0.2528 H   0  0  0  0  0  0  0  0  0  0  0  0
    1.6395    1.0426   -1.8429 H   0  0  0  0  0  0  0  0  0  0  0  0
    2.5046    0.3595   -0.4370 H   0  0  0  0  0  0  0  0  0  0  0  0
    3.6113    2.4628   -2.3457 H   0  0  0  0  0  0  0  0  0  0  0  0
    4.1162    0.7836   -2.1980 H   0  0  0  0  0  0  0  0  0  0  0  0
    4.4095    1.9093   -0.8668 H   0  0  0  0  0  0  0  0  0  0  0  0
   -1.0670    2.8500   -6.2956 H   0  0  0  0  0  0  0  0  0  0  0  0
   -2.2384    1.2217   -7.7213 H   0  0  0  0  0  0  0  0  0  0  0  0
   -0.5638   -1.0803  -10.0603 H   0  0  0  0  0  0  0  0  0  0  0  0
   -1.5417    0.2696  -10.6339 H   0  0  0  0  0  0  0  0  0  0  0  0
   -2.0941   -0.6861   -9.2589 H   0  0  0  0  0  0  0  0  0  0  0  0
    1.4213    0.3549   -9.7321 H   0  0  0  0  0  0  0  0  0  0  0  0
    2.5907    1.9884   -8.3210 H   0  0  0  0  0  0  0  0  0  0  0  0
    3.3645    5.4010   -6.2222 H   0  0  0  0  0  0  0  0  0  0  0  0
    5.6248    5.0549   -5.3578 H   0  0  0  0  0  0  0  0  0  0  0  0
    7.4570    3.4782   -4.8972 H   0  0  0  0  0  0  0  0  0  0  0  0
    7.1268    1.7487   -4.7152 H   0  0  0  0  0  0  0  0  0  0  0  0
    6.7524    2.8641   -3.4032 H   0  0  0  0  0  0  0  0  0  0  0  0
    4.8142    0.8981   -4.8662 H   0  0  0  0  0  0  0  0  0  0  0  0
    2.5273    1.2458   -5.6818 H   0  0  0  0  0  0  0  0  0  0  0  0
    0.7233    8.0822  -10.6523 H   0  0  0  0  0  0  0  0  0  0  0  0
    0.8084    9.2064  -12.8286 H   0  0  0  0  0  0  0  0  0  0  0  0
   -1.7543   10.7190  -14.4299 H   0  0  0  0  0  0  0  0  0  0  0  0
   -1.0053   12.1441  -13.7220 H   0  0  0  0  0  0  0  0  0  0  0  0
    0.0064   10.8395  -14.3608 H   0  0  0  0  0  0  0  0  0  0  0  0
   -2.6755   11.4506  -11.8152 H   0  0  0  0  0  0  0  0  0  0  0  0
   -2.7810   10.3124   -9.6439 H   0  0  0  0  0  0  0  0  0  0  0  0
   -2.7800    7.9162   -6.7469 H   0  0  0  0  0  0  0  0  0  0  0  0
   -3.2634    9.3879   -4.8401 H   0  0  0  0  0  0  0  0  0  0  0  0
   -2.3439   12.8963   -4.6981 H   0  0  0  0  0  0  0  0  0  0  0  0
   -1.4526   11.8399   -3.6078 H   0  0  0  0  0  0  0  0  0  0  0  0
   -3.1838   11.5898   -3.8523 H   0  0  0  0  0  0  0  0  0  0  0  0
   -0.5361   12.2852   -6.3769 H   0  0  0  0  0  0  0  0  0  0  0  0
   -0.0402   10.8109   -8.2800 H   0  0  0  0  0  0  0  0  0  0  0  0
   -2.2527    7.2449  -10.7832 H   0  0  0  0  0  0  0  0  0  0  0  0
   -0.7692    1.8339  -13.6170 H   0  0  0  0  0  0  0  0  0  0  0  0
   -1.8293    1.4291  -15.8418 H   0  0  0  0  0  0  0  0  0  0  0  0
   -3.9865    5.1074  -15.5376 H   0  0  0  0  0  0  0  0  0  0  0  0
  1  2  2  0  0  0  0
  2  3  1  0  0  0  0
  3  4  2  0  0  0  0
  3  5  1  0  0  0  0
  5  6  2  0  0  0  0
  6  7  1  0  0  0  0
  7  8  2  0  0  0  0
  8  9  1  0  0  0  0
  9 10  1  0  0  0  0
  9 11  2  0  0  0  0
 11 12  1  0  0  0  0
  6 13  1  0  0  0  0
 13 14  2  0  0  0  0
 14 15  1  0  0  0  0
 15 16  3  0  0  0  0
 14 17  1  0  0  0  0
 17 18  3  0  0  0  0
  1 19  1  0  0  0  0
 19 20  2  0  0  0  0
 20 21  1  0  0  0  0
 21 22  1  0  0  0  0
 22 23  2  0  0  0  0
 23 24  1  0  0  0  0
 24 25  2  0  0  0  0
 25 26  1  0  0  0  0
 25 27  1  0  0  0  0
 27 28  2  0  0  0  0
 21 29  1  0  0  0  0
 29 30  2  0  0  0  0
 30 31  1  0  0  0  0
 31 32  2  0  0  0  0
 32 33  1  0  0  0  0
 32 34  1  0  0  0  0
 34 35  2  0  0  0  0
 20 36  1  0  0  0  0
 36 37  1  0  0  0  0
 37 38  1  0  0  0  0
 38 39  2  0  0  0  0
 39 40  1  0  0  0  0
 40 41  1  0  0  0  0
 41 42  2  0  0  0  0
 42 43  1  0  0  0  0
 43 44  2  0  0  0  0
 44 45  1  0  0  0  0
 44 46  1  0  0  0  0
 46 47  2  0  0  0  0
 40 48  1  0  0  0  0
 48 49  2  0  0  0  0
 49 50  1  0  0  0  0
 50 51  2  0  0  0  0
 51 52  1  0  0  0  0
 51 53  1  0  0  0  0
 53 54  2  0  0  0  0
 39 55  1  0  0  0  0
 55 56  1  0  0  0  0
 38 57  1  0  0  0  0
 57 58  2  0  0  0  0
 58 59  1  0  0  0  0
 59 60  2  0  0  0  0
 60 61  1  0  0  0  0
 61 62  2  0  0  0  0
 62 63  1  0  0  0  0
 63 64  1  0  0  0  0
 64 65  1  0  0  0  0
 63 66  2  0  0  0  0
 58 67  1  0  0  0  0
 67 68  1  0  0  0  0
 68 69  1  0  0  0  0
 69 70  1  0  0  0  0
 70 71  1  0  0  0  0
 71 72  1  0  0  0  0
 72 73  2  0  0  0  0
 73 74  1  0  0  0  0
 74 75  1  0  0  0  0
 72 76  1  0  0  0  0
 76 77  1  0  0  0  0
 77 78  1  0  0  0  0
 78 79  1  0  0  0  0
 79 80  1  0  0  0  0
 80 81  1  0  0  0  0
 81 82  2  0  0  0  0
 82 83  1  0  0  0  0
 83 84  2  0  0  0  0
 84 85  1  0  0  0  0
 85 86  1  0  0  0  0
 86 87  1  0  0  0  0
 85 88  2  0  0  0  0
 80 89  2  0  0  0  0
 89 90  1  0  0  0  0
 90 91  1  0  0  0  0
 91 92  1  0  0  0  0
 92 93  1  0  0  0  0
 93 94  1  0  0  0  0
 94 95  1  0  0  0  0
 95 96  1  0  0  0  0
 96 97  1  0  0  0  0
 97 98  1  0  0  0  0
 98 99  1  0  0  0  0
 96100  1  0  0  0  0
100101  1  0  0  0  0
 93102  1  0  0  0  0
102103  1  0  0  0  0
 89104  1  0  0  0  0
104105  2  0  0  0  0
105106  1  0  0  0  0
106107  1  0  0  0  0
107108  2  0  0  0  0
108109  1  0  0  0  0
109110  2  0  0  0  0
110111  1  0  0  0  0
110112  1  0  0  0  0
112113  2  0  0  0  0
106114  1  0  0  0  0
114115  2  0  0  0  0
115116  1  0  0  0  0
116117  2  0  0  0  0
117118  1  0  0  0  0
117119  1  0  0  0  0
119120  2  0  0  0  0
105121  1  0  0  0  0
121122  1  0  0  0  0
122123  1  0  0  0  0
123124  2  0  0  0  0
124125  1  0  0  0  0
125126  1  0  0  0  0
126127  2  0  0  0  0
127128  1  0  0  0  0
128129  2  0  0  0  0
129130  1  0  0  0  0
129131  1  0  0  0  0
131132  2  0  0  0  0
125133  1  0  0  0  0
133134  2  0  0  0  0
134135  1  0  0  0  0
135136  2  0  0  0  0
136137  1  0  0  0  0
136138  1  0  0  0  0
138139  2  0  0  0  0
124140  1  0  0  0  0
140141  1  0  0  0  0
123142  1  0  0  0  0
142143  2  0  0  0  0
143144  1  0  0  0  0
144145  2  0  0  0  0
144146  1  0  0  0  0
146147  2  0  0  0  0
147148  1  0  0  0  0
148149  2  0  0  0  0
149150  1  0  0  0  0
149151  1  0  0  0  0
151152  2  0  0  0  0
152153  1  0  0  0  0
153154  2  0  0  0  0
154155  1  0  0  0  0
155156  3  0  0  0  0
154157  1  0  0  0  0
157158  3  0  0  0  0
 13  2  1  0  0  0  0
 56 19  1  0  0  0  0
 99 57  1  0  0  0  0
141104  1  0  0  0  0
153143  1  0  0  0  0
 11  5  1  0  0  0  0
 28 22  1  0  0  0  0
 35 29  1  0  0  0  0
 55 36  2  0  0  0  0
 66 59  1  0  0  0  0
 98 67  2  0  0  0  0
113107  1  0  0  0  0
120114  1  0  0  0  0
140121  2  0  0  0  0
152146  1  0  0  0  0
 47 41  1  0  0  0  0
 54 48  1  0  0  0  0
 97 69  2  0  0  0  0
132126  1  0  0  0  0
139133  1  0  0  0  0
 95 70  2  0  0  0  0
 75 71  2  0  0  0  0
 94 76  2  0  0  0  0
 92 77  2  0  0  0  0
 91 79  2  0  0  0  0
 88 81  1  0  0  0  0
  1159  1  0  0  0  0
  7160  1  0  0  0  0
  8161  1  0  0  0  0
 23162  1  0  0  0  0
 24163  1  0  0  0  0
 26164  1  0  0  0  0
 26165  1  0  0  0  0
 26166  1  0  0  0  0
 27167  1  0  0  0  0
 28168  1  0  0  0  0
 30169  1  0  0  0  0
 31170  1  0  0  0  0
 33171  1  0  0  0  0
 33172  1  0  0  0  0
 33173  1  0  0  0  0
 34174  1  0  0  0  0
 35175  1  0  0  0  0
 42176  1  0  0  0  0
 43177  1  0  0  0  0
 45178  1  0  0  0  0
 45179  1  0  0  0  0
 45180  1  0  0  0  0
 46181  1  0  0  0  0
 47182  1  0  0  0  0
 49183  1  0  0  0  0
 50184  1  0  0  0  0
 52185  1  0  0  0  0
 52186  1  0  0  0  0
 52187  1  0  0  0  0
 53188  1  0  0  0  0
 54189  1  0  0  0  0
 60190  1  0  0  0  0
 61191  1  0  0  0  0
 62192  1  0  0  0  0
 64193  1  0  0  0  0
 64194  1  0  0  0  0
 65195  1  0  0  0  0
 65196  1  0  0  0  0
 65197  1  0  0  0  0
 66198  1  0  0  0  0
 82199  1  0  0  0  0
 83200  1  0  0  0  0
 84201  1  0  0  0  0
 86202  1  0  0  0  0
 86203  1  0  0  0  0
 87204  1  0  0  0  0
 87205  1  0  0  0  0
 87206  1  0  0  0  0
 88207  1  0  0  0  0
100208  1  0  0  0  0
100209  1  0  0  0  0
101210  1  0  0  0  0
101211  1  0  0  0  0
101212  1  0  0  0  0
102213  1  0  0  0  0
102214  1  0  0  0  0
103215  1  0  0  0  0
103216  1  0  0  0  0
103217  1  0  0  0  0
108218  1  0  0  0  0
109219  1  0  0  0  0
111220  1  0  0  0  0
111221  1  0  0  0  0
111222  1  0  0  0  0
112223  1  0  0  0  0
113224  1  0  0  0  0
115225  1  0  0  0  0
116226  1  0  0  0  0
118227  1  0  0  0  0
118228  1  0  0  0  0
118229  1  0  0  0  0
119230  1  0  0  0  0
120231  1  0  0  0  0
127232  1  0  0  0  0
128233  1  0  0  0  0
130234  1  0  0  0  0
130235  1  0  0  0  0
130236  1  0  0  0  0
131237  1  0  0  0  0
132238  1  0  0  0  0
134239  1  0  0  0  0
135240  1  0  0  0  0
137241  1  0  0  0  0
137242  1  0  0  0  0
137243  1  0  0  0  0
138244  1  0  0  0  0
139245  1  0  0  0  0
142246  1  0  0  0  0
147247  1  0  0  0  0
148248  1  0  0  0  0
151249  1  0  0  0  0
M  END
