246

C          3.39630        5.39570       10.59910
C          4.06260        5.02470       11.75800
C          4.79080        3.76240       11.89800
O          4.91680        2.88130       11.06810
C          5.23370        3.71810       13.31390
C          4.77550        4.86770       13.98020
C          5.05700        5.05040       15.32210
C          5.81150        4.08800       15.97980
C          6.27790        2.96720       15.31350
Br         7.33180        1.70780       16.25370
C          5.98950        2.75900       13.96070
Cl         6.57890        1.38170       13.12680
C          4.06350        5.70630       13.01460
C          3.63520        6.99420       13.24010
C          3.09220        7.82560       12.24180
N          2.67210        8.56530       11.46940
C          3.76940        7.66660       14.46700
N          3.87290        8.26840       15.44080
C          3.71110        4.97610        9.31380
C          4.90540        4.43830        8.76860
N          6.13890        4.44480        9.33680
C          7.13570        3.57640        8.82510
C          8.34390        4.10220        8.38460
C          9.30700        3.26110        7.86190
C          9.09010        1.89110        7.77530
C         10.11810        0.98690        7.16910
C          7.88750        1.37630        8.24800
C          6.91380        2.20490        8.76950
C          6.52040        5.31300       10.36930
C          7.35270        4.84460       11.38360
C          7.69980        5.67080       12.43650
C          7.23840        6.97820       12.50410
C          7.56090        7.86130       13.66740
C          6.45480        7.45540       11.45500
C          6.09880        6.64180       10.40080
C          4.67800        3.98720        7.44970
S          5.67610        3.21810        6.26150
C          4.36790        3.25320        5.10220
C          3.24040        3.90450        5.59230
N          2.12290        4.22420        4.83730
C          0.85940        4.17500        5.44400
C          0.56170        3.16800        6.35800
C         -0.67400        3.13210        6.97360
C         -1.64450        4.08380        6.68930
C         -2.97660        4.05660        7.37380
C         -1.34130        5.08030        5.76780
C         -0.10710        5.13450        5.15350
C          2.27210        4.64050        3.50630
C          3.38720        5.37590        3.11190
C          3.57300        5.70450        1.78400
C          2.66260        5.31380        0.81120
C          2.91080        5.59690       -0.63820
C          1.52700        4.62460        1.21990
C          1.32710        4.28850        2.54340
C          3.41970        4.28240        6.94110
S          2.42890        5.09850        8.09170
C          4.45200        2.66030        3.80120
C          5.36800        2.84500        2.78710
C          6.66370        3.51420        2.91300
C          7.57590        3.12040        3.88760
C          8.80120        3.75300        3.98070
C          9.13420        4.76270        3.09530
C          8.24840        5.14570        2.09540
C          8.62790        6.18300        1.07840
C          9.14350        5.50950       -0.19500
C          7.01770        4.51300        2.01330
C          4.88770        2.32010        1.56750
S          5.50250        2.38030       -0.06640
C          4.09680        1.52220       -0.60410
C          3.51630        1.06260       -1.79770
C          3.89900        1.24230       -3.14430
C          3.02760        0.76890       -4.18190
N          3.48000        1.05650       -5.39240
S          4.88340        1.84940       -5.24100
N          4.96740        1.86080       -3.62240
C          1.86810        0.04810       -3.82400
C          0.90540       -0.60410       -4.61260
S          0.51610       -0.85420       -6.28220
C         -0.83670       -1.85030       -5.79640
C         -1.78700       -2.59600       -6.52430
C         -1.80570       -2.65720       -7.98730
C         -1.93990       -3.86600       -8.66110
C         -1.94730       -3.88490      -10.04270
C         -1.79580       -2.71110      -10.75560
C         -1.62630       -1.49410      -10.10110
C         -1.41320       -0.25490      -10.93160
C         -1.11960        1.01790      -10.14820
C         -1.64490       -1.48140       -8.71660
C         -2.64250       -3.27860       -5.67850
S         -2.29960       -2.96430       -3.98230
C         -0.95980       -1.96830       -4.41300
C          0.03830       -1.25600       -3.73590
N          0.40820       -1.02130       -2.43880
C          1.52960       -0.20400       -2.46480
C          2.30390        0.40600       -1.44250
N          2.14140        0.51030       -0.07110
C          3.21690        1.19220        0.42750
C          3.66010        1.66950        1.66730
S          3.06020        1.71060        3.28290
C          0.97040        0.31180        0.75140
C         -0.20900        1.15320        0.27220
C         -0.06050       -1.91810       -1.40460
C          1.05030       -2.85100       -0.93000
C         -3.78330       -4.06360       -6.02120
C         -4.32670       -5.14910       -5.34500
N         -3.78510       -5.77890       -4.23690
C         -2.40260       -5.92550       -4.08890
C         -1.81880       -5.87520       -2.82440
C         -0.44610       -5.94060       -2.68790
C          0.38320       -6.04560       -3.79660
C          1.87520       -6.06210       -3.65840
C         -0.20720       -6.12730       -5.05330
C         -1.57730       -6.08080       -5.20140
C         -4.66560       -6.29950       -3.27190
C         -4.41390       -7.53180       -2.67670
C         -5.29090       -8.03900       -1.73870
C         -6.43900       -7.34400       -1.37840
C         -7.40560       -7.91150       -0.38490
C         -6.68280       -6.11500       -1.98000
C         -5.80870       -5.59080       -2.91060
C         -5.52310       -5.57860       -5.96760
S         -6.62060       -6.86960       -5.66710
C         -7.61820       -6.38270       -7.04510
C         -7.03940       -5.31420       -7.75760
N         -7.44660       -4.79510       -8.96090
C         -8.10750       -5.52480       -9.95930
C         -7.97000       -6.90450      -10.09470
C         -8.66610       -7.57950      -11.07720
C         -9.50040       -6.90650      -11.96310
C        -10.26110       -7.65730      -13.01060
C         -9.59140       -5.52370      -11.85680
C         -8.91290       -4.83890      -10.86980
C         -6.90940       -3.53810       -9.35680
C         -6.11720       -3.45490      -10.49640
C         -5.57640       -2.24210      -10.87410
C         -5.82130       -1.09020      -10.13670
C         -5.21290        0.22000      -10.52550
C         -6.62760       -1.18290       -9.00890
C         -7.16660       -2.39150       -8.61410
C         -5.87640       -4.85550       -7.09720
S         -4.72450       -3.60820       -7.43250
C         -8.79200       -7.12550       -7.23390
C         -9.92240       -6.81480       -7.94450
C        -10.79470       -7.90590       -8.45910
O        -10.72110       -9.08730       -8.20280
C        -11.70040       -7.21640       -9.37890
S        -12.95110       -7.66030      -10.45660
C        -13.19180       -6.00320      -10.86890
C        -12.36090       -5.14540      -10.21100
C        -11.49070       -5.84610       -9.35600
C        -10.43580       -5.55170       -8.40250
C        -10.16770       -4.30680       -7.87960
C        -10.71140       -3.13640       -8.43690
N        -11.11030       -2.16760       -8.90820
C         -9.40920       -4.09960       -6.71720
N         -8.83470       -3.88660       -5.74440
H          2.52400        6.03160       10.68860
H          4.70650        5.91280       15.86430
H          6.04590        4.21170       17.02580
H          8.51720        5.16680        8.44510
H         10.24090        3.67820        7.51400
H         10.15550        0.03540        7.69460
H          9.86370        0.78370        6.12810
H         11.10440        1.44360        7.19420
H          7.71330        0.31110        8.20870
H          5.98750        1.80880        9.15540
H          7.70970        3.82620       11.34830
H          8.32820        5.28410       13.22560
H          6.65200        8.11030       14.21580
H          8.25110        7.37190       14.34940
H          8.00440        8.79550       13.32700
H          6.11120        8.47950       11.47150
H          5.48840        7.03380        9.60130
H          1.30070        2.41100        6.57740
H         -0.88860        2.34580        7.68290
H         -3.21320        3.05530        7.72560
H         -3.76450        4.39160        6.70280
H         -2.96470        4.72420        8.23600
H         -2.08120        5.83270        5.53600
H          0.11900        5.92240        4.45040
H          4.11450        5.68510        3.84850
H          4.44370        6.27800        1.50190
H          3.54370        6.47290       -0.76110
H          1.97590        5.75800       -1.17080
H          3.41780        4.74760       -1.10010
H          0.79070        4.34040        0.48100
H          0.45000        3.73210        2.84010
H          7.33780        2.29950        4.54730
H          9.50000        3.44980        4.74610
H         10.09490        5.25150        3.17230
H          7.75860        6.79640        0.83220
H          9.40330        6.83620        1.48330
H          8.38020        4.85810       -0.61450
H          9.41210        6.25650       -0.93830
H         10.02210        4.90750        0.02590
H          6.31780        4.80120        1.24340
H         -2.02370       -4.78640       -8.10360
H         -2.05920       -4.82330      -10.56610
H         -1.79170       -2.73610      -11.83630
H         -2.29930       -0.09970      -11.55460
H         -0.57920       -0.44910      -11.61290
H         -0.23350        0.89440       -9.53010
H         -0.94280        1.84010      -10.83830
H         -1.95710        1.28960       -9.50920
H         -1.53740       -0.55420       -8.17750
H          0.71480       -0.74790        0.80320
H          1.24560        0.62570        1.76150
H          0.04140        2.20790        0.34610
H         -1.07910        0.95970        0.89420
H         -0.45840        0.93390       -0.76300
H         -0.86050       -2.51400       -1.85110
H         -0.49890       -1.36220       -0.57580
H          1.39980       -3.45890       -1.76120
H          0.67220       -3.50890       -0.15200
H          1.89560       -2.29040       -0.53730
H         -2.44740       -5.76220       -1.95390
H         -0.01300       -5.89340       -1.69900
H          2.30070       -6.90780       -4.19600
H          2.30350       -5.15310       -4.08260
H          2.17050       -6.12950       -2.61390
H          0.41790       -6.23030       -5.92870
H         -2.01890       -6.16140       -6.18350
H         -3.53190       -8.08890       -2.95680
H         -5.08400       -8.99840       -1.28650
H         -8.23520       -8.39020       -0.90580
H         -6.92560       -8.65680        0.24470
H         -7.81700       -7.12660        0.24630
H         -7.56840       -5.55690       -1.71420
H         -6.00910       -4.63000       -3.36130
H         -7.31220       -7.44950       -9.43550
H         -8.56150       -8.65150      -11.15450
H        -10.69930       -8.56100      -12.59140
H         -9.59280       -7.95570      -13.81860
H        -11.05260       -7.04230      -13.43170
H        -10.21780       -4.97410      -12.54400
H         -9.01590       -3.76670      -10.78710
H         -5.92100       -4.34640      -11.07400
H         -4.94880       -2.19290      -11.75150
H         -5.90010        1.03970      -10.32860
H         -4.94440        0.22910      -11.57860
H         -4.31010        0.38880       -9.93910
H         -6.83690       -0.29750       -8.42750
H         -7.77650       -2.44900       -7.72620
H         -8.78740       -8.11970       -6.79690
H        -13.95220       -5.75350      -11.58280
H        -12.37170       -4.07910      -10.34160
