
  xtb     02062206483D
 energy: -352.878780459200 gnorm: 0.000396580552 xtb: 6.4.1 (unknown)
200221  0     0  0            999 V2000
   -9.5633    2.1645    3.8814 C   0  0  0  0  0  0  0  0  0  0  0  0
  -10.1311    3.3907    4.0785 C   0  0  0  0  0  0  0  0  0  0  0  0
  -10.7009    3.7127    5.4114 C   0  0  0  0  0  0  0  0  0  0  0  0
  -10.8225    2.9573    6.3469 O   0  0  0  0  0  0  0  0  0  0  0  0
  -11.0424    5.1527    5.3479 C   0  0  0  0  0  0  0  0  0  0  0  0
  -10.8356    5.6216    4.0378 C   0  0  0  0  0  0  0  0  0  0  0  0
  -11.0805    6.9482    3.7262 C   0  0  0  0  0  0  0  0  0  0  0  0
  -11.5249    7.7935    4.7316 C   0  0  0  0  0  0  0  0  0  0  0  0
  -11.7308    7.3284    6.0216 C   0  0  0  0  0  0  0  0  0  0  0  0
  -12.3401    8.5314    7.3455 Br  0  0  0  0  0  0  0  0  0  0  0  0
  -11.4937    5.9904    6.3554 C   0  0  0  0  0  0  0  0  0  0  0  0
  -11.7503    5.4112    7.9455 Cl  0  0  0  0  0  0  0  0  0  0  0  0
  -10.3678    4.5122    3.2071 C   0  0  0  0  0  0  0  0  0  0  0  0
  -10.4173    4.4889    1.8364 C   0  0  0  0  0  0  0  0  0  0  0  0
  -10.8806    5.5624    1.0492 C   0  0  0  0  0  0  0  0  0  0  0  0
  -11.2801    6.3888    0.3591 N   0  0  0  0  0  0  0  0  0  0  0  0
  -10.1118    3.3619    1.0500 C   0  0  0  0  0  0  0  0  0  0  0  0
   -9.9023    2.4742    0.3521 N   0  0  0  0  0  0  0  0  0  0  0  0
   -8.6034    1.7588    2.9275 C   0  0  0  0  0  0  0  0  0  0  0  0
   -7.4480    2.4200    2.5089 C   0  0  0  0  0  0  0  0  0  0  0  0
   -6.9675    3.6262    3.0237 N   0  0  0  0  0  0  0  0  0  0  0  0
   -7.3891    4.8586    2.5015 C   0  0  0  0  0  0  0  0  0  0  0  0
   -7.6283    5.0046    1.1381 C   0  0  0  0  0  0  0  0  0  0  0  0
   -8.0348    6.2261    0.6360 C   0  0  0  0  0  0  0  0  0  0  0  0
   -8.2131    7.3231    1.4718 C   0  0  0  0  0  0  0  0  0  0  0  0
   -8.6869    8.6245    0.9061 C   0  0  0  0  0  0  0  0  0  0  0  0
   -7.9626    7.1672    2.8304 C   0  0  0  0  0  0  0  0  0  0  0  0
   -7.5567    5.9517    3.3460 C   0  0  0  0  0  0  0  0  0  0  0  0
   -5.7704    3.5391    3.7510 C   0  0  0  0  0  0  0  0  0  0  0  0
   -4.7961    4.5315    3.6800 C   0  0  0  0  0  0  0  0  0  0  0  0
   -3.6288    4.4108    4.4073 C   0  0  0  0  0  0  0  0  0  0  0  0
   -3.3885    3.3028    5.2106 C   0  0  0  0  0  0  0  0  0  0  0  0
   -2.1249    3.1835    6.0058 C   0  0  0  0  0  0  0  0  0  0  0  0
   -4.3642    2.3152    5.2735 C   0  0  0  0  0  0  0  0  0  0  0  0
   -5.5406    2.4278    4.5613 C   0  0  0  0  0  0  0  0  0  0  0  0
   -6.6622    1.5823    1.6923 C   0  0  0  0  0  0  0  0  0  0  0  0
   -5.2156    1.8533    0.7934 S   0  0  0  0  0  0  0  0  0  0  0  0
   -5.3550    0.2436    0.0792 C   0  0  0  0  0  0  0  0  0  0  0  0
   -6.4240   -0.4769    0.5771 C   0  0  0  0  0  0  0  0  0  0  0  0
   -6.7240   -1.7803    0.2653 N   0  0  0  0  0  0  0  0  0  0  0  0
   -6.2739   -2.3400   -0.9611 C   0  0  0  0  0  0  0  0  0  0  0  0
   -5.1786   -3.1957   -0.9729 C   0  0  0  0  0  0  0  0  0  0  0  0
   -4.7264   -3.7142   -2.1691 C   0  0  0  0  0  0  0  0  0  0  0  0
   -5.3746   -3.4212   -3.3650 C   0  0  0  0  0  0  0  0  0  0  0  0
   -4.8504   -3.9583   -4.6601 C   0  0  0  0  0  0  0  0  0  0  0  0
   -6.4986   -2.6074   -3.3305 C   0  0  0  0  0  0  0  0  0  0  0  0
   -6.9431   -2.0575   -2.1420 C   0  0  0  0  0  0  0  0  0  0  0  0
   -7.2999   -2.6398    1.2093 C   0  0  0  0  0  0  0  0  0  0  0  0
   -8.1200   -3.6804    0.7791 C   0  0  0  0  0  0  0  0  0  0  0  0
   -8.6964   -4.5348    1.6964 C   0  0  0  0  0  0  0  0  0  0  0  0
   -8.4779   -4.3812    3.0608 C   0  0  0  0  0  0  0  0  0  0  0  0
   -9.1409   -5.2882    4.0514 C   0  0  0  0  0  0  0  0  0  0  0  0
   -7.6406   -3.3561    3.4799 C   0  0  0  0  0  0  0  0  0  0  0  0
   -7.0485   -2.4995    2.5723 C   0  0  0  0  0  0  0  0  0  0  0  0
   -7.1837    0.3176    1.4779 C   0  0  0  0  0  0  0  0  0  0  0  0
   -8.6651    0.1029    2.3351 S   0  0  0  0  0  0  0  0  0  0  0  0
   -4.3402   -0.1572   -0.8706 C   0  0  0  0  0  0  0  0  0  0  0  0
   -4.3255   -0.1171   -2.2492 C   0  0  0  0  0  0  0  0  0  0  0  0
   -5.4148    0.3761   -3.0941 C   0  0  0  0  0  0  0  0  0  0  0  0
   -5.4711    0.0322   -4.4452 C   0  0  0  0  0  0  0  0  0  0  0  0
   -6.4940    0.4977   -5.2475 C   0  0  0  0  0  0  0  0  0  0  0  0
   -7.4883    1.3052   -4.7239 C   0  0  0  0  0  0  0  0  0  0  0  0
   -7.4583    1.6617   -3.3825 C   0  0  0  0  0  0  0  0  0  0  0  0
   -8.5093    2.5570   -2.7920 C   0  0  0  0  0  0  0  0  0  0  0  0
   -8.0269    4.0077   -2.7455 C   0  0  0  0  0  0  0  0  0  0  0  0
   -6.4169    1.2032   -2.5906 C   0  0  0  0  0  0  0  0  0  0  0  0
   -3.0767   -0.5878   -2.7421 C   0  0  0  0  0  0  0  0  0  0  0  0
   -2.4006   -0.7776   -4.3460 S   0  0  0  0  0  0  0  0  0  0  0  0
   -0.8815   -1.2355   -3.6551 C   0  0  0  0  0  0  0  0  0  0  0  0
    0.4422   -1.4993   -4.0546 C   0  0  0  0  0  0  0  0  0  0  0  0
    1.0997   -1.4329   -5.3042 C   0  0  0  0  0  0  0  0  0  0  0  0
    2.5374   -1.5115   -5.3466 C   0  0  0  0  0  0  0  0  0  0  0  0
    3.0143   -1.3405   -6.5692 N   0  0  0  0  0  0  0  0  0  0  0  0
    1.7717   -1.1140   -7.5816 S   0  0  0  0  0  0  0  0  0  0  0  0
    0.5732   -1.2179   -6.4993 N   0  0  0  0  0  0  0  0  0  0  0  0
    3.2482   -1.7955   -4.1583 C   0  0  0  0  0  0  0  0  0  0  0  0
    4.6112   -1.9820   -3.8699 C   0  0  0  0  0  0  0  0  0  0  0  0
    6.1475   -1.8408   -4.6544 S   0  0  0  0  0  0  0  0  0  0  0  0
    6.9269   -2.2533   -3.1432 C   0  0  0  0  0  0  0  0  0  0  0  0
    8.2702   -2.3499   -2.7685 C   0  0  0  0  0  0  0  0  0  0  0  0
    9.3661   -2.1811   -3.7257 C   0  0  0  0  0  0  0  0  0  0  0  0
   10.3029   -3.1930   -3.9208 C   0  0  0  0  0  0  0  0  0  0  0  0
   11.2870   -3.0388   -4.8781 C   0  0  0  0  0  0  0  0  0  0  0  0
   11.3409   -1.8883   -5.6462 C   0  0  0  0  0  0  0  0  0  0  0  0
   10.4073   -0.8749   -5.4710 C   0  0  0  0  0  0  0  0  0  0  0  0
   10.4118    0.3447   -6.3453 C   0  0  0  0  0  0  0  0  0  0  0  0
    9.4395    0.1582   -7.5122 C   0  0  0  0  0  0  0  0  0  0  0  0
    9.4207   -1.0348   -4.5095 C   0  0  0  0  0  0  0  0  0  0  0  0
    8.3954   -2.6460   -1.4114 C   0  0  0  0  0  0  0  0  0  0  0  0
    6.8325   -2.8780   -0.6237 S   0  0  0  0  0  0  0  0  0  0  0  0
    6.0246   -2.5115   -2.1017 C   0  0  0  0  0  0  0  0  0  0  0  0
    4.7022   -2.3569   -2.5225 C   0  0  0  0  0  0  0  0  0  0  0  0
    3.4489   -2.4089   -1.9615 N   0  0  0  0  0  0  0  0  0  0  0  0
    2.5543   -2.0187   -2.9389 C   0  0  0  0  0  0  0  0  0  0  0  0
    1.1783   -1.7180   -2.8619 C   0  0  0  0  0  0  0  0  0  0  0  0
    0.3427   -1.5626   -1.7675 N   0  0  0  0  0  0  0  0  0  0  0  0
   -0.9042   -1.2665   -2.2604 C   0  0  0  0  0  0  0  0  0  0  0  0
   -2.1582   -0.9094   -1.7467 C   0  0  0  0  0  0  0  0  0  0  0  0
   -2.8278   -0.7159   -0.1728 S   0  0  0  0  0  0  0  0  0  0  0  0
    0.7194   -1.0618   -0.4601 C   0  0  0  0  0  0  0  0  0  0  0  0
    0.7104    0.4665   -0.4324 C   0  0  0  0  0  0  0  0  0  0  0  0
    3.1742   -3.3020   -0.8525 C   0  0  0  0  0  0  0  0  0  0  0  0
    3.6266   -4.7281   -1.1641 C   0  0  0  0  0  0  0  0  0  0  0  0
    9.5602   -2.6305   -0.6170 C   0  0  0  0  0  0  0  0  0  0  0  0
   11.1264   -2.1365   -1.2398 S   0  0  0  0  0  0  0  0  0  0  0  0
   11.9047   -2.2922    0.3279 C   0  0  0  0  0  0  0  0  0  0  0  0
   10.9731   -2.6908    1.2585 C   0  0  0  0  0  0  0  0  0  0  0  0
   10.9151   -2.8565    2.7223 C   0  0  0  0  0  0  0  0  0  0  0  0
   11.7718   -2.6943    3.5602 O   0  0  0  0  0  0  0  0  0  0  0  0
    9.6016   -3.1987    2.9874 N   0  0  0  0  0  0  0  0  0  0  0  0
    9.1246   -3.5304    4.3130 C   0  0  0  0  0  0  0  0  0  0  0  0
    9.4438   -4.9796    4.6612 C   0  0  0  0  0  0  0  0  0  0  0  0
    8.7935   -3.2378    1.8532 C   0  0  0  0  0  0  0  0  0  0  0  0
    7.6136   -3.5029    1.8656 O   0  0  0  0  0  0  0  0  0  0  0  0
    9.6764   -2.8752    0.7435 C   0  0  0  0  0  0  0  0  0  0  0  0
   13.2609   -1.9298    0.5295 C   0  0  0  0  0  0  0  0  0  0  0  0
   14.0251   -2.4571    1.5244 C   0  0  0  0  0  0  0  0  0  0  0  0
   13.6990   -3.7246    2.2437 C   0  0  0  0  0  0  0  0  0  0  0  0
   12.9621   -4.6048    1.8680 O   0  0  0  0  0  0  0  0  0  0  0  0
   14.6336   -3.7653    3.3868 C   0  0  0  0  0  0  0  0  0  0  0  0
   15.5710   -2.7229    3.2646 C   0  0  0  0  0  0  0  0  0  0  0  0
   16.5567   -2.5633    4.2270 C   0  0  0  0  0  0  0  0  0  0  0  0
   16.5843   -3.4402    5.3006 C   0  0  0  0  0  0  0  0  0  0  0  0
   15.6543   -4.4626    5.4187 C   0  0  0  0  0  0  0  0  0  0  0  0
   15.7377   -5.6141    6.9119 Br  0  0  0  0  0  0  0  0  0  0  0  0
   14.6609   -4.6491    4.4521 C   0  0  0  0  0  0  0  0  0  0  0  0
   13.5117   -5.9040    4.5887 Cl  0  0  0  0  0  0  0  0  0  0  0  0
   15.2672   -1.9455    2.0647 C   0  0  0  0  0  0  0  0  0  0  0  0
   16.0114   -0.9018    1.5804 C   0  0  0  0  0  0  0  0  0  0  0  0
   17.2121   -0.4444    2.1629 C   0  0  0  0  0  0  0  0  0  0  0  0
   18.1947   -0.0265    2.5840 N   0  0  0  0  0  0  0  0  0  0  0  0
   15.6992   -0.1607    0.4212 C   0  0  0  0  0  0  0  0  0  0  0  0
   15.5030    0.4819   -0.5097 N   0  0  0  0  0  0  0  0  0  0  0  0
   -9.8366    1.4130    4.6180 H   0  0  0  0  0  0  0  0  0  0  0  0
  -10.9211    7.3344    2.7338 H   0  0  0  0  0  0  0  0  0  0  0  0
  -11.7169    8.8331    4.5144 H   0  0  0  0  0  0  0  0  0  0  0  0
   -7.4832    4.1639    0.4763 H   0  0  0  0  0  0  0  0  0  0  0  0
   -8.2166    6.3322   -0.4232 H   0  0  0  0  0  0  0  0  0  0  0  0
   -9.6545    8.4849    0.4237 H   0  0  0  0  0  0  0  0  0  0  0  0
   -8.7838    9.3784    1.6832 H   0  0  0  0  0  0  0  0  0  0  0  0
   -7.9912    8.9880    0.1513 H   0  0  0  0  0  0  0  0  0  0  0  0
   -8.0930    8.0068    3.4981 H   0  0  0  0  0  0  0  0  0  0  0  0
   -7.3645    5.8383    4.4029 H   0  0  0  0  0  0  0  0  0  0  0  0
   -4.9502    5.3907    3.0447 H   0  0  0  0  0  0  0  0  0  0  0  0
   -2.8829    5.1894    4.3373 H   0  0  0  0  0  0  0  0  0  0  0  0
   -1.8232    2.1427    6.0998 H   0  0  0  0  0  0  0  0  0  0  0  0
   -2.2770    3.5806    7.0101 H   0  0  0  0  0  0  0  0  0  0  0  0
   -1.3187    3.7454    5.5403 H   0  0  0  0  0  0  0  0  0  0  0  0
   -4.2038    1.4457    5.8945 H   0  0  0  0  0  0  0  0  0  0  0  0
   -6.2907    1.6542    4.6364 H   0  0  0  0  0  0  0  0  0  0  0  0
   -4.6794   -3.4321   -0.0441 H   0  0  0  0  0  0  0  0  0  0  0  0
   -3.8566   -4.3555   -2.1791 H   0  0  0  0  0  0  0  0  0  0  0  0
   -4.5567   -5.0010   -4.5579 H   0  0  0  0  0  0  0  0  0  0  0  0
   -3.9691   -3.3925   -4.9652 H   0  0  0  0  0  0  0  0  0  0  0  0
   -5.5964   -3.8756   -5.4461 H   0  0  0  0  0  0  0  0  0  0  0  0
   -7.0303   -2.3898   -4.2447 H   0  0  0  0  0  0  0  0  0  0  0  0
   -7.8047   -1.4072   -2.1256 H   0  0  0  0  0  0  0  0  0  0  0  0
   -8.3025   -3.8107   -0.2771 H   0  0  0  0  0  0  0  0  0  0  0  0
   -9.3345   -5.3334    1.3465 H   0  0  0  0  0  0  0  0  0  0  0  0
   -8.5519   -5.3670    4.9621 H   0  0  0  0  0  0  0  0  0  0  0  0
   -9.2820   -6.2825    3.6339 H   0  0  0  0  0  0  0  0  0  0  0  0
  -10.1221   -4.8935    4.3177 H   0  0  0  0  0  0  0  0  0  0  0  0
   -7.4377   -3.2304    4.5338 H   0  0  0  0  0  0  0  0  0  0  0  0
   -6.3716   -1.7329    2.9202 H   0  0  0  0  0  0  0  0  0  0  0  0
   -4.7283   -0.6210   -4.8719 H   0  0  0  0  0  0  0  0  0  0  0  0
   -6.5184    0.2207   -6.2913 H   0  0  0  0  0  0  0  0  0  0  0  0
   -8.2905    1.6573   -5.3561 H   0  0  0  0  0  0  0  0  0  0  0  0
   -8.7527    2.2313   -1.7784 H   0  0  0  0  0  0  0  0  0  0  0  0
   -9.4195    2.5029   -3.3919 H   0  0  0  0  0  0  0  0  0  0  0  0
   -7.1221    4.0906   -2.1464 H   0  0  0  0  0  0  0  0  0  0  0  0
   -8.7957    4.6418   -2.3092 H   0  0  0  0  0  0  0  0  0  0  0  0
   -7.8049    4.3681   -3.7478 H   0  0  0  0  0  0  0  0  0  0  0  0
   -6.3970    1.5093   -1.5591 H   0  0  0  0  0  0  0  0  0  0  0  0
   10.2440   -4.0995   -3.3365 H   0  0  0  0  0  0  0  0  0  0  0  0
   12.0121   -3.8240   -5.0317 H   0  0  0  0  0  0  0  0  0  0  0  0
   12.1129   -1.7778   -6.3936 H   0  0  0  0  0  0  0  0  0  0  0  0
   11.4162    0.5210   -6.7340 H   0  0  0  0  0  0  0  0  0  0  0  0
   10.1112    1.2181   -5.7632 H   0  0  0  0  0  0  0  0  0  0  0  0
    9.4294    1.0434   -8.1434 H   0  0  0  0  0  0  0  0  0  0  0  0
    8.4320   -0.0180   -7.1420 H   0  0  0  0  0  0  0  0  0  0  0  0
    9.7346   -0.6964   -8.1168 H   0  0  0  0  0  0  0  0  0  0  0  0
    8.6887   -0.2547   -4.3585 H   0  0  0  0  0  0  0  0  0  0  0  0
    0.0038   -1.4527    0.2694 H   0  0  0  0  0  0  0  0  0  0  0  0
    1.7185   -1.4048   -0.2056 H   0  0  0  0  0  0  0  0  0  0  0  0
    1.3964    0.8581   -1.1807 H   0  0  0  0  0  0  0  0  0  0  0  0
    1.0244    0.8151    0.5473 H   0  0  0  0  0  0  0  0  0  0  0  0
   -0.2842    0.8544   -0.6345 H   0  0  0  0  0  0  0  0  0  0  0  0
    2.0999   -3.3159   -0.6720 H   0  0  0  0  0  0  0  0  0  0  0  0
    3.6986   -2.9377    0.0370 H   0  0  0  0  0  0  0  0  0  0  0  0
    3.3356   -5.3847   -0.3490 H   0  0  0  0  0  0  0  0  0  0  0  0
    3.1594   -5.0797   -2.0817 H   0  0  0  0  0  0  0  0  0  0  0  0
    4.7055   -4.7798   -1.2764 H   0  0  0  0  0  0  0  0  0  0  0  0
    9.6120   -2.8542    5.0200 H   0  0  0  0  0  0  0  0  0  0  0  0
    8.0455   -3.3601    4.3186 H   0  0  0  0  0  0  0  0  0  0  0  0
   10.5178   -5.1435    4.6214 H   0  0  0  0  0  0  0  0  0  0  0  0
    9.0917   -5.2056    5.6637 H   0  0  0  0  0  0  0  0  0  0  0  0
    8.9594   -5.6525    3.9572 H   0  0  0  0  0  0  0  0  0  0  0  0
   13.6546   -1.1601   -0.1207 H   0  0  0  0  0  0  0  0  0  0  0  0
   17.2904   -1.7771    4.1647 H   0  0  0  0  0  0  0  0  0  0  0  0
   17.3383   -3.3288    6.0647 H   0  0  0  0  0  0  0  0  0  0  0  0
  1  2  2  0  0  0  0
  2  3  1  0  0  0  0
  3  4  2  0  0  0  0
  3  5  1  0  0  0  0
  5  6  2  0  0  0  0
  6  7  1  0  0  0  0
  7  8  2  0  0  0  0
  8  9  1  0  0  0  0
  9 10  1  0  0  0  0
  9 11  2  0  0  0  0
 11 12  1  0  0  0  0
  6 13  1  0  0  0  0
 13 14  2  0  0  0  0
 14 15  1  0  0  0  0
 15 16  3  0  0  0  0
 14 17  1  0  0  0  0
 17 18  3  0  0  0  0
  1 19  1  0  0  0  0
 19 20  2  0  0  0  0
 20 21  1  0  0  0  0
 21 22  1  0  0  0  0
 22 23  2  0  0  0  0
 23 24  1  0  0  0  0
 24 25  2  0  0  0  0
 25 26  1  0  0  0  0
 25 27  1  0  0  0  0
 27 28  2  0  0  0  0
 21 29  1  0  0  0  0
 29 30  2  0  0  0  0
 30 31  1  0  0  0  0
 31 32  2  0  0  0  0
 32 33  1  0  0  0  0
 32 34  1  0  0  0  0
 34 35  2  0  0  0  0
 20 36  1  0  0  0  0
 36 37  1  0  0  0  0
 37 38  1  0  0  0  0
 38 39  2  0  0  0  0
 39 40  1  0  0  0  0
 40 41  1  0  0  0  0
 41 42  2  0  0  0  0
 42 43  1  0  0  0  0
 43 44  2  0  0  0  0
 44 45  1  0  0  0  0
 44 46  1  0  0  0  0
 46 47  2  0  0  0  0
 40 48  1  0  0  0  0
 48 49  2  0  0  0  0
 49 50  1  0  0  0  0
 50 51  2  0  0  0  0
 51 52  1  0  0  0  0
 51 53  1  0  0  0  0
 53 54  2  0  0  0  0
 39 55  1  0  0  0  0
 55 56  1  0  0  0  0
 38 57  1  0  0  0  0
 57 58  2  0  0  0  0
 58 59  1  0  0  0  0
 59 60  2  0  0  0  0
 60 61  1  0  0  0  0
 61 62  2  0  0  0  0
 62 63  1  0  0  0  0
 63 64  1  0  0  0  0
 64 65  1  0  0  0  0
 63 66  2  0  0  0  0
 58 67  1  0  0  0  0
 67 68  1  0  0  0  0
 68 69  1  0  0  0  0
 69 70  1  0  0  0  0
 70 71  1  0  0  0  0
 71 72  1  0  0  0  0
 72 73  2  0  0  0  0
 73 74  1  0  0  0  0
 74 75  1  0  0  0  0
 72 76  1  0  0  0  0
 76 77  1  0  0  0  0
 77 78  1  0  0  0  0
 78 79  1  0  0  0  0
 79 80  1  0  0  0  0
 80 81  1  0  0  0  0
 81 82  2  0  0  0  0
 82 83  1  0  0  0  0
 83 84  2  0  0  0  0
 84 85  1  0  0  0  0
 85 86  1  0  0  0  0
 86 87  1  0  0  0  0
 85 88  2  0  0  0  0
 80 89  2  0  0  0  0
 89 90  1  0  0  0  0
 90 91  1  0  0  0  0
 91 92  1  0  0  0  0
 92 93  1  0  0  0  0
 93 94  1  0  0  0  0
 94 95  1  0  0  0  0
 95 96  1  0  0  0  0
 96 97  1  0  0  0  0
 97 98  1  0  0  0  0
 98 99  1  0  0  0  0
 96100  1  0  0  0  0
100101  1  0  0  0  0
 93102  1  0  0  0  0
102103  1  0  0  0  0
 89104  1  0  0  0  0
104105  1  0  0  0  0
105106  1  0  0  0  0
106107  2  0  0  0  0
107108  1  0  0  0  0
108109  2  0  0  0  0
108110  1  0  0  0  0
110111  1  0  0  0  0
111112  1  0  0  0  0
110113  1  0  0  0  0
113114  2  0  0  0  0
113115  1  0  0  0  0
106116  1  0  0  0  0
116117  2  0  0  0  0
117118  1  0  0  0  0
118119  2  0  0  0  0
118120  1  0  0  0  0
120121  2  0  0  0  0
121122  1  0  0  0  0
122123  2  0  0  0  0
123124  1  0  0  0  0
124125  1  0  0  0  0
124126  2  0  0  0  0
126127  1  0  0  0  0
121128  1  0  0  0  0
128129  2  0  0  0  0
129130  1  0  0  0  0
130131  3  0  0  0  0
129132  1  0  0  0  0
132133  3  0  0  0  0
 13  2  1  0  0  0  0
 56 19  1  0  0  0  0
 99 57  1  0  0  0  0
115104  2  0  0  0  0
128117  1  0  0  0  0
 11  5  1  0  0  0  0
 28 22  1  0  0  0  0
 35 29  1  0  0  0  0
 55 36  2  0  0  0  0
 66 59  1  0  0  0  0
 98 67  2  0  0  0  0
115107  1  0  0  0  0
126120  1  0  0  0  0
 47 41  1  0  0  0  0
 54 48  1  0  0  0  0
 97 69  2  0  0  0  0
 95 70  2  0  0  0  0
 75 71  2  0  0  0  0
 94 76  2  0  0  0  0
 92 77  2  0  0  0  0
 91 79  2  0  0  0  0
 88 81  1  0  0  0  0
  1134  1  0  0  0  0
  7135  1  0  0  0  0
  8136  1  0  0  0  0
 23137  1  0  0  0  0
 24138  1  0  0  0  0
 26139  1  0  0  0  0
 26140  1  0  0  0  0
 26141  1  0  0  0  0
 27142  1  0  0  0  0
 28143  1  0  0  0  0
 30144  1  0  0  0  0
 31145  1  0  0  0  0
 33146  1  0  0  0  0
 33147  1  0  0  0  0
 33148  1  0  0  0  0
 34149  1  0  0  0  0
 35150  1  0  0  0  0
 42151  1  0  0  0  0
 43152  1  0  0  0  0
 45153  1  0  0  0  0
 45154  1  0  0  0  0
 45155  1  0  0  0  0
 46156  1  0  0  0  0
 47157  1  0  0  0  0
 49158  1  0  0  0  0
 50159  1  0  0  0  0
 52160  1  0  0  0  0
 52161  1  0  0  0  0
 52162  1  0  0  0  0
 53163  1  0  0  0  0
 54164  1  0  0  0  0
 60165  1  0  0  0  0
 61166  1  0  0  0  0
 62167  1  0  0  0  0
 64168  1  0  0  0  0
 64169  1  0  0  0  0
 65170  1  0  0  0  0
 65171  1  0  0  0  0
 65172  1  0  0  0  0
 66173  1  0  0  0  0
 82174  1  0  0  0  0
 83175  1  0  0  0  0
 84176  1  0  0  0  0
 86177  1  0  0  0  0
 86178  1  0  0  0  0
 87179  1  0  0  0  0
 87180  1  0  0  0  0
 87181  1  0  0  0  0
 88182  1  0  0  0  0
100183  1  0  0  0  0
100184  1  0  0  0  0
101185  1  0  0  0  0
101186  1  0  0  0  0
101187  1  0  0  0  0
102188  1  0  0  0  0
102189  1  0  0  0  0
103190  1  0  0  0  0
103191  1  0  0  0  0
103192  1  0  0  0  0
111193  1  0  0  0  0
111194  1  0  0  0  0
112195  1  0  0  0  0
112196  1  0  0  0  0
112197  1  0  0  0  0
116198  1  0  0  0  0
122199  1  0  0  0  0
123200  1  0  0  0  0
M  END
