225

C        -10.19210       -1.10390        6.39110
C        -10.96510       -2.24740        6.29120
C        -10.92330       -3.22030        5.20480
O        -10.29850       -3.15900        4.16090
C        -11.79130       -4.34170        5.63380
C        -12.32430       -4.05470        6.90330
C        -13.16940       -4.96260        7.51880
C        -13.46840       -6.14660        6.85840
C        -12.94330       -6.42220        5.60660
Br       -13.39210       -8.05040        4.75580
C        -12.09020       -5.51630        4.96670
Cl       -11.44810       -5.84500        3.41430
C        -11.84230       -2.73630        7.32050
C        -12.20150       -2.10310        8.48890
C        -11.86580       -0.78260        8.83980
N        -11.66570        0.29330        9.19410
C        -12.98720       -2.69140        9.49830
N        -13.60380       -3.11460       10.37060
C         -9.29390       -0.53950        5.49800
C         -8.50390        0.60740        5.80370
N         -8.32080        1.12600        7.05160
C         -7.91350        2.46940        7.19040
C         -8.58090        3.48140        6.50950
C         -8.17360        4.79420        6.65290
C         -7.10520        5.12770        7.47300
C         -6.66120        6.54740        7.63620
C         -6.45040        4.10750        8.15640
C         -6.84430        2.79320        8.02150
C         -8.32370        0.32870        8.21630
C         -7.76990       -0.94900        8.21250
C         -7.79420       -1.71350        9.36130
C         -8.34620       -1.22290       10.53990
C         -8.40560       -2.06520       11.77600
C         -8.85860        0.06880       10.54190
C         -8.85450        0.84040        9.39660
C         -7.86760        1.09280        4.64990
S         -6.82780        2.44250        4.31890
C         -6.59660        1.87390        2.66900
C         -7.33480        0.73040        2.38690
N         -7.38610        0.08360        1.16690
C         -7.56110       -1.31450        1.16600
C         -8.49030       -1.91240        0.32280
C         -8.67980       -3.27980        0.36340
C         -7.95810       -4.07890        1.24030
C         -8.18780       -5.55600        1.31670
C         -7.01940       -3.47320        2.06740
C         -6.81540       -2.10930        2.03220
C         -7.35980        0.78720       -0.04030
C         -7.92210        2.05810       -0.14000
C         -7.83260        2.77110       -1.31670
C         -7.20570        2.23260       -2.43580
C         -7.10430        3.02670       -3.70190
C         -6.68830        0.94720       -2.34360
C         -6.75330        0.23120       -1.16420
C         -8.06150        0.30050        3.52330
S         -9.07670       -1.06210        3.82290
C         -5.62310        2.52970        1.86070
C         -5.25890        3.86300        1.90340
C         -6.01890        4.90730        2.59490
C         -5.38160        5.82530        3.42320
C         -6.11710        6.82370        4.03230
C         -7.48060        6.92520        3.81380
C         -8.12990        6.02830        2.97600
C         -9.60440        6.12640        2.70010
C        -10.38550        5.01690        3.40540
C         -7.38690        5.02200        2.37900
C         -4.11070        4.10610        1.12670
S         -3.18530        5.54960        0.79160
C         -2.10480        4.60710       -0.18160
C         -0.92630        4.76860       -0.93510
C         -0.16540        5.89320       -1.32880
C          0.96980        5.70820       -2.19840
N          1.54040        6.85510       -2.53030
S          0.73380        8.06100       -1.81230
N         -0.37890        7.16880       -1.04800
C          1.38840        4.39610       -2.51860
C          2.53390        3.87730       -3.15010
S          3.95040        4.44230       -3.97090
C          4.52030        2.79320       -4.07290
C          5.69540        2.22660       -4.59010
C          6.75060        3.02180       -5.23210
C          7.08340        2.82050       -6.56910
C          8.09810        3.56450       -7.14160
C          8.78040        4.50800       -6.39200
C          8.44820        4.73170       -5.06200
C          9.14910        5.78540       -4.25710
C          8.37290        7.10210       -4.32000
C          7.42290        3.98760       -4.49490
C          5.71900        0.85320       -4.39300
S          4.25960        0.26030       -3.61290
C          3.63720        1.86600       -3.50850
C          2.49930        2.48680       -2.98710
N          1.36270        2.11530       -2.31150
C          0.66360        3.27600       -2.03610
C         -0.57540        3.47320       -1.39380
N         -1.54360        2.56350       -1.00730
C         -2.45970        3.25570       -0.25480
C         -3.60990        2.97070        0.48800
S         -4.54990        1.56920        0.84780
C         -1.94250        1.38210       -1.74660
C         -3.14910        1.66890       -2.63990
C          1.35850        0.89970       -1.52230
C          2.43030        0.94430       -0.43360
C          6.78860       -0.05180       -4.62570
C          8.06580        0.24620       -5.02190
C          8.92050       -0.86860       -5.07270
C         10.29120       -0.87970       -5.39700
C         10.98290        0.35410       -5.73030
S         11.97290        0.48260       -7.15310
C         12.34070        2.14560       -6.85670
C         13.25500        2.91790       -7.74280
C         14.70070        2.44090       -7.58970
C         11.72990        2.55880       -5.71150
F         11.84080        3.80600       -5.22790
C         10.95920        1.55590       -5.07690
F         10.32340        1.76660       -3.91500
C         10.92820       -2.11180       -5.38680
C         10.25820       -3.32050       -5.04880
C          8.88230       -3.30600       -4.71610
C          8.18300       -4.52630       -4.35760
S          8.83430       -5.65950       -3.21140
C          7.47880       -6.71940       -3.35250
C          7.38700       -7.98470       -2.57280
C          7.29830       -7.71360       -1.07060
C          6.57650       -6.20620       -4.23650
C          6.96560       -4.96920       -4.80150
F          6.23570       -4.33810       -5.73010
F          5.42480       -6.81840       -4.55110
C          8.24810       -2.07580       -4.73750
S          6.58650       -1.76470       -4.32170
C         11.10960       -4.43410       -5.10630
C         12.41120       -4.12800       -5.43310
S         12.60490       -2.39660       -5.72710
C         13.56730       -4.92230       -5.55940
C         13.79130       -6.25360       -5.31620
C         12.85340       -7.26970       -4.79160
O         11.65850       -7.18700       -4.60270
C         13.67440       -8.47420       -4.53520
C         15.00120       -8.24050       -4.93520
C         15.95410       -9.23550       -4.78090
C         15.56600      -10.44860       -4.23170
C         14.25480      -10.67550       -3.84200
Br        13.78910      -12.35020       -3.10020
C         13.27880       -9.68420       -3.98840
Cl        11.66180       -9.95890       -3.50460
C         15.09270       -6.88310       -5.46990
C         16.21760       -6.35010       -6.04450
C         16.33820       -5.07230       -6.63340
N         16.53940       -4.06460       -7.14650
C         17.44670       -7.03480       -6.16110
N         18.47720       -7.52520       -6.28290
H        -10.29130       -0.56080        7.32170
H        -13.59610       -4.77520        8.48980
H        -14.12310       -6.86810        7.32250
H         -9.42280        3.23260        5.88060
H         -8.69500        5.57410        6.11930
H         -6.73350        6.84960        8.68040
H         -5.62120        6.65290        7.33130
H         -7.27020        7.21690        7.03580
H         -5.61610        4.34890        8.79870
H         -6.32490        2.00850        8.55130
H         -7.32950       -1.34080        7.30740
H         -7.36860       -2.70650        9.34360
H         -7.74370       -2.92410       11.69710
H         -8.12810       -1.48320       12.65240
H         -9.42240       -2.42900       11.92810
H         -9.28580        0.47100       11.44770
H         -9.27350        1.83420        9.40670
H         -9.06890       -1.29920       -0.35260
H         -9.41440       -3.73050       -0.28810
H         -7.24460       -6.09800        1.26690
H         -8.83180       -5.89540        0.50930
H         -8.66350       -5.80470        2.26480
H         -6.44230       -4.08030        2.75000
H         -6.08080       -1.64790        2.67710
H         -8.43850        2.47360        0.71260
H         -8.26250        3.76090       -1.37400
H         -6.57930        3.96420       -3.52140
H         -8.09690        3.27060       -4.07870
H         -6.56990        2.47090       -4.46810
H         -6.21420        0.50090       -3.20590
H         -6.32570       -0.75810       -1.10120
H         -4.31770        5.74950        3.58910
H         -5.62140        7.53730        4.67340
H         -8.04250        7.72100        4.28250
H         -9.98010        7.09760        3.02740
H         -9.77110        6.04630        1.62280
H        -10.31780        5.12980        4.48440
H        -11.43490        5.05340        3.12180
H         -9.98810        4.04000        3.13810
H         -7.87100        4.33050        1.70560
H          6.55370        2.07670       -7.14610
H          8.36160        3.40360       -8.17690
H          9.58160        5.07590       -6.84240
H         10.15780        5.93640       -4.64410
H          9.22770        5.46140       -3.21780
H          7.36490        6.96700       -3.93370
H          8.30010        7.45030       -5.34800
H          8.87320        7.86560       -3.72930
H          7.15950        4.14080       -3.45850
H         -2.19110        0.58770       -1.03520
H         -1.11430        1.06500       -2.37910
H         -4.02600        1.91890       -2.04890
H         -3.37530        0.78740       -3.23320
H         -2.93030        2.49640       -3.31160
H          1.54270        0.05460       -2.19280
H          0.38890        0.78020       -1.04480
H          2.26190        1.79530        0.22300
H          2.38730        0.03300        0.15610
H          3.42320        1.02840       -0.86610
H          8.37940        1.24290       -5.25460
H         12.94390        2.79680       -8.78280
H         13.18230        3.97470       -7.47800
H         15.03430        2.56620       -6.56250
H         14.78090        1.38950       -7.85490
H         15.35360        3.01670       -8.23960
H          8.27030       -8.59530       -2.77590
H          6.50400       -8.53280       -2.90720
H          6.41840       -7.11630       -0.84350
H          7.23150       -8.65160       -0.52630
H          8.18100       -7.17540       -0.73260
H         10.79410       -5.44220       -4.91860
H         14.43250       -4.35100       -5.87420
H         16.98120       -9.09180       -5.07000
H         16.29370      -11.23480       -4.10240
