137

C          7.13260        9.15000       -0.58090
C          7.99730        8.48690        0.25820
C          7.74680        7.17660        0.85870
O          6.75820        6.47730        0.72780
C          8.94190        6.86260        1.66770
C          9.86270        7.92230        1.56560
C         11.07080        7.85300        2.24020
C         11.34040        6.72930        3.00860
C         10.42860        5.69010        3.10810
Br        10.85330        4.18850        4.17340
C          9.20340        5.73830        2.43320
Cl         8.07370        4.45860        2.54950
C          9.29570        8.95350        0.69480
C          9.91090       10.13740        0.37680
C          9.38010       11.14280       -0.45830
N          9.02440       12.00910       -1.12360
C         11.18250       10.52300        0.85120
N         12.20950       10.89880        1.20020
C          5.87280        8.77040       -1.05820
C          5.11750        9.58190       -1.90720
C          3.90360        9.03140       -2.27920
Cl         2.75120        9.88510       -3.22530
C          3.68790        7.76420       -1.73680
S          5.01470        7.28570       -0.72570
C          2.57920        6.88610       -1.85980
C          1.70950        6.65480       -2.91580
C          1.83850        7.18460       -4.27090
C          3.08520        7.25550       -4.89010
C          3.18020        7.70060       -6.19370
C          2.04270        8.06880       -6.89220
C          0.79160        7.99700       -6.29320
C         -0.45590        8.33060       -7.05810
C         -1.07730        7.05460       -7.63050
C          0.70190        7.55150       -4.98330
C          0.74400        5.68930       -2.57190
S         -0.55960        4.96010       -3.47880
C         -0.88030        3.92120       -2.13500
C         -1.76860        2.89700       -1.77570
C         -2.89470        2.36540       -2.44050
C         -3.66710        1.34810       -1.78790
N         -4.71800        0.97510       -2.50150
S         -4.73320        1.82860       -3.87650
N         -3.39790        2.70640       -3.61660
C         -3.20580        0.82610       -0.55960
C         -3.62600       -0.29300        0.17600
S         -4.81790       -1.54430        0.08720
C         -4.03920       -2.34680        1.43060
C         -4.27530       -3.57720        2.07090
C         -5.39840       -4.45850        1.75320
C         -6.18770       -4.99240        2.76940
C         -7.26590       -5.79340        2.45170
C         -7.57040       -6.06250        1.12810
C         -6.79970       -5.53080        0.10320
C         -7.15880       -5.76020       -1.33610
C         -7.99090       -4.58950       -1.86430
C         -5.71680       -4.72750        0.42770
C         -3.33910       -3.81410        3.06420
S         -2.20020       -2.48290        3.24640
C         -2.94130       -1.64180        1.93330
C         -2.70510       -0.46570        1.21240
N         -1.75980        0.52620        1.17800
C         -2.03990        1.33090        0.08350
C         -1.38860        2.46190       -0.47370
N         -0.34330        3.25570       -0.03520
C         -0.02770        4.12650       -1.04560
C          0.89590        5.14920       -1.29030
S          2.22880        5.87240       -0.46540
C          0.10840        3.52390        1.31280
C          1.55210        3.08390        1.54950
C         -0.49620        0.28240        1.83940
C          0.48290       -0.41980        0.90110
C         -3.09180       -5.00980        3.78910
C         -2.37350       -5.11490        4.96950
C         -2.19140       -6.43220        5.35780
Cl        -1.35980       -6.86890        6.78990
C         -2.72140       -7.37970        4.46670
S         -3.51350       -6.56230        3.13910
C         -2.56590       -8.76030        4.63580
C         -2.86980       -9.78930        3.78000
C         -3.42920       -9.63870        2.43270
O         -3.88600       -8.62840        1.92510
C         -3.32040      -10.96130        1.79560
C         -3.62500      -11.32060        0.51500
C         -3.39480      -12.65170        0.10170
C         -3.67440      -13.07450       -1.21370
C         -3.43440      -14.36210       -1.60580
C         -2.90450      -15.26590       -0.67520
F         -2.67330      -16.52830       -1.07970
C         -2.61760      -14.90860        0.61310
C         -2.85660      -13.58600        1.03360
C         -2.56120      -13.18510        2.35830
C         -2.78880      -11.88900        2.73550
C         -2.56230      -11.18850        3.99850
C         -2.16370      -11.77820        5.17020
C         -2.00110      -11.11930        6.40710
N         -1.85800      -10.66500        7.45230
C         -1.88940      -13.15510        5.30480
N         -1.64840      -14.26410        5.47850
H          7.45280       10.11650       -0.95020
H         11.80100        8.64250        2.18410
H         12.27580        6.65750        3.54180
H          5.44920       10.55410       -2.22510
H          3.96990        6.94760       -4.35220
H          4.14760        7.75660       -6.67080
H          2.12700        8.41370       -7.91260
H         -1.17700        8.81550       -6.39710
H         -0.22140        9.01770       -7.87310
H         -0.37940        6.56490       -8.30590
H         -1.32220        6.36050       -6.82970
H         -1.98620        7.28820       -8.17960
H         -0.26410        7.50870       -4.50160
H         -5.95980       -4.76500        3.80050
H         -7.87740       -6.20660        3.24010
H         -8.41680       -6.69010        0.88880
H         -6.24970       -5.85330       -1.93340
H         -7.73020       -6.68490       -1.43420
H         -8.25430       -4.74930       -2.90710
H         -8.90680       -4.48670       -1.28650
H         -7.43090       -3.66050       -1.78470
H         -5.10170       -4.31920       -0.36090
H         -0.58590        3.05420        2.01130
H          0.04660        4.60680        1.47180
H          2.23080        3.69590        0.96220
H          1.70720        2.04640        1.26970
H          1.80470        3.20970        2.59890
H         -0.06730        1.20430        2.21900
H         -0.71010       -0.36230        2.69560
H          0.68010        0.19320        0.02380
H          0.06860       -1.36890        0.56910
H          1.41930       -0.61350        1.41710
H         -2.01040       -4.26910        5.52570
H         -2.07130       -9.02410        5.56360
H         -4.02790      -10.59550       -0.17620
H         -4.08150      -12.35900       -1.91240
H         -3.63990      -14.70100       -2.60880
H         -2.21040      -15.63160        1.30250
H         -2.15080      -13.91570        3.03650
