
  xtb     02072201063D
 energy: -284.462655903532 gnorm: 0.000812106423 xtb: 6.4.1 (unknown)
155171  0     0  0            999 V2000
   -3.0729    6.4698    8.6679 C   0  0  0  0  0  0  0  0  0  0  0  0
   -3.7938    5.4079    9.1593 C   0  0  0  0  0  0  0  0  0  0  0  0
   -4.0069    4.1376    8.4630 C   0  0  0  0  0  0  0  0  0  0  0  0
   -3.6051    3.8199    7.3588 O   0  0  0  0  0  0  0  0  0  0  0  0
   -4.8125    3.3023    9.3778 C   0  0  0  0  0  0  0  0  0  0  0  0
   -5.0772    4.0256   10.5556 C   0  0  0  0  0  0  0  0  0  0  0  0
   -5.8208    3.4440   11.5699 C   0  0  0  0  0  0  0  0  0  0  0  0
   -6.2873    2.1491   11.3943 C   0  0  0  0  0  0  0  0  0  0  0  0
   -6.0223    1.4407   10.2326 C   0  0  0  0  0  0  0  0  0  0  0  0
   -6.6829   -0.3205   10.0556 Br  0  0  0  0  0  0  0  0  0  0  0  0
   -5.2748    2.0093    9.1952 C   0  0  0  0  0  0  0  0  0  0  0  0
   -4.9444    1.1407    7.7584 Cl  0  0  0  0  0  0  0  0  0  0  0  0
   -4.4544    5.3456   10.4458 C   0  0  0  0  0  0  0  0  0  0  0  0
   -4.5091    6.3211   11.4080 C   0  0  0  0  0  0  0  0  0  0  0  0
   -3.9152    7.5983   11.3237 C   0  0  0  0  0  0  0  0  0  0  0  0
   -3.4652    8.6548   11.3421 N   0  0  0  0  0  0  0  0  0  0  0  0
   -5.1802    6.1826   12.6414 C   0  0  0  0  0  0  0  0  0  0  0  0
   -5.7046    6.1378   13.6616 N   0  0  0  0  0  0  0  0  0  0  0  0
   -2.4056    6.6232    7.4464 C   0  0  0  0  0  0  0  0  0  0  0  0
   -1.6767    7.7715    7.1350 C   0  0  0  0  0  0  0  0  0  0  0  0
   -1.0665    7.7435    5.8902 C   0  0  0  0  0  0  0  0  0  0  0  0
   -0.1213    8.8043    5.4672 C   0  0  0  0  0  0  0  0  0  0  0  0
   -0.2482    9.9734    5.7248 O   0  0  0  0  0  0  0  0  0  0  0  0
    0.9356    8.2846    4.8370 O   0  0  0  0  0  0  0  0  0  0  0  0
    1.9511    9.2050    4.4330 C   0  0  0  0  0  0  0  0  0  0  0  0
    2.9791    8.4456    3.6165 C   0  0  0  0  0  0  0  0  0  0  0  0
   -1.3557    6.5692    5.1862 C   0  0  0  0  0  0  0  0  0  0  0  0
   -2.3355    5.4885    6.1166 S   0  0  0  0  0  0  0  0  0  0  0  0
   -0.9691    6.2172    3.8658 C   0  0  0  0  0  0  0  0  0  0  0  0
   -0.7596    7.0315    2.7606 C   0  0  0  0  0  0  0  0  0  0  0  0
   -1.0796    8.4557    2.6920 C   0  0  0  0  0  0  0  0  0  0  0  0
   -2.2245    8.9592    3.3081 C   0  0  0  0  0  0  0  0  0  0  0  0
   -2.5217   10.3044    3.2194 C   0  0  0  0  0  0  0  0  0  0  0  0
   -1.6927   11.1594    2.5142 C   0  0  0  0  0  0  0  0  0  0  0  0
   -0.5611   10.6731    1.8729 C   0  0  0  0  0  0  0  0  0  0  0  0
    0.3119   11.5766    1.0508 C   0  0  0  0  0  0  0  0  0  0  0  0
   -0.1302   11.5473   -0.4137 C   0  0  0  0  0  0  0  0  0  0  0  0
   -0.2699    9.3204    1.9621 C   0  0  0  0  0  0  0  0  0  0  0  0
   -0.3065    6.2795    1.6606 C   0  0  0  0  0  0  0  0  0  0  0  0
    0.1564    6.7206    0.0327 S   0  0  0  0  0  0  0  0  0  0  0  0
    0.4548    5.0525   -0.3118 C   0  0  0  0  0  0  0  0  0  0  0  0
    0.9268    4.2513   -1.3633 C   0  0  0  0  0  0  0  0  0  0  0  0
    1.4764    4.5921   -2.6188 C   0  0  0  0  0  0  0  0  0  0  0  0
    2.0312    3.5526   -3.4381 C   0  0  0  0  0  0  0  0  0  0  0  0
    2.5720    4.0217   -4.5515 N   0  0  0  0  0  0  0  0  0  0  0  0
    2.3938    5.6304   -4.5711 S   0  0  0  0  0  0  0  0  0  0  0  0
    1.6215    5.7926   -3.1574 N   0  0  0  0  0  0  0  0  0  0  0  0
    1.8832    2.2094   -3.0279 C   0  0  0  0  0  0  0  0  0  0  0  0
    2.1655    1.0034   -3.6873 C   0  0  0  0  0  0  0  0  0  0  0  0
    2.8843    0.4533   -5.1622 S   0  0  0  0  0  0  0  0  0  0  0  0
    2.4384   -1.1834   -4.7385 C   0  0  0  0  0  0  0  0  0  0  0  0
    2.6339   -2.4154   -5.3882 C   0  0  0  0  0  0  0  0  0  0  0  0
    3.3834   -2.5275   -6.6425 C   0  0  0  0  0  0  0  0  0  0  0  0
    3.0708   -1.6971   -7.7146 C   0  0  0  0  0  0  0  0  0  0  0  0
    3.7894   -1.7940   -8.8917 C   0  0  0  0  0  0  0  0  0  0  0  0
    4.8204   -2.7095   -9.0076 C   0  0  0  0  0  0  0  0  0  0  0  0
    5.1558   -3.5364   -7.9418 C   0  0  0  0  0  0  0  0  0  0  0  0
    6.2979   -4.5053   -8.0449 C   0  0  0  0  0  0  0  0  0  0  0  0
    7.5841   -3.8779   -7.5044 C   0  0  0  0  0  0  0  0  0  0  0  0
    4.4379   -3.4281   -6.7606 C   0  0  0  0  0  0  0  0  0  0  0  0
    2.0693   -3.4583   -4.6647 C   0  0  0  0  0  0  0  0  0  0  0  0
    1.3436   -2.9112   -3.1593 S   0  0  0  0  0  0  0  0  0  0  0  0
    1.7741   -1.2770   -3.5113 C   0  0  0  0  0  0  0  0  0  0  0  0
    1.6354   -0.0251   -2.9014 C   0  0  0  0  0  0  0  0  0  0  0  0
    1.0718    0.4961   -1.7682 N   0  0  0  0  0  0  0  0  0  0  0  0
    1.2316    1.8679   -1.8080 C   0  0  0  0  0  0  0  0  0  0  0  0
    0.8807    2.9048   -0.9053 C   0  0  0  0  0  0  0  0  0  0  0  0
    0.4383    2.8994    0.4096 N   0  0  0  0  0  0  0  0  0  0  0  0
    0.1955    4.2014    0.7655 C   0  0  0  0  0  0  0  0  0  0  0  0
   -0.2247    4.9036    1.9010 C   0  0  0  0  0  0  0  0  0  0  0  0
   -0.6880    4.5190    3.5184 S   0  0  0  0  0  0  0  0  0  0  0  0
    0.7128    1.9375    1.4561 C   0  0  0  0  0  0  0  0  0  0  0  0
    2.2091    1.8672    1.7533 C   0  0  0  0  0  0  0  0  0  0  0  0
    0.1855   -0.3171   -0.9669 C   0  0  0  0  0  0  0  0  0  0  0  0
    0.9484   -1.2479   -0.0259 C   0  0  0  0  0  0  0  0  0  0  0  0
    1.9398   -4.8357   -4.9857 C   0  0  0  0  0  0  0  0  0  0  0  0
    2.2262   -5.4776   -6.1806 C   0  0  0  0  0  0  0  0  0  0  0  0
    1.9526   -6.8390   -6.1438 C   0  0  0  0  0  0  0  0  0  0  0  0
    2.1887   -7.7208   -7.3080 C   0  0  0  0  0  0  0  0  0  0  0  0
    1.5796   -8.7344   -7.5488 O   0  0  0  0  0  0  0  0  0  0  0  0
    3.1788   -7.2385   -8.0643 O   0  0  0  0  0  0  0  0  0  0  0  0
    3.5153   -7.9783   -9.2393 C   0  0  0  0  0  0  0  0  0  0  0  0
    2.6267   -7.5870  -10.4108 C   0  0  0  0  0  0  0  0  0  0  0  0
    1.4196   -7.2774   -4.9187 C   0  0  0  0  0  0  0  0  0  0  0  0
    1.2788   -5.9363   -3.8156 S   0  0  0  0  0  0  0  0  0  0  0  0
    1.1212   -8.6182   -4.6388 C   0  0  0  0  0  0  0  0  0  0  0  0
    0.5016   -9.1672   -3.5467 C   0  0  0  0  0  0  0  0  0  0  0  0
   -0.1437   -8.4267   -2.4562 C   0  0  0  0  0  0  0  0  0  0  0  0
   -0.0548   -7.2357   -2.2117 O   0  0  0  0  0  0  0  0  0  0  0  0
   -0.9485   -9.4150   -1.7174 C   0  0  0  0  0  0  0  0  0  0  0  0
   -1.7932   -9.2160   -0.6641 C   0  0  0  0  0  0  0  0  0  0  0  0
   -2.4915  -10.3191   -0.1244 C   0  0  0  0  0  0  0  0  0  0  0  0
   -3.3814  -10.1698    0.9587 C   0  0  0  0  0  0  0  0  0  0  0  0
   -4.0589  -11.2430    1.4672 C   0  0  0  0  0  0  0  0  0  0  0  0
   -3.8557  -12.5056    0.8944 C   0  0  0  0  0  0  0  0  0  0  0  0
   -4.5321  -13.5496    1.4071 F   0  0  0  0  0  0  0  0  0  0  0  0
   -3.0031  -12.7060   -0.1556 C   0  0  0  0  0  0  0  0  0  0  0  0
   -2.2969  -11.6120   -0.6918 C   0  0  0  0  0  0  0  0  0  0  0  0
   -1.4069  -11.7887   -1.7776 C   0  0  0  0  0  0  0  0  0  0  0  0
   -0.7398  -10.7057   -2.2828 C   0  0  0  0  0  0  0  0  0  0  0  0
    0.2276  -10.5798   -3.3695 C   0  0  0  0  0  0  0  0  0  0  0  0
    0.8332  -11.6162   -4.0296 C   0  0  0  0  0  0  0  0  0  0  0  0
    1.9001  -11.4782   -4.9444 C   0  0  0  0  0  0  0  0  0  0  0  0
    2.8055  -11.4592   -5.6505 N   0  0  0  0  0  0  0  0  0  0  0  0
    0.5187  -12.9734   -3.8120 C   0  0  0  0  0  0  0  0  0  0  0  0
    0.2973  -14.0921   -3.6792 N   0  0  0  0  0  0  0  0  0  0  0  0
   -2.9888    7.3412    9.3058 H   0  0  0  0  0  0  0  0  0  0  0  0
   -6.0439    3.9667   12.4846 H   0  0  0  0  0  0  0  0  0  0  0  0
   -6.8672    1.6789   12.1735 H   0  0  0  0  0  0  0  0  0  0  0  0
   -1.5734    8.5976    7.8167 H   0  0  0  0  0  0  0  0  0  0  0  0
    1.4844   10.0083    3.8524 H   0  0  0  0  0  0  0  0  0  0  0  0
    2.4009    9.6473    5.3290 H   0  0  0  0  0  0  0  0  0  0  0  0
    3.7582    9.1261    3.2860 H   0  0  0  0  0  0  0  0  0  0  0  0
    2.5081    7.9931    2.7480 H   0  0  0  0  0  0  0  0  0  0  0  0
    3.4260    7.6574    4.2163 H   0  0  0  0  0  0  0  0  0  0  0  0
   -2.8878    8.2924    3.8385 H   0  0  0  0  0  0  0  0  0  0  0  0
   -3.4059   10.6891    3.7045 H   0  0  0  0  0  0  0  0  0  0  0  0
   -1.9273   12.2122    2.4588 H   0  0  0  0  0  0  0  0  0  0  0  0
    1.3523   11.2507    1.1171 H   0  0  0  0  0  0  0  0  0  0  0  0
    0.2478   12.5985    1.4289 H   0  0  0  0  0  0  0  0  0  0  0  0
   -1.1615   11.8807   -0.5036 H   0  0  0  0  0  0  0  0  0  0  0  0
    0.4996   12.1997   -1.0137 H   0  0  0  0  0  0  0  0  0  0  0  0
   -0.0613   10.5363   -0.8090 H   0  0  0  0  0  0  0  0  0  0  0  0
    0.6130    8.9375    1.4713 H   0  0  0  0  0  0  0  0  0  0  0  0
    2.2565   -0.9937   -7.6292 H   0  0  0  0  0  0  0  0  0  0  0  0
    3.5404   -1.1536   -9.7248 H   0  0  0  0  0  0  0  0  0  0  0  0
    5.3722   -2.7843   -9.9336 H   0  0  0  0  0  0  0  0  0  0  0  0
    6.4469   -4.7893   -9.0884 H   0  0  0  0  0  0  0  0  0  0  0  0
    6.0664   -5.4070   -7.4741 H   0  0  0  0  0  0  0  0  0  0  0  0
    7.4609   -3.6003   -6.4600 H   0  0  0  0  0  0  0  0  0  0  0  0
    7.8335   -2.9819   -8.0685 H   0  0  0  0  0  0  0  0  0  0  0  0
    8.4113   -4.5793   -7.5823 H   0  0  0  0  0  0  0  0  0  0  0  0
    4.6969   -4.0535   -5.9179 H   0  0  0  0  0  0  0  0  0  0  0  0
    0.1757    2.2794    2.3444 H   0  0  0  0  0  0  0  0  0  0  0  0
    0.3332    0.9536    1.1973 H   0  0  0  0  0  0  0  0  0  0  0  0
    2.7611    1.5585    0.8676 H   0  0  0  0  0  0  0  0  0  0  0  0
    2.5777    2.8420    2.0642 H   0  0  0  0  0  0  0  0  0  0  0  0
    2.3957    1.1553    2.5526 H   0  0  0  0  0  0  0  0  0  0  0  0
   -0.4090   -0.9307   -1.6533 H   0  0  0  0  0  0  0  0  0  0  0  0
   -0.5051    0.3373   -0.4335 H   0  0  0  0  0  0  0  0  0  0  0  0
    1.5046   -1.9822   -0.6021 H   0  0  0  0  0  0  0  0  0  0  0  0
    0.2483   -1.7779    0.6137 H   0  0  0  0  0  0  0  0  0  0  0  0
    1.6521   -0.7004    0.5950 H   0  0  0  0  0  0  0  0  0  0  0  0
    2.6006   -4.9826   -7.0565 H   0  0  0  0  0  0  0  0  0  0  0  0
    4.5606   -7.7322   -9.4367 H   0  0  0  0  0  0  0  0  0  0  0  0
    3.4150   -9.0472   -9.0251 H   0  0  0  0  0  0  0  0  0  0  0  0
    2.6873   -6.5155  -10.5876 H   0  0  0  0  0  0  0  0  0  0  0  0
    1.5940   -7.8532  -10.1990 H   0  0  0  0  0  0  0  0  0  0  0  0
    2.9490   -8.1145  -11.3037 H   0  0  0  0  0  0  0  0  0  0  0  0
    1.3843   -9.2932   -5.4449 H   0  0  0  0  0  0  0  0  0  0  0  0
   -1.9306   -8.2284   -0.2499 H   0  0  0  0  0  0  0  0  0  0  0  0
   -3.5216   -9.1868    1.3828 H   0  0  0  0  0  0  0  0  0  0  0  0
   -4.7440  -11.1456    2.2944 H   0  0  0  0  0  0  0  0  0  0  0  0
   -2.8705  -13.6929   -0.5706 H   0  0  0  0  0  0  0  0  0  0  0  0
   -1.2829  -12.7783   -2.1873 H   0  0  0  0  0  0  0  0  0  0  0  0
  1  2  2  0  0  0  0
  2  3  1  0  0  0  0
  3  4  2  0  0  0  0
  3  5  1  0  0  0  0
  5  6  2  0  0  0  0
  6  7  1  0  0  0  0
  7  8  2  0  0  0  0
  8  9  1  0  0  0  0
  9 10  1  0  0  0  0
  9 11  2  0  0  0  0
 11 12  1  0  0  0  0
  6 13  1  0  0  0  0
 13 14  2  0  0  0  0
 14 15  1  0  0  0  0
 15 16  3  0  0  0  0
 14 17  1  0  0  0  0
 17 18  3  0  0  0  0
  1 19  1  0  0  0  0
 19 20  2  0  0  0  0
 20 21  1  0  0  0  0
 21 22  1  0  0  0  0
 22 23  2  0  0  0  0
 22 24  1  0  0  0  0
 24 25  1  0  0  0  0
 25 26  1  0  0  0  0
 21 27  2  0  0  0  0
 27 28  1  0  0  0  0
 27 29  1  0  0  0  0
 29 30  2  0  0  0  0
 30 31  1  0  0  0  0
 31 32  2  0  0  0  0
 32 33  1  0  0  0  0
 33 34  2  0  0  0  0
 34 35  1  0  0  0  0
 35 36  1  0  0  0  0
 36 37  1  0  0  0  0
 35 38  2  0  0  0  0
 30 39  1  0  0  0  0
 39 40  1  0  0  0  0
 40 41  1  0  0  0  0
 41 42  1  0  0  0  0
 42 43  1  0  0  0  0
 43 44  1  0  0  0  0
 44 45  2  0  0  0  0
 45 46  1  0  0  0  0
 46 47  1  0  0  0  0
 44 48  1  0  0  0  0
 48 49  1  0  0  0  0
 49 50  1  0  0  0  0
 50 51  1  0  0  0  0
 51 52  1  0  0  0  0
 52 53  1  0  0  0  0
 53 54  2  0  0  0  0
 54 55  1  0  0  0  0
 55 56  2  0  0  0  0
 56 57  1  0  0  0  0
 57 58  1  0  0  0  0
 58 59  1  0  0  0  0
 57 60  2  0  0  0  0
 52 61  2  0  0  0  0
 61 62  1  0  0  0  0
 62 63  1  0  0  0  0
 63 64  1  0  0  0  0
 64 65  1  0  0  0  0
 65 66  1  0  0  0  0
 66 67  1  0  0  0  0
 67 68  1  0  0  0  0
 68 69  1  0  0  0  0
 69 70  1  0  0  0  0
 70 71  1  0  0  0  0
 68 72  1  0  0  0  0
 72 73  1  0  0  0  0
 65 74  1  0  0  0  0
 74 75  1  0  0  0  0
 61 76  1  0  0  0  0
 76 77  2  0  0  0  0
 77 78  1  0  0  0  0
 78 79  1  0  0  0  0
 79 80  2  0  0  0  0
 79 81  1  0  0  0  0
 81 82  1  0  0  0  0
 82 83  1  0  0  0  0
 78 84  2  0  0  0  0
 84 85  1  0  0  0  0
 84 86  1  0  0  0  0
 86 87  2  0  0  0  0
 87 88  1  0  0  0  0
 88 89  2  0  0  0  0
 88 90  1  0  0  0  0
 90 91  2  0  0  0  0
 91 92  1  0  0  0  0
 92 93  2  0  0  0  0
 93 94  1  0  0  0  0
 94 95  2  0  0  0  0
 95 96  1  0  0  0  0
 95 97  1  0  0  0  0
 97 98  2  0  0  0  0
 98 99  1  0  0  0  0
 99100  2  0  0  0  0
100101  1  0  0  0  0
101102  2  0  0  0  0
102103  1  0  0  0  0
103104  3  0  0  0  0
102105  1  0  0  0  0
105106  3  0  0  0  0
 13  2  1  0  0  0  0
 28 19  1  0  0  0  0
 71 29  1  0  0  0  0
 85 76  1  0  0  0  0
101 87  1  0  0  0  0
 11  5  1  0  0  0  0
 38 31  1  0  0  0  0
 70 39  2  0  0  0  0
100 90  1  0  0  0  0
 69 41  2  0  0  0  0
 98 92  1  0  0  0  0
 67 42  2  0  0  0  0
 47 43  2  0  0  0  0
 66 48  2  0  0  0  0
 64 49  2  0  0  0  0
 63 51  2  0  0  0  0
 60 53  1  0  0  0  0
  1107  1  0  0  0  0
  7108  1  0  0  0  0
  8109  1  0  0  0  0
 20110  1  0  0  0  0
 25111  1  0  0  0  0
 25112  1  0  0  0  0
 26113  1  0  0  0  0
 26114  1  0  0  0  0
 26115  1  0  0  0  0
 32116  1  0  0  0  0
 33117  1  0  0  0  0
 34118  1  0  0  0  0
 36119  1  0  0  0  0
 36120  1  0  0  0  0
 37121  1  0  0  0  0
 37122  1  0  0  0  0
 37123  1  0  0  0  0
 38124  1  0  0  0  0
 54125  1  0  0  0  0
 55126  1  0  0  0  0
 56127  1  0  0  0  0
 58128  1  0  0  0  0
 58129  1  0  0  0  0
 59130  1  0  0  0  0
 59131  1  0  0  0  0
 59132  1  0  0  0  0
 60133  1  0  0  0  0
 72134  1  0  0  0  0
 72135  1  0  0  0  0
 73136  1  0  0  0  0
 73137  1  0  0  0  0
 73138  1  0  0  0  0
 74139  1  0  0  0  0
 74140  1  0  0  0  0
 75141  1  0  0  0  0
 75142  1  0  0  0  0
 75143  1  0  0  0  0
 77144  1  0  0  0  0
 82145  1  0  0  0  0
 82146  1  0  0  0  0
 83147  1  0  0  0  0
 83148  1  0  0  0  0
 83149  1  0  0  0  0
 86150  1  0  0  0  0
 91151  1  0  0  0  0
 93152  1  0  0  0  0
 94153  1  0  0  0  0
 97154  1  0  0  0  0
 99155  1  0  0  0  0
M  END
