
  xtb     02072206443D
 energy: -259.316987534693 gnorm: 0.000229981749 xtb: 6.4.1 (unknown)
137153  0     0  0            999 V2000
    7.1326    9.1500   -0.5809 C   0  0  0  0  0  0  0  0  0  0  0  0
    7.9973    8.4869    0.2582 C   0  0  0  0  0  0  0  0  0  0  0  0
    7.7468    7.1766    0.8587 C   0  0  0  0  0  0  0  0  0  0  0  0
    6.7582    6.4773    0.7278 O   0  0  0  0  0  0  0  0  0  0  0  0
    8.9419    6.8626    1.6677 C   0  0  0  0  0  0  0  0  0  0  0  0
    9.8627    7.9223    1.5656 C   0  0  0  0  0  0  0  0  0  0  0  0
   11.0708    7.8530    2.2402 C   0  0  0  0  0  0  0  0  0  0  0  0
   11.3404    6.7293    3.0086 C   0  0  0  0  0  0  0  0  0  0  0  0
   10.4286    5.6901    3.1081 C   0  0  0  0  0  0  0  0  0  0  0  0
   10.8533    4.1885    4.1734 Br  0  0  0  0  0  0  0  0  0  0  0  0
    9.2034    5.7383    2.4332 C   0  0  0  0  0  0  0  0  0  0  0  0
    8.0737    4.4586    2.5495 Cl  0  0  0  0  0  0  0  0  0  0  0  0
    9.2957    8.9535    0.6948 C   0  0  0  0  0  0  0  0  0  0  0  0
    9.9109   10.1374    0.3768 C   0  0  0  0  0  0  0  0  0  0  0  0
    9.3801   11.1428   -0.4583 C   0  0  0  0  0  0  0  0  0  0  0  0
    9.0244   12.0091   -1.1236 N   0  0  0  0  0  0  0  0  0  0  0  0
   11.1825   10.5230    0.8512 C   0  0  0  0  0  0  0  0  0  0  0  0
   12.2095   10.8988    1.2002 N   0  0  0  0  0  0  0  0  0  0  0  0
    5.8728    8.7704   -1.0582 C   0  0  0  0  0  0  0  0  0  0  0  0
    5.1175    9.5819   -1.9072 C   0  0  0  0  0  0  0  0  0  0  0  0
    3.9036    9.0314   -2.2792 C   0  0  0  0  0  0  0  0  0  0  0  0
    2.7512    9.8851   -3.2253 Cl  0  0  0  0  0  0  0  0  0  0  0  0
    3.6879    7.7642   -1.7368 C   0  0  0  0  0  0  0  0  0  0  0  0
    5.0147    7.2857   -0.7257 S   0  0  0  0  0  0  0  0  0  0  0  0
    2.5792    6.8861   -1.8598 C   0  0  0  0  0  0  0  0  0  0  0  0
    1.7095    6.6548   -2.9158 C   0  0  0  0  0  0  0  0  0  0  0  0
    1.8385    7.1846   -4.2709 C   0  0  0  0  0  0  0  0  0  0  0  0
    3.0852    7.2555   -4.8901 C   0  0  0  0  0  0  0  0  0  0  0  0
    3.1802    7.7006   -6.1937 C   0  0  0  0  0  0  0  0  0  0  0  0
    2.0427    8.0688   -6.8922 C   0  0  0  0  0  0  0  0  0  0  0  0
    0.7916    7.9970   -6.2932 C   0  0  0  0  0  0  0  0  0  0  0  0
   -0.4559    8.3306   -7.0581 C   0  0  0  0  0  0  0  0  0  0  0  0
   -1.0773    7.0546   -7.6305 C   0  0  0  0  0  0  0  0  0  0  0  0
    0.7019    7.5515   -4.9833 C   0  0  0  0  0  0  0  0  0  0  0  0
    0.7440    5.6893   -2.5719 C   0  0  0  0  0  0  0  0  0  0  0  0
   -0.5596    4.9601   -3.4788 S   0  0  0  0  0  0  0  0  0  0  0  0
   -0.8803    3.9212   -2.1350 C   0  0  0  0  0  0  0  0  0  0  0  0
   -1.7686    2.8970   -1.7757 C   0  0  0  0  0  0  0  0  0  0  0  0
   -2.8947    2.3654   -2.4405 C   0  0  0  0  0  0  0  0  0  0  0  0
   -3.6671    1.3481   -1.7879 C   0  0  0  0  0  0  0  0  0  0  0  0
   -4.7180    0.9751   -2.5015 N   0  0  0  0  0  0  0  0  0  0  0  0
   -4.7332    1.8286   -3.8765 S   0  0  0  0  0  0  0  0  0  0  0  0
   -3.3979    2.7064   -3.6166 N   0  0  0  0  0  0  0  0  0  0  0  0
   -3.2058    0.8261   -0.5596 C   0  0  0  0  0  0  0  0  0  0  0  0
   -3.6260   -0.2930    0.1760 C   0  0  0  0  0  0  0  0  0  0  0  0
   -4.8179   -1.5443    0.0872 S   0  0  0  0  0  0  0  0  0  0  0  0
   -4.0392   -2.3468    1.4306 C   0  0  0  0  0  0  0  0  0  0  0  0
   -4.2753   -3.5772    2.0709 C   0  0  0  0  0  0  0  0  0  0  0  0
   -5.3984   -4.4585    1.7532 C   0  0  0  0  0  0  0  0  0  0  0  0
   -6.1877   -4.9924    2.7694 C   0  0  0  0  0  0  0  0  0  0  0  0
   -7.2659   -5.7934    2.4517 C   0  0  0  0  0  0  0  0  0  0  0  0
   -7.5704   -6.0625    1.1281 C   0  0  0  0  0  0  0  0  0  0  0  0
   -6.7997   -5.5308    0.1032 C   0  0  0  0  0  0  0  0  0  0  0  0
   -7.1588   -5.7602   -1.3361 C   0  0  0  0  0  0  0  0  0  0  0  0
   -7.9909   -4.5895   -1.8643 C   0  0  0  0  0  0  0  0  0  0  0  0
   -5.7168   -4.7275    0.4277 C   0  0  0  0  0  0  0  0  0  0  0  0
   -3.3391   -3.8141    3.0642 C   0  0  0  0  0  0  0  0  0  0  0  0
   -2.2002   -2.4829    3.2464 S   0  0  0  0  0  0  0  0  0  0  0  0
   -2.9413   -1.6418    1.9333 C   0  0  0  0  0  0  0  0  0  0  0  0
   -2.7051   -0.4657    1.2124 C   0  0  0  0  0  0  0  0  0  0  0  0
   -1.7598    0.5262    1.1780 N   0  0  0  0  0  0  0  0  0  0  0  0
   -2.0399    1.3309    0.0835 C   0  0  0  0  0  0  0  0  0  0  0  0
   -1.3886    2.4619   -0.4737 C   0  0  0  0  0  0  0  0  0  0  0  0
   -0.3433    3.2557   -0.0352 N   0  0  0  0  0  0  0  0  0  0  0  0
   -0.0277    4.1265   -1.0456 C   0  0  0  0  0  0  0  0  0  0  0  0
    0.8959    5.1492   -1.2903 C   0  0  0  0  0  0  0  0  0  0  0  0
    2.2288    5.8724   -0.4654 S   0  0  0  0  0  0  0  0  0  0  0  0
    0.1084    3.5239    1.3128 C   0  0  0  0  0  0  0  0  0  0  0  0
    1.5521    3.0839    1.5495 C   0  0  0  0  0  0  0  0  0  0  0  0
   -0.4962    0.2824    1.8394 C   0  0  0  0  0  0  0  0  0  0  0  0
    0.4829   -0.4198    0.9011 C   0  0  0  0  0  0  0  0  0  0  0  0
   -3.0918   -5.0098    3.7891 C   0  0  0  0  0  0  0  0  0  0  0  0
   -2.3735   -5.1149    4.9695 C   0  0  0  0  0  0  0  0  0  0  0  0
   -2.1914   -6.4322    5.3578 C   0  0  0  0  0  0  0  0  0  0  0  0
   -1.3598   -6.8689    6.7899 Cl  0  0  0  0  0  0  0  0  0  0  0  0
   -2.7214   -7.3797    4.4667 C   0  0  0  0  0  0  0  0  0  0  0  0
   -3.5135   -6.5623    3.1391 S   0  0  0  0  0  0  0  0  0  0  0  0
   -2.5659   -8.7603    4.6358 C   0  0  0  0  0  0  0  0  0  0  0  0
   -2.8698   -9.7893    3.7800 C   0  0  0  0  0  0  0  0  0  0  0  0
   -3.4292   -9.6387    2.4327 C   0  0  0  0  0  0  0  0  0  0  0  0
   -3.8860   -8.6284    1.9251 O   0  0  0  0  0  0  0  0  0  0  0  0
   -3.3204  -10.9613    1.7956 C   0  0  0  0  0  0  0  0  0  0  0  0
   -3.6250  -11.3206    0.5150 C   0  0  0  0  0  0  0  0  0  0  0  0
   -3.3948  -12.6517    0.1017 C   0  0  0  0  0  0  0  0  0  0  0  0
   -3.6744  -13.0745   -1.2137 C   0  0  0  0  0  0  0  0  0  0  0  0
   -3.4344  -14.3621   -1.6058 C   0  0  0  0  0  0  0  0  0  0  0  0
   -2.9045  -15.2659   -0.6752 C   0  0  0  0  0  0  0  0  0  0  0  0
   -2.6733  -16.5283   -1.0797 F   0  0  0  0  0  0  0  0  0  0  0  0
   -2.6176  -14.9086    0.6131 C   0  0  0  0  0  0  0  0  0  0  0  0
   -2.8566  -13.5860    1.0336 C   0  0  0  0  0  0  0  0  0  0  0  0
   -2.5612  -13.1851    2.3583 C   0  0  0  0  0  0  0  0  0  0  0  0
   -2.7888  -11.8890    2.7355 C   0  0  0  0  0  0  0  0  0  0  0  0
   -2.5623  -11.1885    3.9985 C   0  0  0  0  0  0  0  0  0  0  0  0
   -2.1637  -11.7782    5.1702 C   0  0  0  0  0  0  0  0  0  0  0  0
   -2.0011  -11.1193    6.4071 C   0  0  0  0  0  0  0  0  0  0  0  0
   -1.8580  -10.6650    7.4523 N   0  0  0  0  0  0  0  0  0  0  0  0
   -1.8894  -13.1551    5.3048 C   0  0  0  0  0  0  0  0  0  0  0  0
   -1.6484  -14.2641    5.4785 N   0  0  0  0  0  0  0  0  0  0  0  0
    7.4528   10.1165   -0.9502 H   0  0  0  0  0  0  0  0  0  0  0  0
   11.8010    8.6425    2.1841 H   0  0  0  0  0  0  0  0  0  0  0  0
   12.2758    6.6575    3.5418 H   0  0  0  0  0  0  0  0  0  0  0  0
    5.4492   10.5541   -2.2251 H   0  0  0  0  0  0  0  0  0  0  0  0
    3.9699    6.9476   -4.3522 H   0  0  0  0  0  0  0  0  0  0  0  0
    4.1476    7.7566   -6.6708 H   0  0  0  0  0  0  0  0  0  0  0  0
    2.1270    8.4137   -7.9126 H   0  0  0  0  0  0  0  0  0  0  0  0
   -1.1770    8.8155   -6.3971 H   0  0  0  0  0  0  0  0  0  0  0  0
   -0.2214    9.0177   -7.8731 H   0  0  0  0  0  0  0  0  0  0  0  0
   -0.3794    6.5649   -8.3059 H   0  0  0  0  0  0  0  0  0  0  0  0
   -1.3222    6.3605   -6.8297 H   0  0  0  0  0  0  0  0  0  0  0  0
   -1.9862    7.2882   -8.1796 H   0  0  0  0  0  0  0  0  0  0  0  0
   -0.2641    7.5087   -4.5016 H   0  0  0  0  0  0  0  0  0  0  0  0
   -5.9598   -4.7650    3.8005 H   0  0  0  0  0  0  0  0  0  0  0  0
   -7.8774   -6.2066    3.2401 H   0  0  0  0  0  0  0  0  0  0  0  0
   -8.4168   -6.6901    0.8888 H   0  0  0  0  0  0  0  0  0  0  0  0
   -6.2497   -5.8533   -1.9334 H   0  0  0  0  0  0  0  0  0  0  0  0
   -7.7302   -6.6849   -1.4342 H   0  0  0  0  0  0  0  0  0  0  0  0
   -8.2543   -4.7493   -2.9071 H   0  0  0  0  0  0  0  0  0  0  0  0
   -8.9068   -4.4867   -1.2865 H   0  0  0  0  0  0  0  0  0  0  0  0
   -7.4309   -3.6605   -1.7847 H   0  0  0  0  0  0  0  0  0  0  0  0
   -5.1017   -4.3192   -0.3609 H   0  0  0  0  0  0  0  0  0  0  0  0
   -0.5859    3.0542    2.0113 H   0  0  0  0  0  0  0  0  0  0  0  0
    0.0466    4.6068    1.4718 H   0  0  0  0  0  0  0  0  0  0  0  0
    2.2308    3.6959    0.9622 H   0  0  0  0  0  0  0  0  0  0  0  0
    1.7072    2.0464    1.2697 H   0  0  0  0  0  0  0  0  0  0  0  0
    1.8047    3.2097    2.5989 H   0  0  0  0  0  0  0  0  0  0  0  0
   -0.0673    1.2043    2.2190 H   0  0  0  0  0  0  0  0  0  0  0  0
   -0.7101   -0.3623    2.6956 H   0  0  0  0  0  0  0  0  0  0  0  0
    0.6801    0.1932    0.0238 H   0  0  0  0  0  0  0  0  0  0  0  0
    0.0686   -1.3689    0.5691 H   0  0  0  0  0  0  0  0  0  0  0  0
    1.4193   -0.6135    1.4171 H   0  0  0  0  0  0  0  0  0  0  0  0
   -2.0104   -4.2691    5.5257 H   0  0  0  0  0  0  0  0  0  0  0  0
   -2.0713   -9.0241    5.5636 H   0  0  0  0  0  0  0  0  0  0  0  0
   -4.0279  -10.5955   -0.1762 H   0  0  0  0  0  0  0  0  0  0  0  0
   -4.0815  -12.3590   -1.9124 H   0  0  0  0  0  0  0  0  0  0  0  0
   -3.6399  -14.7010   -2.6088 H   0  0  0  0  0  0  0  0  0  0  0  0
   -2.2104  -15.6316    1.3025 H   0  0  0  0  0  0  0  0  0  0  0  0
   -2.1508  -13.9157    3.0365 H   0  0  0  0  0  0  0  0  0  0  0  0
  1  2  2  0  0  0  0
  2  3  1  0  0  0  0
  3  4  2  0  0  0  0
  3  5  1  0  0  0  0
  5  6  2  0  0  0  0
  6  7  1  0  0  0  0
  7  8  2  0  0  0  0
  8  9  1  0  0  0  0
  9 10  1  0  0  0  0
  9 11  2  0  0  0  0
 11 12  1  0  0  0  0
  6 13  1  0  0  0  0
 13 14  2  0  0  0  0
 14 15  1  0  0  0  0
 15 16  3  0  0  0  0
 14 17  1  0  0  0  0
 17 18  3  0  0  0  0
  1 19  1  0  0  0  0
 19 20  2  0  0  0  0
 20 21  1  0  0  0  0
 21 22  1  0  0  0  0
 21 23  2  0  0  0  0
 23 24  1  0  0  0  0
 23 25  1  0  0  0  0
 25 26  2  0  0  0  0
 26 27  1  0  0  0  0
 27 28  2  0  0  0  0
 28 29  1  0  0  0  0
 29 30  2  0  0  0  0
 30 31  1  0  0  0  0
 31 32  1  0  0  0  0
 32 33  1  0  0  0  0
 31 34  2  0  0  0  0
 26 35  1  0  0  0  0
 35 36  1  0  0  0  0
 36 37  1  0  0  0  0
 37 38  1  0  0  0  0
 38 39  1  0  0  0  0
 39 40  1  0  0  0  0
 40 41  2  0  0  0  0
 41 42  1  0  0  0  0
 42 43  1  0  0  0  0
 40 44  1  0  0  0  0
 44 45  1  0  0  0  0
 45 46  1  0  0  0  0
 46 47  1  0  0  0  0
 47 48  1  0  0  0  0
 48 49  1  0  0  0  0
 49 50  2  0  0  0  0
 50 51  1  0  0  0  0
 51 52  2  0  0  0  0
 52 53  1  0  0  0  0
 53 54  1  0  0  0  0
 54 55  1  0  0  0  0
 53 56  2  0  0  0  0
 48 57  2  0  0  0  0
 57 58  1  0  0  0  0
 58 59  1  0  0  0  0
 59 60  1  0  0  0  0
 60 61  1  0  0  0  0
 61 62  1  0  0  0  0
 62 63  1  0  0  0  0
 63 64  1  0  0  0  0
 64 65  1  0  0  0  0
 65 66  1  0  0  0  0
 66 67  1  0  0  0  0
 64 68  1  0  0  0  0
 68 69  1  0  0  0  0
 61 70  1  0  0  0  0
 70 71  1  0  0  0  0
 57 72  1  0  0  0  0
 72 73  2  0  0  0  0
 73 74  1  0  0  0  0
 74 75  1  0  0  0  0
 74 76  2  0  0  0  0
 76 77  1  0  0  0  0
 76 78  1  0  0  0  0
 78 79  2  0  0  0  0
 79 80  1  0  0  0  0
 80 81  2  0  0  0  0
 80 82  1  0  0  0  0
 82 83  2  0  0  0  0
 83 84  1  0  0  0  0
 84 85  2  0  0  0  0
 85 86  1  0  0  0  0
 86 87  2  0  0  0  0
 87 88  1  0  0  0  0
 87 89  1  0  0  0  0
 89 90  2  0  0  0  0
 90 91  1  0  0  0  0
 91 92  2  0  0  0  0
 92 93  1  0  0  0  0
 93 94  2  0  0  0  0
 94 95  1  0  0  0  0
 95 96  3  0  0  0  0
 94 97  1  0  0  0  0
 97 98  3  0  0  0  0
 13  2  1  0  0  0  0
 24 19  1  0  0  0  0
 67 25  1  0  0  0  0
 77 72  1  0  0  0  0
 93 79  1  0  0  0  0
 11  5  1  0  0  0  0
 34 27  1  0  0  0  0
 66 35  2  0  0  0  0
 92 82  1  0  0  0  0
 65 37  2  0  0  0  0
 90 84  1  0  0  0  0
 63 38  2  0  0  0  0
 43 39  2  0  0  0  0
 62 44  2  0  0  0  0
 60 45  2  0  0  0  0
 59 47  2  0  0  0  0
 56 49  1  0  0  0  0
  1 99  1  0  0  0  0
  7100  1  0  0  0  0
  8101  1  0  0  0  0
 20102  1  0  0  0  0
 28103  1  0  0  0  0
 29104  1  0  0  0  0
 30105  1  0  0  0  0
 32106  1  0  0  0  0
 32107  1  0  0  0  0
 33108  1  0  0  0  0
 33109  1  0  0  0  0
 33110  1  0  0  0  0
 34111  1  0  0  0  0
 50112  1  0  0  0  0
 51113  1  0  0  0  0
 52114  1  0  0  0  0
 54115  1  0  0  0  0
 54116  1  0  0  0  0
 55117  1  0  0  0  0
 55118  1  0  0  0  0
 55119  1  0  0  0  0
 56120  1  0  0  0  0
 68121  1  0  0  0  0
 68122  1  0  0  0  0
 69123  1  0  0  0  0
 69124  1  0  0  0  0
 69125  1  0  0  0  0
 70126  1  0  0  0  0
 70127  1  0  0  0  0
 71128  1  0  0  0  0
 71129  1  0  0  0  0
 71130  1  0  0  0  0
 73131  1  0  0  0  0
 78132  1  0  0  0  0
 83133  1  0  0  0  0
 85134  1  0  0  0  0
 86135  1  0  0  0  0
 89136  1  0  0  0  0
 91137  1  0  0  0  0
M  END
