
  xtb     02062201233D
 energy: -254.469402812008 gnorm: 0.000992388266 xtb: 6.4.1 (unknown)
142157  0     0  0            999 V2000
    9.1814    5.2439   -4.2528 C   0  0  0  0  0  0  0  0  0  0  0  0
   10.0865    5.0690   -5.2699 C   0  0  0  0  0  0  0  0  0  0  0  0
   10.4049    3.8317   -6.0099 C   0  0  0  0  0  0  0  0  0  0  0  0
   10.0782    2.6919   -5.7596 O   0  0  0  0  0  0  0  0  0  0  0  0
   11.2363    4.2635   -7.1589 C   0  0  0  0  0  0  0  0  0  0  0  0
   11.4700    5.6479   -7.0809 C   0  0  0  0  0  0  0  0  0  0  0  0
   12.2097    6.2836   -8.0651 C   0  0  0  0  0  0  0  0  0  0  0  0
   12.7108    5.5252   -9.1128 C   0  0  0  0  0  0  0  0  0  0  0  0
   12.4865    4.1590   -9.1810 C   0  0  0  0  0  0  0  0  0  0  0  0
   13.2008    3.1813  -10.6317 Br  0  0  0  0  0  0  0  0  0  0  0  0
   11.7401    3.4984   -8.1985 C   0  0  0  0  0  0  0  0  0  0  0  0
   11.4590    1.8126   -8.2858 Cl  0  0  0  0  0  0  0  0  0  0  0  0
   10.8250    6.1602   -5.8737 C   0  0  0  0  0  0  0  0  0  0  0  0
   10.9732    7.4340   -5.3858 C   0  0  0  0  0  0  0  0  0  0  0  0
   10.4612    7.9179   -4.1627 C   0  0  0  0  0  0  0  0  0  0  0  0
   10.1128    8.3900   -3.1748 N   0  0  0  0  0  0  0  0  0  0  0  0
   11.7191    8.4447   -6.0279 C   0  0  0  0  0  0  0  0  0  0  0  0
   12.3017    9.3151   -6.4984 N   0  0  0  0  0  0  0  0  0  0  0  0
    8.3731    4.3371   -3.5521 C   0  0  0  0  0  0  0  0  0  0  0  0
    8.2646    2.9554   -3.5353 C   0  0  0  0  0  0  0  0  0  0  0  0
    7.3229    2.4885   -2.6296 C   0  0  0  0  0  0  0  0  0  0  0  0
    7.0097    0.7630   -2.4009 S   0  0  0  0  0  0  0  0  0  0  0  0
    7.9541    0.5037   -0.8492 C   0  0  0  0  0  0  0  0  0  0  0  0
    9.4435    0.6833   -1.0568 C   0  0  0  0  0  0  0  0  0  0  0  0
    6.6598    3.4926   -1.9156 C   0  0  0  0  0  0  0  0  0  0  0  0
    7.2607    5.0471   -2.3858 S   0  0  0  0  0  0  0  0  0  0  0  0
    5.5919    3.3469   -1.0004 C   0  0  0  0  0  0  0  0  0  0  0  0
    4.9766    4.3379   -0.2401 C   0  0  0  0  0  0  0  0  0  0  0  0
    5.4494    5.7182   -0.0994 C   0  0  0  0  0  0  0  0  0  0  0  0
    4.6032    6.7742   -0.4174 C   0  0  0  0  0  0  0  0  0  0  0  0
    5.0533    8.0753   -0.2877 C   0  0  0  0  0  0  0  0  0  0  0  0
    6.3362    8.3281    0.1612 C   0  0  0  0  0  0  0  0  0  0  0  0
    7.1880    7.2837    0.5044 C   0  0  0  0  0  0  0  0  0  0  0  0
    8.5644    7.5668    1.0310 C   0  0  0  0  0  0  0  0  0  0  0  0
    8.5119    7.9168    2.5194 C   0  0  0  0  0  0  0  0  0  0  0  0
    6.7295    5.9824    0.3800 C   0  0  0  0  0  0  0  0  0  0  0  0
    3.8289    3.8550    0.4002 C   0  0  0  0  0  0  0  0  0  0  0  0
    2.6446    4.6214    1.4335 S   0  0  0  0  0  0  0  0  0  0  0  0
    1.7829    3.1222    1.5087 C   0  0  0  0  0  0  0  0  0  0  0  0
    0.5963    2.6065    2.0567 C   0  0  0  0  0  0  0  0  0  0  0  0
   -0.3646    3.1390    2.9453 C   0  0  0  0  0  0  0  0  0  0  0  0
   -1.4593    2.3077    3.3687 C   0  0  0  0  0  0  0  0  0  0  0  0
   -2.2450    2.9167    4.2423 N   0  0  0  0  0  0  0  0  0  0  0  0
   -1.6663    4.4048    4.5070 S   0  0  0  0  0  0  0  0  0  0  0  0
   -0.3890    4.3326    3.5165 N   0  0  0  0  0  0  0  0  0  0  0  0
   -1.6277    1.0352    2.7758 C   0  0  0  0  0  0  0  0  0  0  0  0
   -2.6885    0.1148    2.8105 C   0  0  0  0  0  0  0  0  0  0  0  0
   -4.2129   -0.0989    3.6018 S   0  0  0  0  0  0  0  0  0  0  0  0
   -4.4895   -1.5224    2.6283 C   0  0  0  0  0  0  0  0  0  0  0  0
   -5.5573   -2.4372    2.5682 C   0  0  0  0  0  0  0  0  0  0  0  0
   -6.7314   -2.3621    3.4412 C   0  0  0  0  0  0  0  0  0  0  0  0
   -7.4392   -1.1705    3.5557 C   0  0  0  0  0  0  0  0  0  0  0  0
   -8.5449   -1.1076    4.3832 C   0  0  0  0  0  0  0  0  0  0  0  0
   -8.9488   -2.2224    5.0956 C   0  0  0  0  0  0  0  0  0  0  0  0
   -8.2435   -3.4167    5.0046 C   0  0  0  0  0  0  0  0  0  0  0  0
   -8.6546   -4.6166    5.8067 C   0  0  0  0  0  0  0  0  0  0  0  0
   -7.9672   -4.6108    7.1733 C   0  0  0  0  0  0  0  0  0  0  0  0
   -7.1274   -3.4697    4.1845 C   0  0  0  0  0  0  0  0  0  0  0  0
   -5.3287   -3.4154    1.6161 C   0  0  0  0  0  0  0  0  0  0  0  0
   -3.7671   -3.2235    0.8211 S   0  0  0  0  0  0  0  0  0  0  0  0
   -3.4396   -1.8061    1.7513 C   0  0  0  0  0  0  0  0  0  0  0  0
   -2.4041   -0.8715    1.8594 C   0  0  0  0  0  0  0  0  0  0  0  0
   -1.1921   -0.6273    1.2665 N   0  0  0  0  0  0  0  0  0  0  0  0
   -0.6924    0.5372    1.8296 C   0  0  0  0  0  0  0  0  0  0  0  0
    0.4973    1.2653    1.5984 C   0  0  0  0  0  0  0  0  0  0  0  0
    1.6280    0.9475    0.8704 N   0  0  0  0  0  0  0  0  0  0  0  0
    2.3950    2.0833    0.7934 C   0  0  0  0  0  0  0  0  0  0  0  0
    3.5681    2.5010    0.1612 C   0  0  0  0  0  0  0  0  0  0  0  0
    4.7605    1.7954   -0.8711 S   0  0  0  0  0  0  0  0  0  0  0  0
    2.2084   -0.3708    0.7310 C   0  0  0  0  0  0  0  0  0  0  0  0
    3.4657   -0.5279    1.5847 C   0  0  0  0  0  0  0  0  0  0  0  0
   -0.9059   -1.1923   -0.0387 C   0  0  0  0  0  0  0  0  0  0  0  0
   -0.9631   -0.1376   -1.1391 C   0  0  0  0  0  0  0  0  0  0  0  0
   -6.1826   -4.4537    1.1530 C   0  0  0  0  0  0  0  0  0  0  0  0
   -5.8126   -5.4969    0.3325 C   0  0  0  0  0  0  0  0  0  0  0  0
   -6.8680   -6.3400   -0.0393 C   0  0  0  0  0  0  0  0  0  0  0  0
   -6.6737   -7.8205   -0.9254 S   0  0  0  0  0  0  0  0  0  0  0  0
   -4.9560   -8.3057   -0.4918 C   0  0  0  0  0  0  0  0  0  0  0  0
   -4.7814   -8.5724    0.9900 C   0  0  0  0  0  0  0  0  0  0  0  0
   -8.0974   -5.9248    0.4884 C   0  0  0  0  0  0  0  0  0  0  0  0
   -7.8826   -4.5000    1.4924 S   0  0  0  0  0  0  0  0  0  0  0  0
   -9.3797   -6.4863    0.4667 C   0  0  0  0  0  0  0  0  0  0  0  0
   -9.9382   -7.3029   -0.4869 C   0  0  0  0  0  0  0  0  0  0  0  0
   -9.4632   -7.4220   -1.8774 C   0  0  0  0  0  0  0  0  0  0  0  0
   -8.4845   -6.8845   -2.3656 O   0  0  0  0  0  0  0  0  0  0  0  0
  -10.4769   -8.2352   -2.5633 C   0  0  0  0  0  0  0  0  0  0  0  0
  -10.6901   -8.7279   -3.8076 C   0  0  0  0  0  0  0  0  0  0  0  0
  -12.1692   -9.6193   -3.8675 S   0  0  0  0  0  0  0  0  0  0  0  0
  -12.5037   -9.3196   -2.2017 C   0  0  0  0  0  0  0  0  0  0  0  0
  -11.5177   -8.5714   -1.6374 C   0  0  0  0  0  0  0  0  0  0  0  0
  -11.1963   -8.0074   -0.3414 C   0  0  0  0  0  0  0  0  0  0  0  0
  -11.9384   -8.1877    0.7983 C   0  0  0  0  0  0  0  0  0  0  0  0
  -11.5973   -7.7143    2.0792 C   0  0  0  0  0  0  0  0  0  0  0  0
  -11.3590   -7.3761    3.1513 N   0  0  0  0  0  0  0  0  0  0  0  0
  -13.1453   -8.9149    0.7765 C   0  0  0  0  0  0  0  0  0  0  0  0
  -14.1329   -9.5003    0.7720 N   0  0  0  0  0  0  0  0  0  0  0  0
    9.0258    6.2686   -3.9355 H   0  0  0  0  0  0  0  0  0  0  0  0
   12.3979    7.3436   -8.0405 H   0  0  0  0  0  0  0  0  0  0  0  0
   13.2864    6.0009   -9.8917 H   0  0  0  0  0  0  0  0  0  0  0  0
    8.8514    2.3090   -4.1616 H   0  0  0  0  0  0  0  0  0  0  0  0
    7.7135   -0.5173   -0.5568 H   0  0  0  0  0  0  0  0  0  0  0  0
    7.5622    1.1934   -0.1014 H   0  0  0  0  0  0  0  0  0  0  0  0
    9.8031    0.0040   -1.8256 H   0  0  0  0  0  0  0  0  0  0  0  0
    9.6712    1.7024   -1.3640 H   0  0  0  0  0  0  0  0  0  0  0  0
    9.9732    0.4747   -0.1293 H   0  0  0  0  0  0  0  0  0  0  0  0
    3.6074    6.5718   -0.7823 H   0  0  0  0  0  0  0  0  0  0  0  0
    4.3992    8.8952   -0.5444 H   0  0  0  0  0  0  0  0  0  0  0  0
    6.6860    9.3463    0.2458 H   0  0  0  0  0  0  0  0  0  0  0  0
    9.0007    8.4004    0.4779 H   0  0  0  0  0  0  0  0  0  0  0  0
    9.2028    6.6932    0.8869 H   0  0  0  0  0  0  0  0  0  0  0  0
    9.5107    8.1245    2.8955 H   0  0  0  0  0  0  0  0  0  0  0  0
    7.8905    8.7943    2.6819 H   0  0  0  0  0  0  0  0  0  0  0  0
    8.0907    7.0908    3.0887 H   0  0  0  0  0  0  0  0  0  0  0  0
    7.3731    5.1576    0.6547 H   0  0  0  0  0  0  0  0  0  0  0  0
   -7.1327   -0.3067    2.9853 H   0  0  0  0  0  0  0  0  0  0  0  0
   -9.0973   -0.1835    4.4677 H   0  0  0  0  0  0  0  0  0  0  0  0
   -9.8214   -2.1682    5.7302 H   0  0  0  0  0  0  0  0  0  0  0  0
   -9.7366   -4.6124    5.9467 H   0  0  0  0  0  0  0  0  0  0  0  0
   -8.3869   -5.5288    5.2703 H   0  0  0  0  0  0  0  0  0  0  0  0
   -6.8858   -4.6258    7.0546 H   0  0  0  0  0  0  0  0  0  0  0  0
   -8.2657   -5.4821    7.7510 H   0  0  0  0  0  0  0  0  0  0  0  0
   -8.2368   -3.7157    7.7295 H   0  0  0  0  0  0  0  0  0  0  0  0
   -6.5530   -4.3837    4.1228 H   0  0  0  0  0  0  0  0  0  0  0  0
    2.4481   -0.5549   -0.3216 H   0  0  0  0  0  0  0  0  0  0  0  0
    1.4751   -1.0955    1.0784 H   0  0  0  0  0  0  0  0  0  0  0  0
    3.8070   -1.5583    1.5347 H   0  0  0  0  0  0  0  0  0  0  0  0
    4.2660    0.1144    1.2302 H   0  0  0  0  0  0  0  0  0  0  0  0
    3.2495   -0.2811    2.6222 H   0  0  0  0  0  0  0  0  0  0  0  0
   -1.6726   -1.9497   -0.2189 H   0  0  0  0  0  0  0  0  0  0  0  0
    0.0602   -1.6996   -0.0535 H   0  0  0  0  0  0  0  0  0  0  0  0
   -1.9307    0.3590   -1.1341 H   0  0  0  0  0  0  0  0  0  0  0  0
   -0.1890    0.6127   -1.0024 H   0  0  0  0  0  0  0  0  0  0  0  0
   -0.8207   -0.6121   -2.1059 H   0  0  0  0  0  0  0  0  0  0  0  0
   -4.7965   -5.6229    0.0038 H   0  0  0  0  0  0  0  0  0  0  0  0
   -4.2680   -7.5463   -0.8590 H   0  0  0  0  0  0  0  0  0  0  0  0
   -4.8053   -9.2173   -1.0693 H   0  0  0  0  0  0  0  0  0  0  0  0
   -3.7718   -8.9287    1.1846 H   0  0  0  0  0  0  0  0  0  0  0  0
   -4.9464   -7.6682    1.5721 H   0  0  0  0  0  0  0  0  0  0  0  0
   -5.4872   -9.3297    1.3224 H   0  0  0  0  0  0  0  0  0  0  0  0
  -10.0053   -6.1992    1.3039 H   0  0  0  0  0  0  0  0  0  0  0  0
  -10.0837   -8.6357   -4.6860 H   0  0  0  0  0  0  0  0  0  0  0  0
  -13.4002   -9.7119   -1.7649 H   0  0  0  0  0  0  0  0  0  0  0  0
  1  2  2  0  0  0  0
  2  3  1  0  0  0  0
  3  4  2  0  0  0  0
  3  5  1  0  0  0  0
  5  6  2  0  0  0  0
  6  7  1  0  0  0  0
  7  8  2  0  0  0  0
  8  9  1  0  0  0  0
  9 10  1  0  0  0  0
  9 11  2  0  0  0  0
 11 12  1  0  0  0  0
  6 13  1  0  0  0  0
 13 14  2  0  0  0  0
 14 15  1  0  0  0  0
 15 16  3  0  0  0  0
 14 17  1  0  0  0  0
 17 18  3  0  0  0  0
  1 19  1  0  0  0  0
 19 20  2  0  0  0  0
 20 21  1  0  0  0  0
 21 22  1  0  0  0  0
 22 23  1  0  0  0  0
 23 24  1  0  0  0  0
 21 25  2  0  0  0  0
 25 26  1  0  0  0  0
 25 27  1  0  0  0  0
 27 28  2  0  0  0  0
 28 29  1  0  0  0  0
 29 30  2  0  0  0  0
 30 31  1  0  0  0  0
 31 32  2  0  0  0  0
 32 33  1  0  0  0  0
 33 34  1  0  0  0  0
 34 35  1  0  0  0  0
 33 36  2  0  0  0  0
 28 37  1  0  0  0  0
 37 38  1  0  0  0  0
 38 39  1  0  0  0  0
 39 40  1  0  0  0  0
 40 41  1  0  0  0  0
 41 42  1  0  0  0  0
 42 43  2  0  0  0  0
 43 44  1  0  0  0  0
 44 45  1  0  0  0  0
 42 46  1  0  0  0  0
 46 47  1  0  0  0  0
 47 48  1  0  0  0  0
 48 49  1  0  0  0  0
 49 50  1  0  0  0  0
 50 51  1  0  0  0  0
 51 52  2  0  0  0  0
 52 53  1  0  0  0  0
 53 54  2  0  0  0  0
 54 55  1  0  0  0  0
 55 56  1  0  0  0  0
 56 57  1  0  0  0  0
 55 58  2  0  0  0  0
 50 59  2  0  0  0  0
 59 60  1  0  0  0  0
 60 61  1  0  0  0  0
 61 62  1  0  0  0  0
 62 63  1  0  0  0  0
 63 64  1  0  0  0  0
 64 65  1  0  0  0  0
 65 66  1  0  0  0  0
 66 67  1  0  0  0  0
 67 68  1  0  0  0  0
 68 69  1  0  0  0  0
 66 70  1  0  0  0  0
 70 71  1  0  0  0  0
 63 72  1  0  0  0  0
 72 73  1  0  0  0  0
 59 74  1  0  0  0  0
 74 75  2  0  0  0  0
 75 76  1  0  0  0  0
 76 77  1  0  0  0  0
 77 78  1  0  0  0  0
 78 79  1  0  0  0  0
 76 80  2  0  0  0  0
 80 81  1  0  0  0  0
 80 82  1  0  0  0  0
 82 83  2  0  0  0  0
 83 84  1  0  0  0  0
 84 85  2  0  0  0  0
 84 86  1  0  0  0  0
 86 87  2  0  0  0  0
 87 88  1  0  0  0  0
 88 89  1  0  0  0  0
 89 90  2  0  0  0  0
 90 91  1  0  0  0  0
 91 92  2  0  0  0  0
 92 93  1  0  0  0  0
 93 94  3  0  0  0  0
 92 95  1  0  0  0  0
 95 96  3  0  0  0  0
 13  2  1  0  0  0  0
 26 19  1  0  0  0  0
 69 27  1  0  0  0  0
 81 74  1  0  0  0  0
 91 83  1  0  0  0  0
 11  5  1  0  0  0  0
 36 29  1  0  0  0  0
 68 37  2  0  0  0  0
 90 86  1  0  0  0  0
 67 39  2  0  0  0  0
 65 40  2  0  0  0  0
 45 41  2  0  0  0  0
 64 46  2  0  0  0  0
 62 47  2  0  0  0  0
 61 49  2  0  0  0  0
 58 51  1  0  0  0  0
  1 97  1  0  0  0  0
  7 98  1  0  0  0  0
  8 99  1  0  0  0  0
 20100  1  0  0  0  0
 23101  1  0  0  0  0
 23102  1  0  0  0  0
 24103  1  0  0  0  0
 24104  1  0  0  0  0
 24105  1  0  0  0  0
 30106  1  0  0  0  0
 31107  1  0  0  0  0
 32108  1  0  0  0  0
 34109  1  0  0  0  0
 34110  1  0  0  0  0
 35111  1  0  0  0  0
 35112  1  0  0  0  0
 35113  1  0  0  0  0
 36114  1  0  0  0  0
 52115  1  0  0  0  0
 53116  1  0  0  0  0
 54117  1  0  0  0  0
 56118  1  0  0  0  0
 56119  1  0  0  0  0
 57120  1  0  0  0  0
 57121  1  0  0  0  0
 57122  1  0  0  0  0
 58123  1  0  0  0  0
 70124  1  0  0  0  0
 70125  1  0  0  0  0
 71126  1  0  0  0  0
 71127  1  0  0  0  0
 71128  1  0  0  0  0
 72129  1  0  0  0  0
 72130  1  0  0  0  0
 73131  1  0  0  0  0
 73132  1  0  0  0  0
 73133  1  0  0  0  0
 75134  1  0  0  0  0
 78135  1  0  0  0  0
 78136  1  0  0  0  0
 79137  1  0  0  0  0
 79138  1  0  0  0  0
 79139  1  0  0  0  0
 82140  1  0  0  0  0
 87141  1  0  0  0  0
 89142  1  0  0  0  0
M  END
