
  xtb     02052215593D
 energy: -291.463530221373 gnorm: 0.000315845467 xtb: 6.4.1 (unknown)
172189  0     0  0            999 V2000
    8.9566   -7.8529    1.7825 C   0  0  0  0  0  0  0  0  0  0  0  0
    8.4272   -9.1116    1.6186 C   0  0  0  0  0  0  0  0  0  0  0  0
    7.1115   -9.4052    1.0488 C   0  0  0  0  0  0  0  0  0  0  0  0
    6.3100   -8.6147    0.5857 O   0  0  0  0  0  0  0  0  0  0  0  0
    6.9429  -10.8701    1.1478 C   0  0  0  0  0  0  0  0  0  0  0  0
    8.0978  -11.4321    1.7229 C   0  0  0  0  0  0  0  0  0  0  0  0
    8.1716  -12.8007    1.9254 C   0  0  0  0  0  0  0  0  0  0  0  0
    7.0919  -13.5875    1.5504 C   0  0  0  0  0  0  0  0  0  0  0  0
    5.9575  -13.0286    0.9832 C   0  0  0  0  0  0  0  0  0  0  0  0
    4.5210  -14.1546    0.4955 Br  0  0  0  0  0  0  0  0  0  0  0  0
    5.8614  -11.6487    0.7698 C   0  0  0  0  0  0  0  0  0  0  0  0
    4.4624  -10.9511    0.0725 Cl  0  0  0  0  0  0  0  0  0  0  0  0
    9.0492  -10.3573    2.0103 C   0  0  0  0  0  0  0  0  0  0  0  0
   10.3015  -10.5381    2.5403 C   0  0  0  0  0  0  0  0  0  0  0  0
   11.2400   -9.5181    2.8024 C   0  0  0  0  0  0  0  0  0  0  0  0
   12.0630   -8.7527    3.0402 N   0  0  0  0  0  0  0  0  0  0  0  0
   10.8408  -11.7934    2.8915 C   0  0  0  0  0  0  0  0  0  0  0  0
   11.3400  -12.7806    3.1988 N   0  0  0  0  0  0  0  0  0  0  0  0
    8.4248   -6.6007    1.4567 C   0  0  0  0  0  0  0  0  0  0  0  0
    9.1053   -5.4102    1.7195 C   0  0  0  0  0  0  0  0  0  0  0  0
    8.4239   -4.2681    1.3397 C   0  0  0  0  0  0  0  0  0  0  0  0
    9.1298   -2.6573    1.5415 S   0  0  0  0  0  0  0  0  0  0  0  0
    9.3413   -2.1962   -0.2203 C   0  0  0  0  0  0  0  0  0  0  0  0
   10.3280   -3.1043   -0.9248 C   0  0  0  0  0  0  0  0  0  0  0  0
    7.1739   -4.5497    0.7780 C   0  0  0  0  0  0  0  0  0  0  0  0
    6.8879   -6.2581    0.6953 S   0  0  0  0  0  0  0  0  0  0  0  0
    6.1649   -3.6569    0.3437 C   0  0  0  0  0  0  0  0  0  0  0  0
    6.0191   -2.3087    0.6150 C   0  0  0  0  0  0  0  0  0  0  0  0
    4.8436   -1.7964    0.0745 C   0  0  0  0  0  0  0  0  0  0  0  0
    4.0902   -0.2277    0.1143 S   0  0  0  0  0  0  0  0  0  0  0  0
    2.7593   -0.8652   -0.7916 C   0  0  0  0  0  0  0  0  0  0  0  0
    1.5084   -0.3524   -1.2592 C   0  0  0  0  0  0  0  0  0  0  0  0
    0.9246    0.9037   -1.1200 C   0  0  0  0  0  0  0  0  0  0  0  0
   -0.3453    1.0655   -1.6219 C   0  0  0  0  0  0  0  0  0  0  0  0
   -1.2032    2.3214   -1.6378 C   0  0  0  0  0  0  0  0  0  0  0  0
   -0.5041    3.2967   -2.5713 C   0  0  0  0  0  0  0  0  0  0  0  0
    0.5396    4.0787   -2.0910 C   0  0  0  0  0  0  0  0  0  0  0  0
    1.2225    4.9336   -2.9343 C   0  0  0  0  0  0  0  0  0  0  0  0
    0.8900    5.0255   -4.2799 C   0  0  0  0  0  0  0  0  0  0  0  0
    1.6028    5.9859   -5.1875 C   0  0  0  0  0  0  0  0  0  0  0  0
    0.8672    7.3267   -5.2329 C   0  0  0  0  0  0  0  0  0  0  0  0
   -0.1509    4.2400   -4.7552 C   0  0  0  0  0  0  0  0  0  0  0  0
   -0.8381    3.3829   -3.9150 C   0  0  0  0  0  0  0  0  0  0  0  0
   -1.5326    2.9406   -0.2961 C   0  0  0  0  0  0  0  0  0  0  0  0
   -1.9186    4.2752   -0.2345 C   0  0  0  0  0  0  0  0  0  0  0  0
   -2.3671    4.8234    0.9500 C   0  0  0  0  0  0  0  0  0  0  0  0
   -2.4426    4.0551    2.1055 C   0  0  0  0  0  0  0  0  0  0  0  0
   -2.9998    4.6517    3.3658 C   0  0  0  0  0  0  0  0  0  0  0  0
   -4.5229    4.7670    3.2723 C   0  0  0  0  0  0  0  0  0  0  0  0
   -2.0411    2.7282    2.0435 C   0  0  0  0  0  0  0  0  0  0  0  0
   -1.5959    2.1720    0.8563 C   0  0  0  0  0  0  0  0  0  0  0  0
   -2.4850    1.7740   -2.2060 C   0  0  0  0  0  0  0  0  0  0  0  0
   -2.3292    0.4646   -2.5888 C   0  0  0  0  0  0  0  0  0  0  0  0
   -1.0152   -0.0062   -2.2594 C   0  0  0  0  0  0  0  0  0  0  0  0
   -0.4224   -1.2531   -2.4212 C   0  0  0  0  0  0  0  0  0  0  0  0
    0.8492   -1.4142   -1.9201 C   0  0  0  0  0  0  0  0  0  0  0  0
    1.7080   -2.6672   -1.9288 C   0  0  0  0  0  0  0  0  0  0  0  0
    0.9371   -3.8117   -1.3024 C   0  0  0  0  0  0  0  0  0  0  0  0
    0.1024   -4.5972   -2.0877 C   0  0  0  0  0  0  0  0  0  0  0  0
   -0.6306   -5.6226   -1.5226 C   0  0  0  0  0  0  0  0  0  0  0  0
   -0.5512   -5.8915   -0.1621 C   0  0  0  0  0  0  0  0  0  0  0  0
   -1.3797   -6.9817    0.4535 C   0  0  0  0  0  0  0  0  0  0  0  0
   -2.7524   -6.4423    0.8607 C   0  0  0  0  0  0  0  0  0  0  0  0
    0.2745   -5.0957    0.6197 C   0  0  0  0  0  0  0  0  0  0  0  0
    1.0073   -4.0653    0.0597 C   0  0  0  0  0  0  0  0  0  0  0  0
    2.2343   -3.0349   -3.3066 C   0  0  0  0  0  0  0  0  0  0  0  0
    2.1521   -2.1646   -4.3832 C   0  0  0  0  0  0  0  0  0  0  0  0
    2.6814   -2.5216   -5.6109 C   0  0  0  0  0  0  0  0  0  0  0  0
    3.3101   -3.7456   -5.7912 C   0  0  0  0  0  0  0  0  0  0  0  0
    3.9182   -4.1121   -7.1144 C   0  0  0  0  0  0  0  0  0  0  0  0
    5.3829   -3.6734   -7.1705 C   0  0  0  0  0  0  0  0  0  0  0  0
    3.4052   -4.6050   -4.7034 C   0  0  0  0  0  0  0  0  0  0  0  0
    2.8760   -4.2562   -3.4765 C   0  0  0  0  0  0  0  0  0  0  0  0
    2.8883   -2.2035   -1.1186 C   0  0  0  0  0  0  0  0  0  0  0  0
    4.0764   -2.7418   -0.6297 C   0  0  0  0  0  0  0  0  0  0  0  0
    4.8262   -4.2916   -0.6107 S   0  0  0  0  0  0  0  0  0  0  0  0
   -3.7827   -0.2605   -3.2206 S   0  0  0  0  0  0  0  0  0  0  0  0
   -4.6168    1.2177   -2.8935 C   0  0  0  0  0  0  0  0  0  0  0  0
   -6.2748    1.6618   -3.0077 S   0  0  0  0  0  0  0  0  0  0  0  0
   -5.9062    3.2074   -2.2432 C   0  0  0  0  0  0  0  0  0  0  0  0
   -4.5684    3.3546   -1.9812 C   0  0  0  0  0  0  0  0  0  0  0  0
   -3.8131    2.2267   -2.3431 C   0  0  0  0  0  0  0  0  0  0  0  0
   -6.9296    4.1131   -1.8594 C   0  0  0  0  0  0  0  0  0  0  0  0
   -8.2713    4.0942   -2.1916 C   0  0  0  0  0  0  0  0  0  0  0  0
   -8.9848    5.1192   -1.5853 C   0  0  0  0  0  0  0  0  0  0  0  0
  -10.7113    5.3464   -1.8627 S   0  0  0  0  0  0  0  0  0  0  0  0
  -10.6854    6.9461   -2.7797 C   0  0  0  0  0  0  0  0  0  0  0  0
  -12.1083    7.4081   -3.0113 C   0  0  0  0  0  0  0  0  0  0  0  0
   -8.2159    5.9124   -0.7136 C   0  0  0  0  0  0  0  0  0  0  0  0
   -6.5445    5.4021   -0.7649 S   0  0  0  0  0  0  0  0  0  0  0  0
   -8.7672    6.8714    0.1414 C   0  0  0  0  0  0  0  0  0  0  0  0
   -8.1730    7.6219    1.1288 C   0  0  0  0  0  0  0  0  0  0  0  0
   -6.7616    7.5646    1.5168 C   0  0  0  0  0  0  0  0  0  0  0  0
   -5.8525    6.9778    0.9512 O   0  0  0  0  0  0  0  0  0  0  0  0
   -6.6391    8.3586    2.7488 C   0  0  0  0  0  0  0  0  0  0  0  0
   -5.5389    8.5578    3.5307 C   0  0  0  0  0  0  0  0  0  0  0  0
   -5.6578    9.3514    4.6932 C   0  0  0  0  0  0  0  0  0  0  0  0
   -4.5558    9.5903    5.5389 C   0  0  0  0  0  0  0  0  0  0  0  0
   -4.6833   10.3611    6.6610 C   0  0  0  0  0  0  0  0  0  0  0  0
   -5.9345   10.9147    6.9637 C   0  0  0  0  0  0  0  0  0  0  0  0
   -6.0409   11.6705    8.0717 F   0  0  0  0  0  0  0  0  0  0  0  0
   -7.0356   10.7126    6.1785 C   0  0  0  0  0  0  0  0  0  0  0  0
   -6.9221    9.9227    5.0183 C   0  0  0  0  0  0  0  0  0  0  0  0
   -8.0443    9.6982    4.1854 C   0  0  0  0  0  0  0  0  0  0  0  0
   -7.9052    8.9271    3.0631 C   0  0  0  0  0  0  0  0  0  0  0  0
   -8.8594    8.5237    2.0315 C   0  0  0  0  0  0  0  0  0  0  0  0
  -10.1493    8.9797    1.9324 C   0  0  0  0  0  0  0  0  0  0  0  0
  -11.0479    8.6803    0.8894 C   0  0  0  0  0  0  0  0  0  0  0  0
  -11.8285    8.5145    0.0628 N   0  0  0  0  0  0  0  0  0  0  0  0
  -10.7443    9.8689    2.8513 C   0  0  0  0  0  0  0  0  0  0  0  0
  -11.2878   10.5878    3.5628 N   0  0  0  0  0  0  0  0  0  0  0  0
    9.9313   -7.7899    2.2509 H   0  0  0  0  0  0  0  0  0  0  0  0
    9.0378  -13.2657    2.3650 H   0  0  0  0  0  0  0  0  0  0  0  0
    7.1299  -14.6554    1.7014 H   0  0  0  0  0  0  0  0  0  0  0  0
   10.0793   -5.3874    2.1757 H   0  0  0  0  0  0  0  0  0  0  0  0
    9.7025   -1.1692   -0.1854 H   0  0  0  0  0  0  0  0  0  0  0  0
    8.3607   -2.2184   -0.6953 H   0  0  0  0  0  0  0  0  0  0  0  0
    9.9608   -4.1289   -0.9465 H   0  0  0  0  0  0  0  0  0  0  0  0
   10.4718   -2.7672   -1.9494 H   0  0  0  0  0  0  0  0  0  0  0  0
   11.2884   -3.0913   -0.4147 H   0  0  0  0  0  0  0  0  0  0  0  0
    6.7118   -1.7449    1.2125 H   0  0  0  0  0  0  0  0  0  0  0  0
    1.4481    1.7014   -0.6167 H   0  0  0  0  0  0  0  0  0  0  0  0
    0.8091    4.0287   -1.0461 H   0  0  0  0  0  0  0  0  0  0  0  0
    2.0288    5.5369   -2.5418 H   0  0  0  0  0  0  0  0  0  0  0  0
    1.6554    5.5709   -6.1962 H   0  0  0  0  0  0  0  0  0  0  0  0
    2.6219    6.1462   -4.8303 H   0  0  0  0  0  0  0  0  0  0  0  0
    1.3810    8.0205   -5.8941 H   0  0  0  0  0  0  0  0  0  0  0  0
   -0.1490    7.1890   -5.5957 H   0  0  0  0  0  0  0  0  0  0  0  0
    0.8184    7.7654   -4.2387 H   0  0  0  0  0  0  0  0  0  0  0  0
   -0.4270    4.2952   -5.7987 H   0  0  0  0  0  0  0  0  0  0  0  0
   -1.6410    2.7796   -4.3127 H   0  0  0  0  0  0  0  0  0  0  0  0
   -1.8673    4.8883   -1.1230 H   0  0  0  0  0  0  0  0  0  0  0  0
   -2.6795    5.8572    0.9741 H   0  0  0  0  0  0  0  0  0  0  0  0
   -2.7323    4.0315    4.2236 H   0  0  0  0  0  0  0  0  0  0  0  0
   -2.5733    5.6462    3.5188 H   0  0  0  0  0  0  0  0  0  0  0  0
   -4.9674    3.7818    3.1481 H   0  0  0  0  0  0  0  0  0  0  0  0
   -4.8069    5.3774    2.4180 H   0  0  0  0  0  0  0  0  0  0  0  0
   -4.9282    5.2181    4.1761 H   0  0  0  0  0  0  0  0  0  0  0  0
   -2.0872    2.1141    2.9318 H   0  0  0  0  0  0  0  0  0  0  0  0
   -1.3045    1.1316    0.8241 H   0  0  0  0  0  0  0  0  0  0  0  0
   -0.9484   -2.0588   -2.9095 H   0  0  0  0  0  0  0  0  0  0  0  0
    0.0380   -4.4141   -3.1507 H   0  0  0  0  0  0  0  0  0  0  0  0
   -1.2703   -6.2280   -2.1491 H   0  0  0  0  0  0  0  0  0  0  0  0
   -1.5113   -7.7956   -0.2623 H   0  0  0  0  0  0  0  0  0  0  0  0
   -0.8731   -7.3800    1.3347 H   0  0  0  0  0  0  0  0  0  0  0  0
   -3.2784   -6.0517   -0.0076 H   0  0  0  0  0  0  0  0  0  0  0  0
   -3.3544   -7.2306    1.3064 H   0  0  0  0  0  0  0  0  0  0  0  0
   -2.6431   -5.6370    1.5839 H   0  0  0  0  0  0  0  0  0  0  0  0
    0.3494   -5.2854    1.6811 H   0  0  0  0  0  0  0  0  0  0  0  0
    1.6396   -3.4576    0.6909 H   0  0  0  0  0  0  0  0  0  0  0  0
    1.6701   -1.2046   -4.2688 H   0  0  0  0  0  0  0  0  0  0  0  0
    2.6010   -1.8354   -6.4421 H   0  0  0  0  0  0  0  0  0  0  0  0
    3.8612   -5.1926   -7.2608 H   0  0  0  0  0  0  0  0  0  0  0  0
    3.3665   -3.6277   -7.9224 H   0  0  0  0  0  0  0  0  0  0  0  0
    5.8235   -3.9394   -8.1285 H   0  0  0  0  0  0  0  0  0  0  0  0
    5.9527   -4.1561   -6.3797 H   0  0  0  0  0  0  0  0  0  0  0  0
    5.4603   -2.5963   -7.0392 H   0  0  0  0  0  0  0  0  0  0  0  0
    3.8962   -5.5605   -4.8185 H   0  0  0  0  0  0  0  0  0  0  0  0
    2.9522   -4.9407   -2.6439 H   0  0  0  0  0  0  0  0  0  0  0  0
   -4.1619    4.2290   -1.5078 H   0  0  0  0  0  0  0  0  0  0  0  0
   -8.7140    3.3764   -2.8591 H   0  0  0  0  0  0  0  0  0  0  0  0
  -10.1656    6.7532   -3.7190 H   0  0  0  0  0  0  0  0  0  0  0  0
  -10.1261    7.6707   -2.1907 H   0  0  0  0  0  0  0  0  0  0  0  0
  -12.1026    8.3164   -3.6100 H   0  0  0  0  0  0  0  0  0  0  0  0
  -12.6773    6.6446   -3.5367 H   0  0  0  0  0  0  0  0  0  0  0  0
  -12.5914    7.6193   -2.0615 H   0  0  0  0  0  0  0  0  0  0  0  0
   -9.8426    6.9674    0.0381 H   0  0  0  0  0  0  0  0  0  0  0  0
   -4.5904    8.1142    3.2680 H   0  0  0  0  0  0  0  0  0  0  0  0
   -3.6021    9.1527    5.2845 H   0  0  0  0  0  0  0  0  0  0  0  0
   -3.8504   10.5547    7.3181 H   0  0  0  0  0  0  0  0  0  0  0  0
   -7.9832   11.1553    6.4429 H   0  0  0  0  0  0  0  0  0  0  0  0
   -8.9868   10.1408    4.4643 H   0  0  0  0  0  0  0  0  0  0  0  0
  1  2  2  0  0  0  0
  2  3  1  0  0  0  0
  3  4  2  0  0  0  0
  3  5  1  0  0  0  0
  5  6  2  0  0  0  0
  6  7  1  0  0  0  0
  7  8  2  0  0  0  0
  8  9  1  0  0  0  0
  9 10  1  0  0  0  0
  9 11  2  0  0  0  0
 11 12  1  0  0  0  0
  6 13  1  0  0  0  0
 13 14  2  0  0  0  0
 14 15  1  0  0  0  0
 15 16  3  0  0  0  0
 14 17  1  0  0  0  0
 17 18  3  0  0  0  0
  1 19  1  0  0  0  0
 19 20  2  0  0  0  0
 20 21  1  0  0  0  0
 21 22  1  0  0  0  0
 22 23  1  0  0  0  0
 23 24  1  0  0  0  0
 21 25  2  0  0  0  0
 25 26  1  0  0  0  0
 25 27  1  0  0  0  0
 27 28  2  0  0  0  0
 28 29  1  0  0  0  0
 29 30  1  0  0  0  0
 30 31  1  0  0  0  0
 31 32  1  0  0  0  0
 32 33  2  0  0  0  0
 33 34  1  0  0  0  0
 34 35  1  0  0  0  0
 35 36  1  0  0  0  0
 36 37  2  0  0  0  0
 37 38  1  0  0  0  0
 38 39  2  0  0  0  0
 39 40  1  0  0  0  0
 40 41  1  0  0  0  0
 39 42  1  0  0  0  0
 42 43  2  0  0  0  0
 35 44  1  0  0  0  0
 44 45  2  0  0  0  0
 45 46  1  0  0  0  0
 46 47  2  0  0  0  0
 47 48  1  0  0  0  0
 48 49  1  0  0  0  0
 47 50  1  0  0  0  0
 50 51  2  0  0  0  0
 35 52  1  0  0  0  0
 52 53  2  0  0  0  0
 53 54  1  0  0  0  0
 54 55  1  0  0  0  0
 55 56  2  0  0  0  0
 56 57  1  0  0  0  0
 57 58  1  0  0  0  0
 58 59  2  0  0  0  0
 59 60  1  0  0  0  0
 60 61  2  0  0  0  0
 61 62  1  0  0  0  0
 62 63  1  0  0  0  0
 61 64  1  0  0  0  0
 64 65  2  0  0  0  0
 57 66  1  0  0  0  0
 66 67  2  0  0  0  0
 67 68  1  0  0  0  0
 68 69  2  0  0  0  0
 69 70  1  0  0  0  0
 70 71  1  0  0  0  0
 69 72  1  0  0  0  0
 72 73  2  0  0  0  0
 57 74  1  0  0  0  0
 74 75  1  0  0  0  0
 75 76  1  0  0  0  0
 53 77  1  0  0  0  0
 77 78  1  0  0  0  0
 78 79  1  0  0  0  0
 79 80  1  0  0  0  0
 80 81  2  0  0  0  0
 81 82  1  0  0  0  0
 80 83  1  0  0  0  0
 83 84  2  0  0  0  0
 84 85  1  0  0  0  0
 85 86  1  0  0  0  0
 86 87  1  0  0  0  0
 87 88  1  0  0  0  0
 85 89  2  0  0  0  0
 89 90  1  0  0  0  0
 89 91  1  0  0  0  0
 91 92  2  0  0  0  0
 92 93  1  0  0  0  0
 93 94  2  0  0  0  0
 93 95  1  0  0  0  0
 95 96  2  0  0  0  0
 96 97  1  0  0  0  0
 97 98  2  0  0  0  0
 98 99  1  0  0  0  0
 99100  2  0  0  0  0
100101  1  0  0  0  0
100102  1  0  0  0  0
102103  2  0  0  0  0
103104  1  0  0  0  0
104105  2  0  0  0  0
105106  1  0  0  0  0
106107  2  0  0  0  0
107108  1  0  0  0  0
108109  3  0  0  0  0
107110  1  0  0  0  0
110111  3  0  0  0  0
 13  2  1  0  0  0  0
 26 19  1  0  0  0  0
 76 27  1  0  0  0  0
 82 78  2  0  0  0  0
 90 83  1  0  0  0  0
106 92  1  0  0  0  0
 11  5  1  0  0  0  0
 75 29  2  0  0  0  0
105 95  1  0  0  0  0
 74 31  2  0  0  0  0
103 97  1  0  0  0  0
 56 32  1  0  0  0  0
 65 58  1  0  0  0  0
 73 66  1  0  0  0  0
 54 34  2  0  0  0  0
 43 36  1  0  0  0  0
 51 44  1  0  0  0  0
 82 52  1  0  0  0  0
  1112  1  0  0  0  0
  7113  1  0  0  0  0
  8114  1  0  0  0  0
 20115  1  0  0  0  0
 23116  1  0  0  0  0
 23117  1  0  0  0  0
 24118  1  0  0  0  0
 24119  1  0  0  0  0
 24120  1  0  0  0  0
 28121  1  0  0  0  0
 33122  1  0  0  0  0
 37123  1  0  0  0  0
 38124  1  0  0  0  0
 40125  1  0  0  0  0
 40126  1  0  0  0  0
 41127  1  0  0  0  0
 41128  1  0  0  0  0
 41129  1  0  0  0  0
 42130  1  0  0  0  0
 43131  1  0  0  0  0
 45132  1  0  0  0  0
 46133  1  0  0  0  0
 48134  1  0  0  0  0
 48135  1  0  0  0  0
 49136  1  0  0  0  0
 49137  1  0  0  0  0
 49138  1  0  0  0  0
 50139  1  0  0  0  0
 51140  1  0  0  0  0
 55141  1  0  0  0  0
 59142  1  0  0  0  0
 60143  1  0  0  0  0
 62144  1  0  0  0  0
 62145  1  0  0  0  0
 63146  1  0  0  0  0
 63147  1  0  0  0  0
 63148  1  0  0  0  0
 64149  1  0  0  0  0
 65150  1  0  0  0  0
 67151  1  0  0  0  0
 68152  1  0  0  0  0
 70153  1  0  0  0  0
 70154  1  0  0  0  0
 71155  1  0  0  0  0
 71156  1  0  0  0  0
 71157  1  0  0  0  0
 72158  1  0  0  0  0
 73159  1  0  0  0  0
 81160  1  0  0  0  0
 84161  1  0  0  0  0
 87162  1  0  0  0  0
 87163  1  0  0  0  0
 88164  1  0  0  0  0
 88165  1  0  0  0  0
 88166  1  0  0  0  0
 91167  1  0  0  0  0
 96168  1  0  0  0  0
 98169  1  0  0  0  0
 99170  1  0  0  0  0
102171  1  0  0  0  0
104172  1  0  0  0  0
M  END
