137

C         -3.79890        3.14760        9.83050
C         -3.72530        4.13830       10.77910
C         -4.27400        5.50690       10.70930
O         -5.03050        5.98390        9.88930
C         -3.67970        6.23140       11.85610
C         -2.87590        5.35490       12.60590
C         -2.20250        5.81820       13.72480
C         -2.34420        7.15140       14.08060
C         -3.14160        8.01130       13.34140
Br        -3.29520        9.81680       13.87960
C         -3.82790        7.56350       12.20720
Cl        -4.80840        8.62660       11.29200
C         -2.92900        4.03240       11.98650
C         -2.37030        2.89710       12.51580
C         -1.61430        2.86860       13.70670
N         -0.98610        2.77520       14.66300
C         -2.48910        1.59270       11.98980
N         -2.54700        0.49730       11.64900
C         -4.53070        3.06600        8.63440
C         -5.55360        3.83190        8.10360
C         -5.98560        3.41170        6.84650
S         -7.16140        4.27790        5.87270
C         -7.01620        5.99200        6.49460
C         -5.64690        6.59020        6.24700
C         -5.31940        2.27360        6.38810
S         -4.14480        1.74450        7.54860
C         -5.39800        1.57840        5.14500
C         -6.46660        1.19960        4.35640
C         -7.91520        1.36100        4.68560
C         -8.66030        2.17930        3.63220
C         -6.02570        0.50570        3.21280
S         -6.88140       -0.20310        1.86120
C         -5.37070       -0.70610        1.18940
C         -4.87380       -1.30450        0.02020
C         -5.52110       -1.66140       -1.18780
C         -4.70870       -2.01430       -2.32640
N         -5.38070       -2.24730       -3.43660
Se        -7.10180       -2.04220       -3.11090
N         -6.81860       -1.63170       -1.41980
C         -3.30840       -2.12580       -2.15040
C         -2.28430       -2.50340       -3.03700
S         -2.06940       -2.89200       -4.70900
C         -0.36140       -3.12860       -4.41360
C          0.71590       -3.44560       -5.26240
C          0.51780       -3.80880       -6.69730
C         -0.08000       -5.21270       -6.81160
C          1.89710       -3.50190       -4.55830
S          1.68550       -3.17780       -2.84290
C         -0.00270       -2.93230       -3.07890
C         -1.10200       -2.56610       -2.29410
N         -1.34560       -2.22720       -0.98800
C         -2.69050       -1.91780       -0.88760
C         -3.46050       -1.36090        0.16380
N         -3.11210       -0.77010        1.36150
C         -4.26650       -0.36970        1.98010
C         -4.64140        0.33160        3.13130
S         -3.85090        1.03450        4.49160
C         -1.83060       -0.27800        1.81570
C         -1.34540       -1.00370        3.07080
C         -0.46250       -2.72950        0.04340
C         -0.43390       -4.25790        0.05010
C          3.24690       -3.72390       -5.02830
C          4.10800       -4.58890       -4.37250
F          3.65690       -5.33060       -3.34590
C          5.44730       -4.73110       -4.74350
F          6.21800       -5.57850       -4.04610
C          6.01420       -3.97520       -5.75490
C          5.14820       -3.10670       -6.48190
N          5.61920       -2.43560       -7.54310
C          4.84580       -1.58970       -8.17470
C          5.46610       -0.85980       -9.32630
C          6.09560        0.44650       -8.83560
C          3.50600       -1.37810       -7.73860
N          3.01050       -2.08820       -6.75770
C          3.78590       -2.97630       -6.11510
C          2.55900       -0.43000       -8.40820
C          1.84180       -1.12440       -9.56960
C          7.40340       -4.09080       -6.10610
C          8.17480       -3.02070       -6.42370
C          7.83070       -1.62210       -6.04970
O          6.87060       -1.23360       -5.42590
C          8.99760       -0.81160       -6.46860
C          9.99070       -1.64890       -7.01050
C         11.19310       -1.10870       -7.44210
C         11.38330        0.26030       -7.33520
C         10.40070        1.08330       -6.80430
Br        10.71610        2.94260       -6.69570
C          9.18650        0.55690       -6.35050
Cl         7.97580        1.56780       -5.68210
C          9.50360       -3.02520       -7.00610
C         10.15420       -4.10540       -7.53700
C         11.43610       -4.05180       -8.12550
N         12.47740       -4.07120       -8.60750
C          9.62750       -5.41480       -7.59520
N          9.26000       -6.49630       -7.70320
H         -3.16350        2.28580        9.99690
H         -1.57250        5.17630       14.31690
H         -1.82640        7.53260       14.94720
H         -5.95300        4.67930        8.62600
H         -7.78440        6.52220        5.93120
H         -7.28270        6.00500        7.54980
H         -5.39570        6.54700        5.18940
H         -4.88310        6.06020        6.81190
H         -5.64360        7.62990        6.56620
H         -8.02310        1.82750        5.66390
H         -8.35880        0.36200        4.73250
H         -9.70360        2.27930        3.91780
H         -8.61210        1.69200        2.66230
H         -8.22760        3.17210        3.54900
H         -0.16990       -3.08730       -7.14340
H          1.46530       -3.76620       -7.23010
H         -1.03770       -5.26220       -6.29950
H          0.58920       -5.94730       -6.36890
H         -0.23340       -5.46920       -7.85660
H         -1.11260       -0.35360        0.99860
H         -1.94960        0.78510        2.05470
H         -0.32950       -0.69680        3.30240
H         -1.36680       -2.08410        2.94580
H         -1.97960       -0.75470        3.91710
H          0.54310       -2.34090       -0.14580
H         -0.80710       -2.38770        1.01220
H          0.19900       -4.60520        0.86190
H         -0.03730       -4.64640       -0.88350
H         -1.43770       -4.65230        0.19440
H          6.24680       -1.49360       -9.74930
H          4.72570       -0.64740      -10.09650
H          5.34540        1.10340       -8.40200
H          6.57700        0.96510       -9.66080
H          6.84060        0.23370       -8.07460
H          3.08820        0.45030       -8.77140
H          1.81730       -0.12050       -7.67130
H          1.27730       -1.97710       -9.20200
H          2.55090       -1.47820      -10.31500
H          1.15380       -0.43210      -10.04800
H          7.81650       -5.09110       -6.11590
H         11.97740       -1.72330       -7.85080
H         12.31080        0.70080       -7.66710
