
  xtb     02052214273D
 energy: -264.167380133070 gnorm: 0.000459585393 xtb: 6.4.1 (unknown)
145160  0     0  0            999 V2000
   -5.3424    9.9543    1.9784 C   0  0  0  0  0  0  0  0  0  0  0  0
   -6.5727   10.1922    2.5482 C   0  0  0  0  0  0  0  0  0  0  0  0
   -7.5903    9.1763    2.8203 C   0  0  0  0  0  0  0  0  0  0  0  0
   -7.5068    7.9720    2.6624 O   0  0  0  0  0  0  0  0  0  0  0  0
   -8.7690    9.9092    3.3280 C   0  0  0  0  0  0  0  0  0  0  0  0
   -8.4742   11.2836    3.3855 C   0  0  0  0  0  0  0  0  0  0  0  0
   -9.4372   12.1767    3.8264 C   0  0  0  0  0  0  0  0  0  0  0  0
  -10.6787   11.6838    4.2031 C   0  0  0  0  0  0  0  0  0  0  0  0
  -10.9623   10.3281    4.1475 C   0  0  0  0  0  0  0  0  0  0  0  0
  -12.6715    9.7190    4.6751 Br  0  0  0  0  0  0  0  0  0  0  0  0
  -10.0034    9.4095    3.7063 C   0  0  0  0  0  0  0  0  0  0  0  0
  -10.3377    7.7341    3.6388 Cl  0  0  0  0  0  0  0  0  0  0  0  0
   -7.0979   11.4846    2.9285 C   0  0  0  0  0  0  0  0  0  0  0  0
   -6.4453   12.6917    2.9117 C   0  0  0  0  0  0  0  0  0  0  0  0
   -5.1054   12.8957    2.5217 C   0  0  0  0  0  0  0  0  0  0  0  0
   -4.0223   13.1474    2.2328 N   0  0  0  0  0  0  0  0  0  0  0  0
   -7.0276   13.9130    3.3099 C   0  0  0  0  0  0  0  0  0  0  0  0
   -7.4390   14.9393    3.6187 N   0  0  0  0  0  0  0  0  0  0  0  0
   -4.7502    8.7506    1.5862 C   0  0  0  0  0  0  0  0  0  0  0  0
   -3.4966    8.6933    0.9740 C   0  0  0  0  0  0  0  0  0  0  0  0
   -3.0753    7.4121    0.6780 C   0  0  0  0  0  0  0  0  0  0  0  0
   -1.5142    7.0778   -0.0895 S   0  0  0  0  0  0  0  0  0  0  0  0
   -0.4620    6.9510    1.4090 C   0  0  0  0  0  0  0  0  0  0  0  0
   -0.2850    8.2802    2.1121 C   0  0  0  0  0  0  0  0  0  0  0  0
   -4.0060    6.4276    1.0352 C   0  0  0  0  0  0  0  0  0  0  0  0
   -5.4099    7.1379    1.7660 S   0  0  0  0  0  0  0  0  0  0  0  0
   -3.8804    5.0287    0.8902 C   0  0  0  0  0  0  0  0  0  0  0  0
   -4.8114    4.0505    1.2297 C   0  0  0  0  0  0  0  0  0  0  0  0
   -6.1901    4.2824    1.6775 C   0  0  0  0  0  0  0  0  0  0  0  0
   -6.6013    3.8164    2.9206 C   0  0  0  0  0  0  0  0  0  0  0  0
   -7.9099    4.0060    3.3242 C   0  0  0  0  0  0  0  0  0  0  0  0
   -8.8095    4.6479    2.4935 C   0  0  0  0  0  0  0  0  0  0  0  0
   -8.4165    5.1113    1.2440 C   0  0  0  0  0  0  0  0  0  0  0  0
   -9.3999    5.7731    0.3238 C   0  0  0  0  0  0  0  0  0  0  0  0
  -10.0614    4.7409   -0.5910 C   0  0  0  0  0  0  0  0  0  0  0  0
   -7.1057    4.9129    0.8414 C   0  0  0  0  0  0  0  0  0  0  0  0
   -4.2869    2.7626    1.0693 C   0  0  0  0  0  0  0  0  0  0  0  0
   -4.9676    1.1749    1.3436 S   0  0  0  0  0  0  0  0  0  0  0  0
   -3.4762    0.4794    0.8077 C   0  0  0  0  0  0  0  0  0  0  0  0
   -2.9115   -0.7864    0.5886 C   0  0  0  0  0  0  0  0  0  0  0  0
   -3.4720   -2.0796    0.6759 C   0  0  0  0  0  0  0  0  0  0  0  0
   -2.6866   -3.2059    0.2618 C   0  0  0  0  0  0  0  0  0  0  0  0
   -3.3556   -4.3457    0.3413 N   0  0  0  0  0  0  0  0  0  0  0  0
   -4.8433   -4.0295    0.8945 S   0  0  0  0  0  0  0  0  0  0  0  0
   -4.6929   -2.4262    1.0530 N   0  0  0  0  0  0  0  0  0  0  0  0
   -1.3385   -2.9987   -0.1033 C   0  0  0  0  0  0  0  0  0  0  0  0
   -0.3129   -3.9087   -0.4006 C   0  0  0  0  0  0  0  0  0  0  0  0
   -0.0887   -5.6158   -0.5726 S   0  0  0  0  0  0  0  0  0  0  0  0
    1.6204   -5.3387   -0.8005 C   0  0  0  0  0  0  0  0  0  0  0  0
    2.6930   -6.2142   -1.0423 C   0  0  0  0  0  0  0  0  0  0  0  0
    2.5269   -7.6653   -1.1704 C   0  0  0  0  0  0  0  0  0  0  0  0
    1.9105   -8.3823   -0.1510 C   0  0  0  0  0  0  0  0  0  0  0  0
    1.7549   -9.7505   -0.2741 C   0  0  0  0  0  0  0  0  0  0  0  0
    2.2066  -10.4052   -1.4057 C   0  0  0  0  0  0  0  0  0  0  0  0
    2.8088   -9.7006   -2.4417 C   0  0  0  0  0  0  0  0  0  0  0  0
    3.2596  -10.4048   -3.6878 C   0  0  0  0  0  0  0  0  0  0  0  0
    2.1115  -10.5029   -4.6942 C   0  0  0  0  0  0  0  0  0  0  0  0
    2.9520   -8.3273   -2.3178 C   0  0  0  0  0  0  0  0  0  0  0  0
    3.8899   -5.5270   -1.1565 C   0  0  0  0  0  0  0  0  0  0  0  0
    3.6752   -3.7846   -0.9918 S   0  0  0  0  0  0  0  0  0  0  0  0
    1.9772   -3.9872   -0.7513 C   0  0  0  0  0  0  0  0  0  0  0  0
    0.8659   -3.1667   -0.5301 C   0  0  0  0  0  0  0  0  0  0  0  0
    0.6023   -1.8355   -0.3465 N   0  0  0  0  0  0  0  0  0  0  0  0
   -0.7525   -1.7003   -0.1042 C   0  0  0  0  0  0  0  0  0  0  0  0
   -1.5822   -0.5724    0.1244 C   0  0  0  0  0  0  0  0  0  0  0  0
   -1.3614    0.7951    0.0315 N   0  0  0  0  0  0  0  0  0  0  0  0
   -2.5114    1.4230    0.4397 C   0  0  0  0  0  0  0  0  0  0  0  0
   -2.9739    2.7333    0.5856 C   0  0  0  0  0  0  0  0  0  0  0  0
   -2.3637    4.3272    0.3202 S   0  0  0  0  0  0  0  0  0  0  0  0
   -0.4779    1.5175   -0.8602 C   0  0  0  0  0  0  0  0  0  0  0  0
   -0.8648    1.2836   -2.3189 C   0  0  0  0  0  0  0  0  0  0  0  0
    1.6908   -0.9174   -0.1032 C   0  0  0  0  0  0  0  0  0  0  0  0
    2.3688   -0.4724   -1.3981 C   0  0  0  0  0  0  0  0  0  0  0  0
    5.2118   -6.0212   -1.3126 C   0  0  0  0  0  0  0  0  0  0  0  0
    6.3382   -5.2539   -1.5271 C   0  0  0  0  0  0  0  0  0  0  0  0
    7.5321   -5.9831   -1.5914 C   0  0  0  0  0  0  0  0  0  0  0  0
    9.0656   -5.2978   -2.0098 S   0  0  0  0  0  0  0  0  0  0  0  0
    8.5695   -3.7152   -2.8117 C   0  0  0  0  0  0  0  0  0  0  0  0
    9.7809   -3.1467   -3.5253 C   0  0  0  0  0  0  0  0  0  0  0  0
    7.3298   -7.3620   -1.4057 C   0  0  0  0  0  0  0  0  0  0  0  0
    5.6174   -7.7009   -1.1895 S   0  0  0  0  0  0  0  0  0  0  0  0
    8.1649   -8.4762   -1.4958 C   0  0  0  0  0  0  0  0  0  0  0  0
    9.5317   -8.5493   -1.3312 C   0  0  0  0  0  0  0  0  0  0  0  0
   10.3351   -7.5715   -0.6013 C   0  0  0  0  0  0  0  0  0  0  0  0
    9.9402   -6.5476   -0.0691 O   0  0  0  0  0  0  0  0  0  0  0  0
   11.7021   -8.1364   -0.5439 C   0  0  0  0  0  0  0  0  0  0  0  0
   11.7089   -9.4012   -1.1615 C   0  0  0  0  0  0  0  0  0  0  0  0
   12.8762  -10.1447   -1.2085 C   0  0  0  0  0  0  0  0  0  0  0  0
   14.0263   -9.6124   -0.6428 C   0  0  0  0  0  0  0  0  0  0  0  0
   14.0169   -8.3633   -0.0430 C   0  0  0  0  0  0  0  0  0  0  0  0
   15.6186   -7.6873    0.6989 Br  0  0  0  0  0  0  0  0  0  0  0  0
   12.8459   -7.5999    0.0208 C   0  0  0  0  0  0  0  0  0  0  0  0
   12.8313   -6.0552    0.7594 Cl  0  0  0  0  0  0  0  0  0  0  0  0
   10.3659   -9.6757   -1.6734 C   0  0  0  0  0  0  0  0  0  0  0  0
   10.0040  -10.7720   -2.4153 C   0  0  0  0  0  0  0  0  0  0  0  0
   10.8706  -11.8391   -2.7274 C   0  0  0  0  0  0  0  0  0  0  0  0
   11.5247  -12.7402   -3.0075 N   0  0  0  0  0  0  0  0  0  0  0  0
    8.7315  -10.9730   -2.9897 C   0  0  0  0  0  0  0  0  0  0  0  0
    7.7315  -11.1944   -3.5101 N   0  0  0  0  0  0  0  0  0  0  0  0
   -4.7207   10.8196    1.7824 H   0  0  0  0  0  0  0  0  0  0  0  0
   -9.2496   13.2357    3.8815 H   0  0  0  0  0  0  0  0  0  0  0  0
  -11.4424   12.3642    4.5472 H   0  0  0  0  0  0  0  0  0  0  0  0
   -2.9191    9.5723    0.7477 H   0  0  0  0  0  0  0  0  0  0  0  0
   -0.9112    6.2033    2.0625 H   0  0  0  0  0  0  0  0  0  0  0  0
    0.4868    6.5735    1.0305 H   0  0  0  0  0  0  0  0  0  0  0  0
   -1.2361    8.6459    2.4941 H   0  0  0  0  0  0  0  0  0  0  0  0
    0.3993    8.1629    2.9500 H   0  0  0  0  0  0  0  0  0  0  0  0
    0.1245    9.0200    1.4285 H   0  0  0  0  0  0  0  0  0  0  0  0
   -5.8933    3.3221    3.5693 H   0  0  0  0  0  0  0  0  0  0  0  0
   -8.2279    3.6503    4.2931 H   0  0  0  0  0  0  0  0  0  0  0  0
   -9.8305    4.7910    2.8170 H   0  0  0  0  0  0  0  0  0  0  0  0
  -10.1686    6.2797    0.9097 H   0  0  0  0  0  0  0  0  0  0  0  0
   -8.8872    6.5219   -0.2836 H   0  0  0  0  0  0  0  0  0  0  0  0
  -10.5896    3.9956   -0.0004 H   0  0  0  0  0  0  0  0  0  0  0  0
   -9.3116    4.2313   -1.1921 H   0  0  0  0  0  0  0  0  0  0  0  0
  -10.7725    5.2235   -1.2576 H   0  0  0  0  0  0  0  0  0  0  0  0
   -6.7860    5.2542   -0.1337 H   0  0  0  0  0  0  0  0  0  0  0  0
    1.5726   -7.8698    0.7372 H   0  0  0  0  0  0  0  0  0  0  0  0
    1.2823  -10.3085    0.5204 H   0  0  0  0  0  0  0  0  0  0  0  0
    2.0919  -11.4762   -1.4890 H   0  0  0  0  0  0  0  0  0  0  0  0
    3.6063  -11.4087   -3.4374 H   0  0  0  0  0  0  0  0  0  0  0  0
    4.0924   -9.8626   -4.1388 H   0  0  0  0  0  0  0  0  0  0  0  0
    2.4411  -11.0138   -5.5954 H   0  0  0  0  0  0  0  0  0  0  0  0
    1.2780  -11.0555   -4.2662 H   0  0  0  0  0  0  0  0  0  0  0  0
    1.7588   -9.5103   -4.9659 H   0  0  0  0  0  0  0  0  0  0  0  0
    3.3972   -7.7609   -3.1239 H   0  0  0  0  0  0  0  0  0  0  0  0
    0.5603    1.2454   -0.6965 H   0  0  0  0  0  0  0  0  0  0  0  0
   -0.5873    2.5774   -0.6167 H   0  0  0  0  0  0  0  0  0  0  0  0
   -0.7931    0.2270   -2.5700 H   0  0  0  0  0  0  0  0  0  0  0  0
   -0.2071    1.8497   -2.9728 H   0  0  0  0  0  0  0  0  0  0  0  0
   -1.8882    1.6078   -2.4930 H   0  0  0  0  0  0  0  0  0  0  0  0
    1.3172   -0.0753    0.4802 H   0  0  0  0  0  0  0  0  0  0  0  0
    2.4308   -1.4397    0.5143 H   0  0  0  0  0  0  0  0  0  0  0  0
    3.1250    0.2767   -1.1799 H   0  0  0  0  0  0  0  0  0  0  0  0
    1.6523   -0.0584   -2.1018 H   0  0  0  0  0  0  0  0  0  0  0  0
    2.8550   -1.3219   -1.8704 H   0  0  0  0  0  0  0  0  0  0  0  0
    6.2798   -4.1845   -1.6189 H   0  0  0  0  0  0  0  0  0  0  0  0
    7.7631   -3.9303   -3.5114 H   0  0  0  0  0  0  0  0  0  0  0  0
    8.2236   -3.0326   -2.0360 H   0  0  0  0  0  0  0  0  0  0  0  0
   10.1305   -3.8353   -4.2906 H   0  0  0  0  0  0  0  0  0  0  0  0
   10.5906   -2.9757   -2.8202 H   0  0  0  0  0  0  0  0  0  0  0  0
    9.5243   -2.2007   -3.9972 H   0  0  0  0  0  0  0  0  0  0  0  0
    7.6412   -9.4036   -1.6951 H   0  0  0  0  0  0  0  0  0  0  0  0
   12.9121  -11.1188   -1.6669 H   0  0  0  0  0  0  0  0  0  0  0  0
   14.9467  -10.1750   -0.6680 H   0  0  0  0  0  0  0  0  0  0  0  0
  1  2  2  0  0  0  0
  2  3  1  0  0  0  0
  3  4  2  0  0  0  0
  3  5  1  0  0  0  0
  5  6  2  0  0  0  0
  6  7  1  0  0  0  0
  7  8  2  0  0  0  0
  8  9  1  0  0  0  0
  9 10  1  0  0  0  0
  9 11  2  0  0  0  0
 11 12  1  0  0  0  0
  6 13  1  0  0  0  0
 13 14  2  0  0  0  0
 14 15  1  0  0  0  0
 15 16  3  0  0  0  0
 14 17  1  0  0  0  0
 17 18  3  0  0  0  0
  1 19  1  0  0  0  0
 19 20  2  0  0  0  0
 20 21  1  0  0  0  0
 21 22  1  0  0  0  0
 22 23  1  0  0  0  0
 23 24  1  0  0  0  0
 21 25  2  0  0  0  0
 25 26  1  0  0  0  0
 25 27  1  0  0  0  0
 27 28  2  0  0  0  0
 28 29  1  0  0  0  0
 29 30  2  0  0  0  0
 30 31  1  0  0  0  0
 31 32  2  0  0  0  0
 32 33  1  0  0  0  0
 33 34  1  0  0  0  0
 34 35  1  0  0  0  0
 33 36  2  0  0  0  0
 28 37  1  0  0  0  0
 37 38  1  0  0  0  0
 38 39  1  0  0  0  0
 39 40  1  0  0  0  0
 40 41  1  0  0  0  0
 41 42  1  0  0  0  0
 42 43  2  0  0  0  0
 43 44  1  0  0  0  0
 44 45  1  0  0  0  0
 42 46  1  0  0  0  0
 46 47  1  0  0  0  0
 47 48  1  0  0  0  0
 48 49  1  0  0  0  0
 49 50  1  0  0  0  0
 50 51  1  0  0  0  0
 51 52  2  0  0  0  0
 52 53  1  0  0  0  0
 53 54  2  0  0  0  0
 54 55  1  0  0  0  0
 55 56  1  0  0  0  0
 56 57  1  0  0  0  0
 55 58  2  0  0  0  0
 50 59  2  0  0  0  0
 59 60  1  0  0  0  0
 60 61  1  0  0  0  0
 61 62  1  0  0  0  0
 62 63  1  0  0  0  0
 63 64  1  0  0  0  0
 64 65  1  0  0  0  0
 65 66  1  0  0  0  0
 66 67  1  0  0  0  0
 67 68  1  0  0  0  0
 68 69  1  0  0  0  0
 66 70  1  0  0  0  0
 70 71  1  0  0  0  0
 63 72  1  0  0  0  0
 72 73  1  0  0  0  0
 59 74  1  0  0  0  0
 74 75  2  0  0  0  0
 75 76  1  0  0  0  0
 76 77  1  0  0  0  0
 77 78  1  0  0  0  0
 78 79  1  0  0  0  0
 76 80  2  0  0  0  0
 80 81  1  0  0  0  0
 80 82  1  0  0  0  0
 82 83  2  0  0  0  0
 83 84  1  0  0  0  0
 84 85  2  0  0  0  0
 84 86  1  0  0  0  0
 86 87  2  0  0  0  0
 87 88  1  0  0  0  0
 88 89  2  0  0  0  0
 89 90  1  0  0  0  0
 90 91  1  0  0  0  0
 90 92  2  0  0  0  0
 92 93  1  0  0  0  0
 87 94  1  0  0  0  0
 94 95  2  0  0  0  0
 95 96  1  0  0  0  0
 96 97  3  0  0  0  0
 95 98  1  0  0  0  0
 98 99  3  0  0  0  0
 13  2  1  0  0  0  0
 26 19  1  0  0  0  0
 69 27  1  0  0  0  0
 81 74  1  0  0  0  0
 94 83  1  0  0  0  0
 11  5  1  0  0  0  0
 36 29  1  0  0  0  0
 68 37  2  0  0  0  0
 92 86  1  0  0  0  0
 67 39  2  0  0  0  0
 65 40  2  0  0  0  0
 45 41  2  0  0  0  0
 64 46  2  0  0  0  0
 62 47  2  0  0  0  0
 61 49  2  0  0  0  0
 58 51  1  0  0  0  0
  1100  1  0  0  0  0
  7101  1  0  0  0  0
  8102  1  0  0  0  0
 20103  1  0  0  0  0
 23104  1  0  0  0  0
 23105  1  0  0  0  0
 24106  1  0  0  0  0
 24107  1  0  0  0  0
 24108  1  0  0  0  0
 30109  1  0  0  0  0
 31110  1  0  0  0  0
 32111  1  0  0  0  0
 34112  1  0  0  0  0
 34113  1  0  0  0  0
 35114  1  0  0  0  0
 35115  1  0  0  0  0
 35116  1  0  0  0  0
 36117  1  0  0  0  0
 52118  1  0  0  0  0
 53119  1  0  0  0  0
 54120  1  0  0  0  0
 56121  1  0  0  0  0
 56122  1  0  0  0  0
 57123  1  0  0  0  0
 57124  1  0  0  0  0
 57125  1  0  0  0  0
 58126  1  0  0  0  0
 70127  1  0  0  0  0
 70128  1  0  0  0  0
 71129  1  0  0  0  0
 71130  1  0  0  0  0
 71131  1  0  0  0  0
 72132  1  0  0  0  0
 72133  1  0  0  0  0
 73134  1  0  0  0  0
 73135  1  0  0  0  0
 73136  1  0  0  0  0
 75137  1  0  0  0  0
 78138  1  0  0  0  0
 78139  1  0  0  0  0
 79140  1  0  0  0  0
 79141  1  0  0  0  0
 79142  1  0  0  0  0
 82143  1  0  0  0  0
 88144  1  0  0  0  0
 89145  1  0  0  0  0
M  END
