
  xtb     02052214263D
 energy: -270.373356403600 gnorm: 0.000947096034 xtb: 6.4.1 (unknown)
151167  0     0  0            999 V2000
   10.3177   -5.1211   -0.3654 C   0  0  0  0  0  0  0  0  0  0  0  0
   10.8642   -6.3840   -0.3322 C   0  0  0  0  0  0  0  0  0  0  0  0
   10.1677   -7.6796   -0.2472 C   0  0  0  0  0  0  0  0  0  0  0  0
    8.9745   -7.9038   -0.2067 O   0  0  0  0  0  0  0  0  0  0  0  0
   11.2355   -8.7053   -0.2020 C   0  0  0  0  0  0  0  0  0  0  0  0
   12.4932   -8.0800   -0.2588 C   0  0  0  0  0  0  0  0  0  0  0  0
   13.6479   -8.8454   -0.2302 C   0  0  0  0  0  0  0  0  0  0  0  0
   13.5300  -10.2251   -0.1466 C   0  0  0  0  0  0  0  0  0  0  0  0
   12.2880  -10.8371   -0.0919 C   0  0  0  0  0  0  0  0  0  0  0  0
   12.1941  -12.7221    0.0190 Br  0  0  0  0  0  0  0  0  0  0  0  0
   11.1102  -10.0822   -0.1178 C   0  0  0  0  0  0  0  0  0  0  0  0
    9.5764  -10.8391   -0.0494 Cl  0  0  0  0  0  0  0  0  0  0  0  0
   12.2908   -6.6342   -0.3491 C   0  0  0  0  0  0  0  0  0  0  0  0
   13.3059   -5.7152   -0.4574 C   0  0  0  0  0  0  0  0  0  0  0  0
   13.1723   -4.3172   -0.5859 C   0  0  0  0  0  0  0  0  0  0  0  0
   13.1834   -3.1733   -0.6996 N   0  0  0  0  0  0  0  0  0  0  0  0
   14.6773   -6.0468   -0.4700 C   0  0  0  0  0  0  0  0  0  0  0  0
   15.8099   -6.2357   -0.4817 N   0  0  0  0  0  0  0  0  0  0  0  0
    8.9923   -4.6716   -0.4153 C   0  0  0  0  0  0  0  0  0  0  0  0
    7.7684   -5.3163   -0.5027 C   0  0  0  0  0  0  0  0  0  0  0  0
    6.6833   -4.4530   -0.5867 C   0  0  0  0  0  0  0  0  0  0  0  0
    5.0153   -4.9782   -0.7280 S   0  0  0  0  0  0  0  0  0  0  0  0
    5.0635   -6.6858   -0.0717 C   0  0  0  0  0  0  0  0  0  0  0  0
    5.3974   -6.7269    1.4054 C   0  0  0  0  0  0  0  0  0  0  0  0
    7.0456   -3.0948   -0.5923 C   0  0  0  0  0  0  0  0  0  0  0  0
    8.7659   -2.9305   -0.4517 S   0  0  0  0  0  0  0  0  0  0  0  0
    6.2142   -1.9550   -0.6716 C   0  0  0  0  0  0  0  0  0  0  0  0
    6.6134   -0.6250   -0.7838 C   0  0  0  0  0  0  0  0  0  0  0  0
    7.9986   -0.1658   -0.9510 C   0  0  0  0  0  0  0  0  0  0  0  0
    8.6039    0.6015    0.0370 C   0  0  0  0  0  0  0  0  0  0  0  0
    9.9139    1.0135   -0.1247 C   0  0  0  0  0  0  0  0  0  0  0  0
   10.6195    0.6681   -1.2633 C   0  0  0  0  0  0  0  0  0  0  0  0
   10.0186   -0.0744   -2.2722 C   0  0  0  0  0  0  0  0  0  0  0  0
   10.7891   -0.4974   -3.4881 C   0  0  0  0  0  0  0  0  0  0  0  0
   11.3088   -1.9257   -3.3097 C   0  0  0  0  0  0  0  0  0  0  0  0
    8.7024   -0.4785   -2.1091 C   0  0  0  0  0  0  0  0  0  0  0  0
    5.5210    0.2470   -0.7578 C   0  0  0  0  0  0  0  0  0  0  0  0
    5.4045    1.9853   -0.8968 S   0  0  0  0  0  0  0  0  0  0  0  0
    3.6816    1.8433   -0.8105 C   0  0  0  0  0  0  0  0  0  0  0  0
    2.5445    2.6597   -0.8996 C   0  0  0  0  0  0  0  0  0  0  0  0
    2.4136    4.0333   -1.2011 C   0  0  0  0  0  0  0  0  0  0  0  0
    1.1018    4.5740   -1.4106 C   0  0  0  0  0  0  0  0  0  0  0  0
    1.1300    5.8523   -1.7538 N   0  0  0  0  0  0  0  0  0  0  0  0
    2.6748    6.3353   -1.8032 S   0  0  0  0  0  0  0  0  0  0  0  0
    3.3670    4.9317   -1.3908 N   0  0  0  0  0  0  0  0  0  0  0  0
   -0.0195    3.7490   -1.1750 C   0  0  0  0  0  0  0  0  0  0  0  0
   -1.3912    4.0396   -1.1622 C   0  0  0  0  0  0  0  0  0  0  0  0
   -2.4468    5.3680   -1.4976 S   0  0  0  0  0  0  0  0  0  0  0  0
   -3.7956    4.3889   -0.9729 C   0  0  0  0  0  0  0  0  0  0  0  0
   -5.1757    4.6455   -0.9101 C   0  0  0  0  0  0  0  0  0  0  0  0
   -5.7532    5.9010   -1.4000 C   0  0  0  0  0  0  0  0  0  0  0  0
   -6.7577    5.8949   -2.3657 C   0  0  0  0  0  0  0  0  0  0  0  0
   -7.2600    7.0907   -2.8413 C   0  0  0  0  0  0  0  0  0  0  0  0
   -6.7629    8.2950   -2.3705 C   0  0  0  0  0  0  0  0  0  0  0  0
   -5.7502    8.3183   -1.4209 C   0  0  0  0  0  0  0  0  0  0  0  0
   -5.1507    9.6128   -0.9550 C   0  0  0  0  0  0  0  0  0  0  0  0
   -3.8657    9.9059   -1.7325 C   0  0  0  0  0  0  0  0  0  0  0  0
   -5.2514    7.1137   -0.9447 C   0  0  0  0  0  0  0  0  0  0  0  0
   -5.8664    3.5554   -0.4001 C   0  0  0  0  0  0  0  0  0  0  0  0
   -4.8070    2.1988   -0.0462 S   0  0  0  0  0  0  0  0  0  0  0  0
   -3.4281    3.1035   -0.5623 C   0  0  0  0  0  0  0  0  0  0  0  0
   -2.0482    2.8990   -0.6896 C   0  0  0  0  0  0  0  0  0  0  0  0
   -1.1370    1.9074   -0.4418 N   0  0  0  0  0  0  0  0  0  0  0  0
    0.1181    2.3937   -0.7584 C   0  0  0  0  0  0  0  0  0  0  0  0
    1.4114    1.8091   -0.7539 C   0  0  0  0  0  0  0  0  0  0  0  0
    1.8569    0.5027   -0.6140 N   0  0  0  0  0  0  0  0  0  0  0  0
    3.2274    0.5281   -0.6651 C   0  0  0  0  0  0  0  0  0  0  0  0
    4.2795   -0.3921   -0.6466 C   0  0  0  0  0  0  0  0  0  0  0  0
    4.4621   -2.1076   -0.5565 S   0  0  0  0  0  0  0  0  0  0  0  0
    1.1857   -0.7335   -0.9554 C   0  0  0  0  0  0  0  0  0  0  0  0
    0.9243   -0.8149   -2.4577 C   0  0  0  0  0  0  0  0  0  0  0  0
   -1.5210    0.7601    0.3486 C   0  0  0  0  0  0  0  0  0  0  0  0
   -2.2715   -0.2851   -0.4753 C   0  0  0  0  0  0  0  0  0  0  0  0
   -7.2449    3.4336   -0.0827 C   0  0  0  0  0  0  0  0  0  0  0  0
   -8.1757    4.4562   -0.0189 C   0  0  0  0  0  0  0  0  0  0  0  0
   -9.4436    4.0091    0.3259 C   0  0  0  0  0  0  0  0  0  0  0  0
  -10.8696    5.0043    0.4636 S   0  0  0  0  0  0  0  0  0  0  0  0
  -10.3445    6.6031   -0.2547 C   0  0  0  0  0  0  0  0  0  0  0  0
   -9.6611    7.5085    0.7524 C   0  0  0  0  0  0  0  0  0  0  0  0
   -9.5057    2.6177    0.5653 C   0  0  0  0  0  0  0  0  0  0  0  0
   -7.9278    1.8942    0.3375 S   0  0  0  0  0  0  0  0  0  0  0  0
  -10.6869    1.9663    0.9100 C   0  0  0  0  0  0  0  0  0  0  0  0
  -10.9204    0.6415    1.2077 C   0  0  0  0  0  0  0  0  0  0  0  0
   -9.9023   -0.4059    1.2647 C   0  0  0  0  0  0  0  0  0  0  0  0
   -8.7098   -0.3016    1.0221 O   0  0  0  0  0  0  0  0  0  0  0  0
  -10.5979   -1.6346    1.6845 C   0  0  0  0  0  0  0  0  0  0  0  0
  -10.0837   -2.8798    1.8986 C   0  0  0  0  0  0  0  0  0  0  0  0
  -10.9477   -3.9193    2.3106 C   0  0  0  0  0  0  0  0  0  0  0  0
  -10.4722   -5.2244    2.5493 C   0  0  0  0  0  0  0  0  0  0  0  0
  -11.3186   -6.2204    2.9510 C   0  0  0  0  0  0  0  0  0  0  0  0
  -12.6773   -5.9257    3.1236 C   0  0  0  0  0  0  0  0  0  0  0  0
  -13.4954   -6.9190    3.5202 F   0  0  0  0  0  0  0  0  0  0  0  0
  -13.1905   -4.6775    2.9048 C   0  0  0  0  0  0  0  0  0  0  0  0
  -12.3330   -3.6400    2.4910 C   0  0  0  0  0  0  0  0  0  0  0  0
  -12.8360   -2.3378    2.2578 C   0  0  0  0  0  0  0  0  0  0  0  0
  -11.9807   -1.3465    1.8594 C   0  0  0  0  0  0  0  0  0  0  0  0
  -12.2016    0.0664    1.5503 C   0  0  0  0  0  0  0  0  0  0  0  0
  -13.4227    0.6940    1.5752 C   0  0  0  0  0  0  0  0  0  0  0  0
  -13.6710    2.0443    1.2540 C   0  0  0  0  0  0  0  0  0  0  0  0
  -13.9733    3.1258    1.0097 N   0  0  0  0  0  0  0  0  0  0  0  0
  -14.6298    0.0547    1.9238 C   0  0  0  0  0  0  0  0  0  0  0  0
  -15.6485   -0.4041    2.1908 N   0  0  0  0  0  0  0  0  0  0  0  0
   11.0296   -4.3048   -0.3638 H   0  0  0  0  0  0  0  0  0  0  0  0
   14.6277   -8.4011   -0.2702 H   0  0  0  0  0  0  0  0  0  0  0  0
   14.4178  -10.8382   -0.1238 H   0  0  0  0  0  0  0  0  0  0  0  0
    7.7009   -6.3870   -0.5151 H   0  0  0  0  0  0  0  0  0  0  0  0
    5.7613   -7.2705   -0.6682 H   0  0  0  0  0  0  0  0  0  0  0  0
    4.0521   -7.0483   -0.2559 H   0  0  0  0  0  0  0  0  0  0  0  0
    6.4012   -6.3501    1.5883 H   0  0  0  0  0  0  0  0  0  0  0  0
    5.3482   -7.7539    1.7603 H   0  0  0  0  0  0  0  0  0  0  0  0
    4.6901   -6.1256    1.9727 H   0  0  0  0  0  0  0  0  0  0  0  0
    8.0525    0.8567    0.9298 H   0  0  0  0  0  0  0  0  0  0  0  0
   10.3884    1.6019    0.6461 H   0  0  0  0  0  0  0  0  0  0  0  0
   11.6479    0.9787   -1.3734 H   0  0  0  0  0  0  0  0  0  0  0  0
   10.1447   -0.4549   -4.3692 H   0  0  0  0  0  0  0  0  0  0  0  0
   11.6328    0.1756   -3.6474 H   0  0  0  0  0  0  0  0  0  0  0  0
   10.4795   -2.6160   -3.1671 H   0  0  0  0  0  0  0  0  0  0  0  0
   11.8712   -2.2365   -4.1871 H   0  0  0  0  0  0  0  0  0  0  0  0
   11.9589   -1.9889   -2.4404 H   0  0  0  0  0  0  0  0  0  0  0  0
    8.2156   -1.0529   -2.8853 H   0  0  0  0  0  0  0  0  0  0  0  0
   -7.1338    4.9535   -2.7387 H   0  0  0  0  0  0  0  0  0  0  0  0
   -8.0389    7.0856   -3.5901 H   0  0  0  0  0  0  0  0  0  0  0  0
   -7.1606    9.2250   -2.7504 H   0  0  0  0  0  0  0  0  0  0  0  0
   -5.8601   10.4288   -1.1055 H   0  0  0  0  0  0  0  0  0  0  0  0
   -4.9193    9.5515    0.1105 H   0  0  0  0  0  0  0  0  0  0  0  0
   -3.1467    9.1017   -1.5940 H   0  0  0  0  0  0  0  0  0  0  0  0
   -3.4189   10.8361   -1.3902 H   0  0  0  0  0  0  0  0  0  0  0  0
   -4.0791    9.9931   -2.7954 H   0  0  0  0  0  0  0  0  0  0  0  0
   -4.4687    7.1171   -0.2001 H   0  0  0  0  0  0  0  0  0  0  0  0
    0.2572   -0.8436   -0.4038 H   0  0  0  0  0  0  0  0  0  0  0  0
    1.8531   -1.5451   -0.6542 H   0  0  0  0  0  0  0  0  0  0  0  0
    0.4440   -1.7587   -2.7004 H   0  0  0  0  0  0  0  0  0  0  0  0
    1.8615   -0.7528   -3.0057 H   0  0  0  0  0  0  0  0  0  0  0  0
    0.2835    0.0034   -2.7803 H   0  0  0  0  0  0  0  0  0  0  0  0
   -0.6306    0.3499    0.8269 H   0  0  0  0  0  0  0  0  0  0  0  0
   -2.1856    1.1158    1.1443 H   0  0  0  0  0  0  0  0  0  0  0  0
   -2.4620   -1.1650    0.1328 H   0  0  0  0  0  0  0  0  0  0  0  0
   -1.7089   -0.5782   -1.3572 H   0  0  0  0  0  0  0  0  0  0  0  0
   -3.2274    0.1160   -0.8007 H   0  0  0  0  0  0  0  0  0  0  0  0
   -7.9176    5.4807   -0.2004 H   0  0  0  0  0  0  0  0  0  0  0  0
   -9.7149    6.3928   -1.1180 H   0  0  0  0  0  0  0  0  0  0  0  0
  -11.2783    7.0488   -0.5974 H   0  0  0  0  0  0  0  0  0  0  0  0
   -9.3754    8.4409    0.2694 H   0  0  0  0  0  0  0  0  0  0  0  0
  -10.3357    7.7328    1.5751 H   0  0  0  0  0  0  0  0  0  0  0  0
   -8.7663    7.0449    1.1611 H   0  0  0  0  0  0  0  0  0  0  0  0
  -11.5416    2.6322    0.9509 H   0  0  0  0  0  0  0  0  0  0  0  0
   -9.0302   -3.0702    1.7569 H   0  0  0  0  0  0  0  0  0  0  0  0
   -9.4208   -5.4268    2.4095 H   0  0  0  0  0  0  0  0  0  0  0  0
  -10.9709   -7.2240    3.1384 H   0  0  0  0  0  0  0  0  0  0  0  0
  -14.2428   -4.4866    3.0473 H   0  0  0  0  0  0  0  0  0  0  0  0
  -13.8893   -2.1619    2.4044 H   0  0  0  0  0  0  0  0  0  0  0  0
  1  2  2  0  0  0  0
  2  3  1  0  0  0  0
  3  4  2  0  0  0  0
  3  5  1  0  0  0  0
  5  6  2  0  0  0  0
  6  7  1  0  0  0  0
  7  8  2  0  0  0  0
  8  9  1  0  0  0  0
  9 10  1  0  0  0  0
  9 11  2  0  0  0  0
 11 12  1  0  0  0  0
  6 13  1  0  0  0  0
 13 14  2  0  0  0  0
 14 15  1  0  0  0  0
 15 16  3  0  0  0  0
 14 17  1  0  0  0  0
 17 18  3  0  0  0  0
  1 19  1  0  0  0  0
 19 20  2  0  0  0  0
 20 21  1  0  0  0  0
 21 22  1  0  0  0  0
 22 23  1  0  0  0  0
 23 24  1  0  0  0  0
 21 25  2  0  0  0  0
 25 26  1  0  0  0  0
 25 27  1  0  0  0  0
 27 28  2  0  0  0  0
 28 29  1  0  0  0  0
 29 30  2  0  0  0  0
 30 31  1  0  0  0  0
 31 32  2  0  0  0  0
 32 33  1  0  0  0  0
 33 34  1  0  0  0  0
 34 35  1  0  0  0  0
 33 36  2  0  0  0  0
 28 37  1  0  0  0  0
 37 38  1  0  0  0  0
 38 39  1  0  0  0  0
 39 40  1  0  0  0  0
 40 41  1  0  0  0  0
 41 42  1  0  0  0  0
 42 43  2  0  0  0  0
 43 44  1  0  0  0  0
 44 45  1  0  0  0  0
 42 46  1  0  0  0  0
 46 47  1  0  0  0  0
 47 48  1  0  0  0  0
 48 49  1  0  0  0  0
 49 50  1  0  0  0  0
 50 51  1  0  0  0  0
 51 52  2  0  0  0  0
 52 53  1  0  0  0  0
 53 54  2  0  0  0  0
 54 55  1  0  0  0  0
 55 56  1  0  0  0  0
 56 57  1  0  0  0  0
 55 58  2  0  0  0  0
 50 59  2  0  0  0  0
 59 60  1  0  0  0  0
 60 61  1  0  0  0  0
 61 62  1  0  0  0  0
 62 63  1  0  0  0  0
 63 64  1  0  0  0  0
 64 65  1  0  0  0  0
 65 66  1  0  0  0  0
 66 67  1  0  0  0  0
 67 68  1  0  0  0  0
 68 69  1  0  0  0  0
 66 70  1  0  0  0  0
 70 71  1  0  0  0  0
 63 72  1  0  0  0  0
 72 73  1  0  0  0  0
 59 74  1  0  0  0  0
 74 75  2  0  0  0  0
 75 76  1  0  0  0  0
 76 77  1  0  0  0  0
 77 78  1  0  0  0  0
 78 79  1  0  0  0  0
 76 80  2  0  0  0  0
 80 81  1  0  0  0  0
 80 82  1  0  0  0  0
 82 83  2  0  0  0  0
 83 84  1  0  0  0  0
 84 85  2  0  0  0  0
 84 86  1  0  0  0  0
 86 87  2  0  0  0  0
 87 88  1  0  0  0  0
 88 89  2  0  0  0  0
 89 90  1  0  0  0  0
 90 91  2  0  0  0  0
 91 92  1  0  0  0  0
 91 93  1  0  0  0  0
 93 94  2  0  0  0  0
 94 95  1  0  0  0  0
 95 96  2  0  0  0  0
 96 97  1  0  0  0  0
 97 98  2  0  0  0  0
 98 99  1  0  0  0  0
 99100  3  0  0  0  0
 98101  1  0  0  0  0
101102  3  0  0  0  0
 13  2  1  0  0  0  0
 26 19  1  0  0  0  0
 69 27  1  0  0  0  0
 81 74  1  0  0  0  0
 97 83  1  0  0  0  0
 11  5  1  0  0  0  0
 36 29  1  0  0  0  0
 68 37  2  0  0  0  0
 96 86  1  0  0  0  0
 67 39  2  0  0  0  0
 94 88  1  0  0  0  0
 65 40  2  0  0  0  0
 45 41  2  0  0  0  0
 64 46  2  0  0  0  0
 62 47  2  0  0  0  0
 61 49  2  0  0  0  0
 58 51  1  0  0  0  0
  1103  1  0  0  0  0
  7104  1  0  0  0  0
  8105  1  0  0  0  0
 20106  1  0  0  0  0
 23107  1  0  0  0  0
 23108  1  0  0  0  0
 24109  1  0  0  0  0
 24110  1  0  0  0  0
 24111  1  0  0  0  0
 30112  1  0  0  0  0
 31113  1  0  0  0  0
 32114  1  0  0  0  0
 34115  1  0  0  0  0
 34116  1  0  0  0  0
 35117  1  0  0  0  0
 35118  1  0  0  0  0
 35119  1  0  0  0  0
 36120  1  0  0  0  0
 52121  1  0  0  0  0
 53122  1  0  0  0  0
 54123  1  0  0  0  0
 56124  1  0  0  0  0
 56125  1  0  0  0  0
 57126  1  0  0  0  0
 57127  1  0  0  0  0
 57128  1  0  0  0  0
 58129  1  0  0  0  0
 70130  1  0  0  0  0
 70131  1  0  0  0  0
 71132  1  0  0  0  0
 71133  1  0  0  0  0
 71134  1  0  0  0  0
 72135  1  0  0  0  0
 72136  1  0  0  0  0
 73137  1  0  0  0  0
 73138  1  0  0  0  0
 73139  1  0  0  0  0
 75140  1  0  0  0  0
 78141  1  0  0  0  0
 78142  1  0  0  0  0
 79143  1  0  0  0  0
 79144  1  0  0  0  0
 79145  1  0  0  0  0
 82146  1  0  0  0  0
 87147  1  0  0  0  0
 89148  1  0  0  0  0
 90149  1  0  0  0  0
 93150  1  0  0  0  0
 95151  1  0  0  0  0
M  END
