
  xtb     02052216073D
 energy: -287.905173936884 gnorm: 0.000349291613 xtb: 6.4.1 (unknown)
157173  0     0  0            999 V2000
   -5.1342   -1.9368  -10.3396 C   0  0  0  0  0  0  0  0  0  0  0  0
   -5.6237   -0.8763  -11.0714 C   0  0  0  0  0  0  0  0  0  0  0  0
   -5.0750    0.4785  -11.0640 C   0  0  0  0  0  0  0  0  0  0  0  0
   -4.1356    0.9029  -10.4149 O   0  0  0  0  0  0  0  0  0  0  0  0
   -5.8951    1.2546  -12.0173 C   0  0  0  0  0  0  0  0  0  0  0  0
   -6.8906    0.4217  -12.5597 C   0  0  0  0  0  0  0  0  0  0  0  0
   -7.7912    0.9347  -13.4785 C   0  0  0  0  0  0  0  0  0  0  0  0
   -7.6833    2.2705  -13.8410 C   0  0  0  0  0  0  0  0  0  0  0  0
   -6.6992    3.0852  -13.3037 C   0  0  0  0  0  0  0  0  0  0  0  0
   -6.6052    4.8952  -13.8382 Br  0  0  0  0  0  0  0  0  0  0  0  0
   -5.7791    2.5868  -12.3744 C   0  0  0  0  0  0  0  0  0  0  0  0
   -4.5592    3.5800  -11.7012 Cl  0  0  0  0  0  0  0  0  0  0  0  0
   -6.7446   -0.9160  -11.9813 C   0  0  0  0  0  0  0  0  0  0  0  0
   -7.5575   -1.9860  -12.2658 C   0  0  0  0  0  0  0  0  0  0  0  0
   -7.4469   -3.2746  -11.7051 C   0  0  0  0  0  0  0  0  0  0  0  0
   -7.4298   -4.3479  -11.2945 N   0  0  0  0  0  0  0  0  0  0  0  0
   -8.6408   -1.9407  -13.1671 C   0  0  0  0  0  0  0  0  0  0  0  0
   -9.5339   -1.9755  -13.8881 N   0  0  0  0  0  0  0  0  0  0  0  0
   -4.0819   -1.9836   -9.4224 C   0  0  0  0  0  0  0  0  0  0  0  0
   -3.6964   -3.1647   -8.7846 C   0  0  0  0  0  0  0  0  0  0  0  0
   -2.6560   -3.0112   -7.8857 C   0  0  0  0  0  0  0  0  0  0  0  0
   -1.9169   -4.3122   -6.9648 S   0  0  0  0  0  0  0  0  0  0  0  0
   -3.2734   -5.5319   -6.8217 C   0  0  0  0  0  0  0  0  0  0  0  0
   -4.4454   -4.9953   -6.0255 C   0  0  0  0  0  0  0  0  0  0  0  0
   -2.1959   -1.6847   -7.8170 C   0  0  0  0  0  0  0  0  0  0  0  0
   -3.0772   -0.6530   -8.8995 S   0  0  0  0  0  0  0  0  0  0  0  0
   -1.2193   -1.1391   -6.9535 C   0  0  0  0  0  0  0  0  0  0  0  0
   -0.7031    0.1554   -6.9781 C   0  0  0  0  0  0  0  0  0  0  0  0
   -0.9308    1.1532   -8.0288 C   0  0  0  0  0  0  0  0  0  0  0  0
   -1.4600    2.3941   -7.6928 C   0  0  0  0  0  0  0  0  0  0  0  0
   -1.6719    3.3399   -8.6784 C   0  0  0  0  0  0  0  0  0  0  0  0
   -1.3539    3.0582   -9.9936 C   0  0  0  0  0  0  0  0  0  0  0  0
   -0.8130    1.8272  -10.3446 C   0  0  0  0  0  0  0  0  0  0  0  0
   -0.4320    1.5374  -11.7672 C   0  0  0  0  0  0  0  0  0  0  0  0
    1.0067    1.9799  -12.0396 C   0  0  0  0  0  0  0  0  0  0  0  0
   -0.5941    0.8860   -9.3523 C   0  0  0  0  0  0  0  0  0  0  0  0
    0.0845    0.4162   -5.8502 C   0  0  0  0  0  0  0  0  0  0  0  0
    0.9432    1.8429   -5.3159 S   0  0  0  0  0  0  0  0  0  0  0  0
    1.4014    0.9946   -3.8781 C   0  0  0  0  0  0  0  0  0  0  0  0
    2.0817    1.2340   -2.6727 C   0  0  0  0  0  0  0  0  0  0  0  0
    2.8204    2.3415   -2.1988 C   0  0  0  0  0  0  0  0  0  0  0  0
    3.4048    2.2806   -0.8869 C   0  0  0  0  0  0  0  0  0  0  0  0
    4.0980    3.3687   -0.5928 N   0  0  0  0  0  0  0  0  0  0  0  0
    4.0235    4.3829   -1.8526 S   0  0  0  0  0  0  0  0  0  0  0  0
    3.0982    3.4752   -2.8220 N   0  0  0  0  0  0  0  0  0  0  0  0
    3.1079    1.1761   -0.0562 C   0  0  0  0  0  0  0  0  0  0  0  0
    3.2757    0.9790    1.3233 C   0  0  0  0  0  0  0  0  0  0  0  0
    3.9348    1.8070    2.6913 S   0  0  0  0  0  0  0  0  0  0  0  0
    3.2033    0.6177    3.7458 C   0  0  0  0  0  0  0  0  0  0  0  0
    3.1351    0.4859    5.1506 C   0  0  0  0  0  0  0  0  0  0  0  0
    3.8863    1.3265    6.0787 C   0  0  0  0  0  0  0  0  0  0  0  0
    4.1303    2.6634    5.7704 C   0  0  0  0  0  0  0  0  0  0  0  0
    4.9237    3.4331    6.5991 C   0  0  0  0  0  0  0  0  0  0  0  0
    5.4769    2.8848    7.7432 C   0  0  0  0  0  0  0  0  0  0  0  0
    5.2328    1.5575    8.0778 C   0  0  0  0  0  0  0  0  0  0  0  0
    5.8691    0.9512    9.2941 C   0  0  0  0  0  0  0  0  0  0  0  0
    7.2611    0.4137    8.9565 C   0  0  0  0  0  0  0  0  0  0  0  0
    4.4428    0.7884    7.2374 C   0  0  0  0  0  0  0  0  0  0  0  0
    2.3786   -0.6192    5.5021 C   0  0  0  0  0  0  0  0  0  0  0  0
    1.8120   -1.5298    4.1129 S   0  0  0  0  0  0  0  0  0  0  0  0
    2.5264   -0.3836    3.0439 C   0  0  0  0  0  0  0  0  0  0  0  0
    2.5732   -0.1831    1.6593 C   0  0  0  0  0  0  0  0  0  0  0  0
    2.0191   -0.7355    0.5362 N   0  0  0  0  0  0  0  0  0  0  0  0
    2.3358    0.0799   -0.5326 C   0  0  0  0  0  0  0  0  0  0  0  0
    1.9502    0.0508   -1.8944 C   0  0  0  0  0  0  0  0  0  0  0  0
    1.2866   -0.9086   -2.6401 N   0  0  0  0  0  0  0  0  0  0  0  0
    0.9335   -0.3244   -3.8308 C   0  0  0  0  0  0  0  0  0  0  0  0
    0.1917   -0.6624   -4.9646 C   0  0  0  0  0  0  0  0  0  0  0  0
   -0.6719   -2.0420   -5.5393 S   0  0  0  0  0  0  0  0  0  0  0  0
    1.4432   -2.3462   -2.5665 C   0  0  0  0  0  0  0  0  0  0  0  0
    2.4342   -2.8506   -3.6153 C   0  0  0  0  0  0  0  0  0  0  0  0
    1.0194   -1.7735    0.6516 C   0  0  0  0  0  0  0  0  0  0  0  0
    1.6407   -3.1377    0.9495 C   0  0  0  0  0  0  0  0  0  0  0  0
    1.8792   -1.0243    6.7904 C   0  0  0  0  0  0  0  0  0  0  0  0
    1.8014   -2.3600    7.1597 C   0  0  0  0  0  0  0  0  0  0  0  0
    2.2978   -3.3065    6.3437 F   0  0  0  0  0  0  0  0  0  0  0  0
    1.2527   -2.7687    8.3744 C   0  0  0  0  0  0  0  0  0  0  0  0
    1.2710   -4.0742    8.6710 F   0  0  0  0  0  0  0  0  0  0  0  0
    0.7148   -1.8725    9.2891 C   0  0  0  0  0  0  0  0  0  0  0  0
    0.6919   -0.4993    8.8937 C   0  0  0  0  0  0  0  0  0  0  0  0
   -0.0415    0.3797    9.5911 N   0  0  0  0  0  0  0  0  0  0  0  0
   -0.0914    1.6399    9.2333 C   0  0  0  0  0  0  0  0  0  0  0  0
   -1.1075    2.4685    9.9641 C   0  0  0  0  0  0  0  0  0  0  0  0
   -0.5340    3.5622   10.8670 C   0  0  0  0  0  0  0  0  0  0  0  0
    0.7062    2.0953    8.1423 C   0  0  0  0  0  0  0  0  0  0  0  0
    1.3255    1.2281    7.3826 N   0  0  0  0  0  0  0  0  0  0  0  0
    1.3164   -0.0750    7.6947 C   0  0  0  0  0  0  0  0  0  0  0  0
    0.8732    3.5353    7.7801 C   0  0  0  0  0  0  0  0  0  0  0  0
    2.0641    4.1270    8.5400 C   0  0  0  0  0  0  0  0  0  0  0  0
    0.1004   -2.3376   10.4934 C   0  0  0  0  0  0  0  0  0  0  0  0
   -0.1148   -1.6437   11.6397 C   0  0  0  0  0  0  0  0  0  0  0  0
   -1.1634   -2.1001   12.5921 C   0  0  0  0  0  0  0  0  0  0  0  0
   -1.7140   -3.1730   12.6081 O   0  0  0  0  0  0  0  0  0  0  0  0
   -1.4139   -0.9287   13.4652 C   0  0  0  0  0  0  0  0  0  0  0  0
   -0.4884    0.0904   13.1647 C   0  0  0  0  0  0  0  0  0  0  0  0
   -0.5331    1.2935   13.8504 C   0  0  0  0  0  0  0  0  0  0  0  0
   -1.5088    1.4694   14.8199 C   0  0  0  0  0  0  0  0  0  0  0  0
   -2.4180    0.4644   15.1144 C   0  0  0  0  0  0  0  0  0  0  0  0
   -3.7203    0.7660   16.4492 Br  0  0  0  0  0  0  0  0  0  0  0  0
   -2.3843   -0.7627   14.4411 C   0  0  0  0  0  0  0  0  0  0  0  0
   -3.4979   -2.0086   14.8082 Cl  0  0  0  0  0  0  0  0  0  0  0  0
    0.4139   -0.3864   12.1201 C   0  0  0  0  0  0  0  0  0  0  0  0
    1.6449    0.1403   11.8270 C   0  0  0  0  0  0  0  0  0  0  0  0
    2.1290    1.3609   12.3327 C   0  0  0  0  0  0  0  0  0  0  0  0
    2.5502    2.3723   12.6774 N   0  0  0  0  0  0  0  0  0  0  0  0
    2.5751   -0.4906   10.9791 C   0  0  0  0  0  0  0  0  0  0  0  0
    3.3796   -0.9757   10.3187 N   0  0  0  0  0  0  0  0  0  0  0  0
   -5.6275   -2.8911  -10.4772 H   0  0  0  0  0  0  0  0  0  0  0  0
   -8.5673    0.3293  -13.9155 H   0  0  0  0  0  0  0  0  0  0  0  0
   -8.3764    2.6885  -14.5547 H   0  0  0  0  0  0  0  0  0  0  0  0
   -4.1824   -4.0989   -9.0014 H   0  0  0  0  0  0  0  0  0  0  0  0
   -3.5626   -5.8508   -7.8218 H   0  0  0  0  0  0  0  0  0  0  0  0
   -2.8022   -6.3708   -6.3100 H   0  0  0  0  0  0  0  0  0  0  0  0
   -4.1200   -4.6905   -5.0335 H   0  0  0  0  0  0  0  0  0  0  0  0
   -4.8928   -4.1362   -6.5214 H   0  0  0  0  0  0  0  0  0  0  0  0
   -5.2041   -5.7682   -5.9227 H   0  0  0  0  0  0  0  0  0  0  0  0
   -1.7214    2.6051   -6.6665 H   0  0  0  0  0  0  0  0  0  0  0  0
   -2.0920    4.3001   -8.4171 H   0  0  0  0  0  0  0  0  0  0  0  0
   -1.5271    3.7997  -10.7604 H   0  0  0  0  0  0  0  0  0  0  0  0
   -0.5258    0.4674  -11.9636 H   0  0  0  0  0  0  0  0  0  0  0  0
   -1.1069    2.0674  -12.4421 H   0  0  0  0  0  0  0  0  0  0  0  0
    1.1146    3.0473  -11.8605 H   0  0  0  0  0  0  0  0  0  0  0  0
    1.2808    1.7711  -13.0711 H   0  0  0  0  0  0  0  0  0  0  0  0
    1.6952    1.4525  -11.3830 H   0  0  0  0  0  0  0  0  0  0  0  0
   -0.1641   -0.0733   -9.6061 H   0  0  0  0  0  0  0  0  0  0  0  0
    3.6860    3.1054    4.8926 H   0  0  0  0  0  0  0  0  0  0  0  0
    5.1098    4.4680    6.3521 H   0  0  0  0  0  0  0  0  0  0  0  0
    6.0991    3.4903    8.3864 H   0  0  0  0  0  0  0  0  0  0  0  0
    5.9539    1.7050   10.0800 H   0  0  0  0  0  0  0  0  0  0  0  0
    5.2479    0.1356    9.6670 H   0  0  0  0  0  0  0  0  0  0  0  0
    7.7217   -0.0223    9.8395 H   0  0  0  0  0  0  0  0  0  0  0  0
    7.1934   -0.3514    8.1866 H   0  0  0  0  0  0  0  0  0  0  0  0
    7.9002    1.2141    8.5891 H   0  0  0  0  0  0  0  0  0  0  0  0
    4.2753   -0.2507    7.4814 H   0  0  0  0  0  0  0  0  0  0  0  0
    1.8198   -2.6109   -1.5840 H   0  0  0  0  0  0  0  0  0  0  0  0
    0.4665   -2.8141   -2.7274 H   0  0  0  0  0  0  0  0  0  0  0  0
    2.0685   -2.6635   -4.6207 H   0  0  0  0  0  0  0  0  0  0  0  0
    3.3953   -2.3552   -3.4941 H   0  0  0  0  0  0  0  0  0  0  0  0
    2.5745   -3.9213   -3.4953 H   0  0  0  0  0  0  0  0  0  0  0  0
    0.3581   -1.5054    1.4837 H   0  0  0  0  0  0  0  0  0  0  0  0
    0.4179   -1.7913   -0.2571 H   0  0  0  0  0  0  0  0  0  0  0  0
    2.4020   -3.4020    0.2188 H   0  0  0  0  0  0  0  0  0  0  0  0
    0.8685   -3.9014    0.9425 H   0  0  0  0  0  0  0  0  0  0  0  0
    2.1071   -3.1308    1.9308 H   0  0  0  0  0  0  0  0  0  0  0  0
   -1.7789    2.9224    9.2304 H   0  0  0  0  0  0  0  0  0  0  0  0
   -1.6895    1.7722   10.5722 H   0  0  0  0  0  0  0  0  0  0  0  0
   -0.1941    4.4183   10.2929 H   0  0  0  0  0  0  0  0  0  0  0  0
    0.3013    3.1848   11.4503 H   0  0  0  0  0  0  0  0  0  0  0  0
   -1.3063    3.9026   11.5528 H   0  0  0  0  0  0  0  0  0  0  0  0
    1.0776    3.5931    6.7106 H   0  0  0  0  0  0  0  0  0  0  0  0
   -0.0358    4.0946    8.0025 H   0  0  0  0  0  0  0  0  0  0  0  0
    2.9739    3.6045    8.2600 H   0  0  0  0  0  0  0  0  0  0  0  0
    2.1758    5.1791    8.2911 H   0  0  0  0  0  0  0  0  0  0  0  0
    1.9359    4.0338    9.6150 H   0  0  0  0  0  0  0  0  0  0  0  0
   -0.3202   -3.3378   10.4612 H   0  0  0  0  0  0  0  0  0  0  0  0
    0.1625    2.0897   13.6452 H   0  0  0  0  0  0  0  0  0  0  0  0
   -1.5669    2.4015   15.3608 H   0  0  0  0  0  0  0  0  0  0  0  0
  1  2  2  0  0  0  0
  2  3  1  0  0  0  0
  3  4  2  0  0  0  0
  3  5  1  0  0  0  0
  5  6  2  0  0  0  0
  6  7  1  0  0  0  0
  7  8  2  0  0  0  0
  8  9  1  0  0  0  0
  9 10  1  0  0  0  0
  9 11  2  0  0  0  0
 11 12  1  0  0  0  0
  6 13  1  0  0  0  0
 13 14  2  0  0  0  0
 14 15  1  0  0  0  0
 15 16  3  0  0  0  0
 14 17  1  0  0  0  0
 17 18  3  0  0  0  0
  1 19  1  0  0  0  0
 19 20  2  0  0  0  0
 20 21  1  0  0  0  0
 21 22  1  0  0  0  0
 22 23  1  0  0  0  0
 23 24  1  0  0  0  0
 21 25  2  0  0  0  0
 25 26  1  0  0  0  0
 25 27  1  0  0  0  0
 27 28  2  0  0  0  0
 28 29  1  0  0  0  0
 29 30  2  0  0  0  0
 30 31  1  0  0  0  0
 31 32  2  0  0  0  0
 32 33  1  0  0  0  0
 33 34  1  0  0  0  0
 34 35  1  0  0  0  0
 33 36  2  0  0  0  0
 28 37  1  0  0  0  0
 37 38  1  0  0  0  0
 38 39  1  0  0  0  0
 39 40  1  0  0  0  0
 40 41  1  0  0  0  0
 41 42  1  0  0  0  0
 42 43  2  0  0  0  0
 43 44  1  0  0  0  0
 44 45  1  0  0  0  0
 42 46  1  0  0  0  0
 46 47  1  0  0  0  0
 47 48  1  0  0  0  0
 48 49  1  0  0  0  0
 49 50  1  0  0  0  0
 50 51  1  0  0  0  0
 51 52  2  0  0  0  0
 52 53  1  0  0  0  0
 53 54  2  0  0  0  0
 54 55  1  0  0  0  0
 55 56  1  0  0  0  0
 56 57  1  0  0  0  0
 55 58  2  0  0  0  0
 50 59  2  0  0  0  0
 59 60  1  0  0  0  0
 60 61  1  0  0  0  0
 61 62  1  0  0  0  0
 62 63  1  0  0  0  0
 63 64  1  0  0  0  0
 64 65  1  0  0  0  0
 65 66  1  0  0  0  0
 66 67  1  0  0  0  0
 67 68  1  0  0  0  0
 68 69  1  0  0  0  0
 66 70  1  0  0  0  0
 70 71  1  0  0  0  0
 63 72  1  0  0  0  0
 72 73  1  0  0  0  0
 59 74  1  0  0  0  0
 74 75  2  0  0  0  0
 75 76  1  0  0  0  0
 75 77  1  0  0  0  0
 77 78  1  0  0  0  0
 77 79  2  0  0  0  0
 79 80  1  0  0  0  0
 80 81  2  0  0  0  0
 81 82  1  0  0  0  0
 82 83  1  0  0  0  0
 83 84  1  0  0  0  0
 82 85  2  0  0  0  0
 85 86  1  0  0  0  0
 86 87  2  0  0  0  0
 85 88  1  0  0  0  0
 88 89  1  0  0  0  0
 79 90  1  0  0  0  0
 90 91  2  0  0  0  0
 91 92  1  0  0  0  0
 92 93  2  0  0  0  0
 92 94  1  0  0  0  0
 94 95  2  0  0  0  0
 95 96  1  0  0  0  0
 96 97  2  0  0  0  0
 97 98  1  0  0  0  0
 98 99  1  0  0  0  0
 98100  2  0  0  0  0
100101  1  0  0  0  0
 95102  1  0  0  0  0
102103  2  0  0  0  0
103104  1  0  0  0  0
104105  3  0  0  0  0
103106  1  0  0  0  0
106107  3  0  0  0  0
 13  2  1  0  0  0  0
 26 19  1  0  0  0  0
 69 27  1  0  0  0  0
 87 74  1  0  0  0  0
102 91  1  0  0  0  0
 11  5  1  0  0  0  0
 36 29  1  0  0  0  0
 68 37  2  0  0  0  0
 87 80  1  0  0  0  0
100 94  1  0  0  0  0
 67 39  2  0  0  0  0
 65 40  2  0  0  0  0
 45 41  2  0  0  0  0
 64 46  2  0  0  0  0
 62 47  2  0  0  0  0
 61 49  2  0  0  0  0
 58 51  1  0  0  0  0
  1108  1  0  0  0  0
  7109  1  0  0  0  0
  8110  1  0  0  0  0
 20111  1  0  0  0  0
 23112  1  0  0  0  0
 23113  1  0  0  0  0
 24114  1  0  0  0  0
 24115  1  0  0  0  0
 24116  1  0  0  0  0
 30117  1  0  0  0  0
 31118  1  0  0  0  0
 32119  1  0  0  0  0
 34120  1  0  0  0  0
 34121  1  0  0  0  0
 35122  1  0  0  0  0
 35123  1  0  0  0  0
 35124  1  0  0  0  0
 36125  1  0  0  0  0
 52126  1  0  0  0  0
 53127  1  0  0  0  0
 54128  1  0  0  0  0
 56129  1  0  0  0  0
 56130  1  0  0  0  0
 57131  1  0  0  0  0
 57132  1  0  0  0  0
 57133  1  0  0  0  0
 58134  1  0  0  0  0
 70135  1  0  0  0  0
 70136  1  0  0  0  0
 71137  1  0  0  0  0
 71138  1  0  0  0  0
 71139  1  0  0  0  0
 72140  1  0  0  0  0
 72141  1  0  0  0  0
 73142  1  0  0  0  0
 73143  1  0  0  0  0
 73144  1  0  0  0  0
 83145  1  0  0  0  0
 83146  1  0  0  0  0
 84147  1  0  0  0  0
 84148  1  0  0  0  0
 84149  1  0  0  0  0
 88150  1  0  0  0  0
 88151  1  0  0  0  0
 89152  1  0  0  0  0
 89153  1  0  0  0  0
 89154  1  0  0  0  0
 90155  1  0  0  0  0
 96156  1  0  0  0  0
 97157  1  0  0  0  0
M  END
