151

C         10.31770       -5.12110       -0.36540
C         10.86420       -6.38400       -0.33220
C         10.16770       -7.67960       -0.24720
O          8.97450       -7.90380       -0.20670
C         11.23550       -8.70530       -0.20200
C         12.49320       -8.08000       -0.25880
C         13.64790       -8.84540       -0.23020
C         13.53000      -10.22510       -0.14660
C         12.28800      -10.83710       -0.09190
Br        12.19410      -12.72210        0.01900
C         11.11020      -10.08220       -0.11780
Cl         9.57640      -10.83910       -0.04940
C         12.29080       -6.63420       -0.34910
C         13.30590       -5.71520       -0.45740
C         13.17230       -4.31720       -0.58590
N         13.18340       -3.17330       -0.69960
C         14.67730       -6.04680       -0.47000
N         15.80990       -6.23570       -0.48170
C          8.99230       -4.67160       -0.41530
C          7.76840       -5.31630       -0.50270
C          6.68330       -4.45300       -0.58670
S          5.01530       -4.97820       -0.72800
C          5.06350       -6.68580       -0.07170
C          5.39740       -6.72690        1.40540
C          7.04560       -3.09480       -0.59230
S          8.76590       -2.93050       -0.45170
C          6.21420       -1.95500       -0.67160
C          6.61340       -0.62500       -0.78380
C          7.99860       -0.16580       -0.95100
C          8.60390        0.60150        0.03700
C          9.91390        1.01350       -0.12470
C         10.61950        0.66810       -1.26330
C         10.01860       -0.07440       -2.27220
C         10.78910       -0.49740       -3.48810
C         11.30880       -1.92570       -3.30970
C          8.70240       -0.47850       -2.10910
C          5.52100        0.24700       -0.75780
S          5.40450        1.98530       -0.89680
C          3.68160        1.84330       -0.81050
C          2.54450        2.65970       -0.89960
C          2.41360        4.03330       -1.20110
C          1.10180        4.57400       -1.41060
N          1.13000        5.85230       -1.75380
S          2.67480        6.33530       -1.80320
N          3.36700        4.93170       -1.39080
C         -0.01950        3.74900       -1.17500
C         -1.39120        4.03960       -1.16220
S         -2.44680        5.36800       -1.49760
C         -3.79560        4.38890       -0.97290
C         -5.17570        4.64550       -0.91010
C         -5.75320        5.90100       -1.40000
C         -6.75770        5.89490       -2.36570
C         -7.26000        7.09070       -2.84130
C         -6.76290        8.29500       -2.37050
C         -5.75020        8.31830       -1.42090
C         -5.15070        9.61280       -0.95500
C         -3.86570        9.90590       -1.73250
C         -5.25140        7.11370       -0.94470
C         -5.86640        3.55540       -0.40010
S         -4.80700        2.19880       -0.04620
C         -3.42810        3.10350       -0.56230
C         -2.04820        2.89900       -0.68960
N         -1.13700        1.90740       -0.44180
C          0.11810        2.39370       -0.75840
C          1.41140        1.80910       -0.75390
N          1.85690        0.50270       -0.61400
C          3.22740        0.52810       -0.66510
C          4.27950       -0.39210       -0.64660
S          4.46210       -2.10760       -0.55650
C          1.18570       -0.73350       -0.95540
C          0.92430       -0.81490       -2.45770
C         -1.52100        0.76010        0.34860
C         -2.27150       -0.28510       -0.47530
C         -7.24490        3.43360       -0.08270
C         -8.17570        4.45620       -0.01890
C         -9.44360        4.00910        0.32590
S        -10.86960        5.00430        0.46360
C        -10.34450        6.60310       -0.25470
C         -9.66110        7.50850        0.75240
C         -9.50570        2.61770        0.56530
S         -7.92780        1.89420        0.33750
C        -10.68690        1.96630        0.91000
C        -10.92040        0.64150        1.20770
C         -9.90230       -0.40590        1.26470
O         -8.70980       -0.30160        1.02210
C        -10.59790       -1.63460        1.68450
C        -10.08370       -2.87980        1.89860
C        -10.94770       -3.91930        2.31060
C        -10.47220       -5.22440        2.54930
C        -11.31860       -6.22040        2.95100
C        -12.67730       -5.92570        3.12360
F        -13.49540       -6.91900        3.52020
C        -13.19050       -4.67750        2.90480
C        -12.33300       -3.64000        2.49100
C        -12.83600       -2.33780        2.25780
C        -11.98070       -1.34650        1.85940
C        -12.20160        0.06640        1.55030
C        -13.42270        0.69400        1.57520
C        -13.67100        2.04430        1.25400
N        -13.97330        3.12580        1.00970
C        -14.62980        0.05470        1.92380
N        -15.64850       -0.40410        2.19080
H         11.02960       -4.30480       -0.36380
H         14.62770       -8.40110       -0.27020
H         14.41780      -10.83820       -0.12380
H          7.70090       -6.38700       -0.51510
H          5.76130       -7.27050       -0.66820
H          4.05210       -7.04830       -0.25590
H          6.40120       -6.35010        1.58830
H          5.34820       -7.75390        1.76030
H          4.69010       -6.12560        1.97270
H          8.05250        0.85670        0.92980
H         10.38840        1.60190        0.64610
H         11.64790        0.97870       -1.37340
H         10.14470       -0.45490       -4.36920
H         11.63280        0.17560       -3.64740
H         10.47950       -2.61600       -3.16710
H         11.87120       -2.23650       -4.18710
H         11.95890       -1.98890       -2.44040
H          8.21560       -1.05290       -2.88530
H         -7.13380        4.95350       -2.73870
H         -8.03890        7.08560       -3.59010
H         -7.16060        9.22500       -2.75040
H         -5.86010       10.42880       -1.10550
H         -4.91930        9.55150        0.11050
H         -3.14670        9.10170       -1.59400
H         -3.41890       10.83610       -1.39020
H         -4.07910        9.99310       -2.79540
H         -4.46870        7.11710       -0.20010
H          0.25720       -0.84360       -0.40380
H          1.85310       -1.54510       -0.65420
H          0.44400       -1.75870       -2.70040
H          1.86150       -0.75280       -3.00570
H          0.28350        0.00340       -2.78030
H         -0.63060        0.34990        0.82690
H         -2.18560        1.11580        1.14430
H         -2.46200       -1.16500        0.13280
H         -1.70890       -0.57820       -1.35720
H         -3.22740        0.11600       -0.80070
H         -7.91760        5.48070       -0.20040
H         -9.71490        6.39280       -1.11800
H        -11.27830        7.04880       -0.59740
H         -9.37540        8.44090        0.26940
H        -10.33570        7.73280        1.57510
H         -8.76630        7.04490        1.16110
H        -11.54160        2.63220        0.95090
H         -9.03020       -3.07020        1.75690
H         -9.42080       -5.42680        2.40950
H        -10.97090       -7.22400        3.13840
H        -14.24280       -4.48660        3.04730
H        -13.88930       -2.16190        2.40440
