175

C         -0.37710        8.07370       -9.48960
C          0.55080        8.73280       -8.71420
C          0.83380        8.44080       -7.31040
O          0.32000        7.58620       -6.61070
C          1.88440        9.39650       -6.89960
C          2.21680       10.21740       -7.99330
C          3.18180       11.20060       -7.85000
C          3.80310       11.34840       -6.61760
C          3.47430       10.53490       -5.54510
Br         4.35940       10.78340       -3.89380
C          2.50100        9.53670       -5.66780
Cl         2.08940        8.52980       -4.34620
C          1.40210        9.81840       -9.14270
C          1.46840       10.39100      -10.38900
C          2.33130       11.45310      -10.72920
N          3.00660       12.31580      -11.07290
C          0.70170       10.01190      -11.50980
N          0.12150        9.76530      -12.47070
C         -1.24260        7.02590       -9.16400
C         -2.11730        6.46740      -10.09860
C         -2.89670        5.42960       -9.61240
S         -3.99090        4.44380      -10.56860
C         -3.29620        4.60640      -12.25560
C         -1.90720        4.01210      -12.37600
C         -2.65320        5.18670       -8.25300
S         -1.42060        6.23090       -7.61970
C         -3.21030        4.20790       -7.39070
C         -4.48150        3.64990       -7.34200
C         -5.63770        4.11080       -8.10480
C         -6.56730        3.19780       -8.59610
C         -7.67070        3.64770       -9.29420
C         -7.86330        5.00230       -9.50090
C         -6.95400        5.92910       -9.00600
C         -7.18600        7.40190       -9.18520
C         -8.03390        7.95350       -8.03760
C         -5.85010        5.47300       -8.30440
C         -4.56150        2.66450       -6.33880
S         -5.86630        1.64410       -5.77770
C         -4.81980        1.00500       -4.55580
C         -4.86110        0.10340       -3.47590
C         -5.90640       -0.61680       -2.85280
C         -5.64380       -1.31440       -1.61900
N         -6.73400       -1.86930       -1.11410
S         -7.97840       -1.55560       -2.10080
N         -7.17780       -0.69440       -3.21170
C         -4.31690       -1.39080       -1.13690
C         -3.71440       -2.06690       -0.05850
S         -4.16990       -3.00460        1.32350
C         -2.48240       -3.16740        1.74510
C         -1.82660       -3.77310        2.84180
C         -2.54330       -4.57050        3.84010
C         -3.47250       -5.51130        3.39870
C         -4.16120       -6.28330        4.31340
C         -3.93470       -6.12520        5.66960
C         -3.02230       -5.18310        6.12540
C         -2.74080       -5.03040        7.59160
C         -1.59380       -5.95110        8.01140
C         -2.33400       -4.40790        5.20310
C         -0.46180       -3.59770        2.75550
S          0.02240       -2.70900        1.31650
C         -1.62820       -2.53360        0.84370
C         -2.33160       -1.89840       -0.18670
N         -2.04730       -1.12610       -1.28550
C         -3.25880       -0.77700       -1.85360
C         -3.55720        0.10040       -2.91660
N         -2.76030        1.00910       -3.58780
C         -3.53110        1.55080       -4.58700
C         -3.38480        2.50030       -5.60180
S         -2.13760        3.55440       -6.15590
C         -1.66480        1.77250       -3.02290
C         -2.15200        3.10970       -2.46580
C         -0.78630       -1.26950       -1.98580
C         -0.53180       -2.72470       -2.37740
C          0.62400       -4.06710        3.57270
C          1.81080       -4.59870        3.14370
C          2.59000       -4.85930        4.29830
C          3.87780       -5.39370        4.51000
C          4.72690       -5.93810        3.48550
C          4.40850       -6.34790        2.21700
C          5.52830       -6.83430        1.52170
F          5.43830       -7.29060        0.25760
C          6.70280       -6.82060        2.21600
C          8.05460       -7.23630        1.75000
C          8.97850       -6.02990        1.57270
S          6.42480       -6.18920        3.80080
C          4.29100       -5.34160        5.84020
C          3.51380       -4.84730        6.92080
C          2.19900       -4.36880        6.71490
C          1.38070       -3.82540        7.76360
S          0.13880       -2.65870        7.39360
C         -0.27100       -2.45010        9.05760
C         -1.31940       -1.48290        9.49590
C         -2.39250       -2.13600       10.36870
C          0.51240       -3.27010        9.82200
C          1.44410       -4.04720        9.11560
F          0.41510       -3.32810       11.16190
C          1.79480       -4.40190        5.38250
O          0.59990       -3.95660        4.92630
C          4.35420       -4.92650        8.05010
C          5.55660       -5.46240        7.63170
O          5.50210       -5.71990        6.27960
C          6.81040       -5.77730        8.20130
C          7.34610       -5.68750        9.46400
C          6.56080       -5.25750       10.63850
O          5.35790       -5.07330       10.60720
N          7.24140       -5.07600       11.82420
C          6.47470       -4.58990       12.96820
C          6.43840       -3.06750       12.99470
C          8.59510       -5.28980       12.02840
O          9.11520       -5.04900       13.09630
C          9.31420       -5.83970       10.87470
C          8.73180       -6.03400        9.65700
C          9.54960       -6.58700        8.53020
C         10.67280       -6.14780       11.10540
N         11.77540       -6.40290       11.29100
H         -0.47270        8.40170      -10.51730
H          3.46050       11.84850       -8.66370
H          4.55770       12.10850       -6.48650
H         -2.15330        6.83240      -11.10940
H         -3.32550        5.65560      -12.54510
H         -4.01000        4.05700      -12.86910
H         -1.56430        4.08460      -13.40600
H         -1.20000        4.53910      -11.73880
H         -1.91950        2.96440      -12.08480
H         -6.40830        2.14030       -8.45230
H         -8.38440        2.93660       -9.68280
H         -8.72690        5.34610      -10.05180
H         -7.70030        7.58160      -10.13140
H         -6.22870        7.92680       -9.21130
H         -7.53010        7.79750       -7.08630
H         -8.99600        7.44760       -8.00130
H         -8.20600        9.01920       -8.16940
H         -5.14620        6.18500       -7.89660
H         -3.64080       -5.64540        2.34080
H         -4.87780       -7.01290        3.96660
H         -4.47590       -6.73240        6.38090
H         -3.63240       -5.27640        8.17200
H         -2.46510       -3.99570        7.79960
H         -0.70540       -5.74080        7.41960
H         -1.86730       -6.99230        7.85660
H         -1.35330       -5.80760        9.06240
H         -1.64140       -3.65680        5.54810
H         -0.92210        1.94500       -3.80800
H         -1.21310        1.20730       -2.21060
H         -2.91920        2.94460       -1.71210
H         -1.31950        3.63680       -2.00840
H         -2.56370        3.73510       -3.25260
H          0.02080       -0.91440       -1.33660
H         -0.81730       -0.67120       -2.89490
H         -1.35050       -3.09720       -2.98930
H          0.38980       -2.79010       -2.94900
H         -0.43720       -3.35520       -1.49810
H          2.07430       -4.75840        2.11980
H          3.42230       -6.34690        1.79680
H          8.49620       -7.92390        2.47570
H          7.94550       -7.76180        0.79890
H          9.09000       -5.49890        2.51550
H          9.95920       -6.35570        1.23660
H          8.56860       -5.34410        0.83480
H         -1.77860       -1.03670        8.61160
H         -0.84160       -0.68050       10.06740
H         -1.95040       -2.55820       11.26660
H         -3.12810       -1.39220       10.66370
H         -2.90110       -2.92910        9.82620
H          2.09640       -4.75080        9.59570
H          4.14230       -4.61860        9.04960
H          7.47430       -6.14370        7.42810
H          6.96000       -4.97220       13.86760
H          5.46500       -4.99510       12.88330
H          5.86560       -2.73110       13.85410
H          7.44790       -2.67020       13.06990
H          5.96990       -2.68560       12.09030
H          9.65030       -5.85290        7.73140
H          9.08520       -7.48280        8.12040
H         10.54560       -6.84460        8.88150
