142

C          9.18140        5.24390       -4.25280
C         10.08650        5.06900       -5.26990
C         10.40490        3.83170       -6.00990
O         10.07820        2.69190       -5.75960
C         11.23630        4.26350       -7.15890
C         11.47000        5.64790       -7.08090
C         12.20970        6.28360       -8.06510
C         12.71080        5.52520       -9.11280
C         12.48650        4.15900       -9.18100
Br        13.20080        3.18130      -10.63170
C         11.74010        3.49840       -8.19850
Cl        11.45900        1.81260       -8.28580
C         10.82500        6.16020       -5.87370
C         10.97320        7.43400       -5.38580
C         10.46120        7.91790       -4.16270
N         10.11280        8.39000       -3.17480
C         11.71910        8.44470       -6.02790
N         12.30170        9.31510       -6.49840
C          8.37310        4.33710       -3.55210
C          8.26460        2.95540       -3.53530
C          7.32290        2.48850       -2.62960
S          7.00970        0.76300       -2.40090
C          7.95410        0.50370       -0.84920
C          9.44350        0.68330       -1.05680
C          6.65980        3.49260       -1.91560
S          7.26070        5.04710       -2.38580
C          5.59190        3.34690       -1.00040
C          4.97660        4.33790       -0.24010
C          5.44940        5.71820       -0.09940
C          4.60320        6.77420       -0.41740
C          5.05330        8.07530       -0.28770
C          6.33620        8.32810        0.16120
C          7.18800        7.28370        0.50440
C          8.56440        7.56680        1.03100
C          8.51190        7.91680        2.51940
C          6.72950        5.98240        0.38000
C          3.82890        3.85500        0.40020
S          2.64460        4.62140        1.43350
C          1.78290        3.12220        1.50870
C          0.59630        2.60650        2.05670
C         -0.36460        3.13900        2.94530
C         -1.45930        2.30770        3.36870
N         -2.24500        2.91670        4.24230
S         -1.66630        4.40480        4.50700
N         -0.38900        4.33260        3.51650
C         -1.62770        1.03520        2.77580
C         -2.68850        0.11480        2.81050
S         -4.21290       -0.09890        3.60180
C         -4.48950       -1.52240        2.62830
C         -5.55730       -2.43720        2.56820
C         -6.73140       -2.36210        3.44120
C         -7.43920       -1.17050        3.55570
C         -8.54490       -1.10760        4.38320
C         -8.94880       -2.22240        5.09560
C         -8.24350       -3.41670        5.00460
C         -8.65460       -4.61660        5.80670
C         -7.96720       -4.61080        7.17330
C         -7.12740       -3.46970        4.18450
C         -5.32870       -3.41540        1.61610
S         -3.76710       -3.22350        0.82110
C         -3.43960       -1.80610        1.75130
C         -2.40410       -0.87150        1.85940
N         -1.19210       -0.62730        1.26650
C         -0.69240        0.53720        1.82960
C          0.49730        1.26530        1.59840
N          1.62800        0.94750        0.87040
C          2.39500        2.08330        0.79340
C          3.56810        2.50100        0.16120
S          4.76050        1.79540       -0.87110
C          2.20840       -0.37080        0.73100
C          3.46570       -0.52790        1.58470
C         -0.90590       -1.19230       -0.03870
C         -0.96310       -0.13760       -1.13910
C         -6.18260       -4.45370        1.15300
C         -5.81260       -5.49690        0.33250
C         -6.86800       -6.34000       -0.03930
S         -6.67370       -7.82050       -0.92540
C         -4.95600       -8.30570       -0.49180
C         -4.78140       -8.57240        0.99000
C         -8.09740       -5.92480        0.48840
S         -7.88260       -4.50000        1.49240
C         -9.37970       -6.48630        0.46670
C         -9.93820       -7.30290       -0.48690
C         -9.46320       -7.42200       -1.87740
O         -8.48450       -6.88450       -2.36560
C        -10.47690       -8.23520       -2.56330
C        -10.69010       -8.72790       -3.80760
S        -12.16920       -9.61930       -3.86750
C        -12.50370       -9.31960       -2.20170
C        -11.51770       -8.57140       -1.63740
C        -11.19630       -8.00740       -0.34140
C        -11.93840       -8.18770        0.79830
C        -11.59730       -7.71430        2.07920
N        -11.35900       -7.37610        3.15130
C        -13.14530       -8.91490        0.77650
N        -14.13290       -9.50030        0.77200
H          9.02580        6.26860       -3.93550
H         12.39790        7.34360       -8.04050
H         13.28640        6.00090       -9.89170
H          8.85140        2.30900       -4.16160
H          7.71350       -0.51730       -0.55680
H          7.56220        1.19340       -0.10140
H          9.80310        0.00400       -1.82560
H          9.67120        1.70240       -1.36400
H          9.97320        0.47470       -0.12930
H          3.60740        6.57180       -0.78230
H          4.39920        8.89520       -0.54440
H          6.68600        9.34630        0.24580
H          9.00070        8.40040        0.47790
H          9.20280        6.69320        0.88690
H          9.51070        8.12450        2.89550
H          7.89050        8.79430        2.68190
H          8.09070        7.09080        3.08870
H          7.37310        5.15760        0.65470
H         -7.13270       -0.30670        2.98530
H         -9.09730       -0.18350        4.46770
H         -9.82140       -2.16820        5.73020
H         -9.73660       -4.61240        5.94670
H         -8.38690       -5.52880        5.27030
H         -6.88580       -4.62580        7.05460
H         -8.26570       -5.48210        7.75100
H         -8.23680       -3.71570        7.72950
H         -6.55300       -4.38370        4.12280
H          2.44810       -0.55490       -0.32160
H          1.47510       -1.09550        1.07840
H          3.80700       -1.55830        1.53470
H          4.26600        0.11440        1.23020
H          3.24950       -0.28110        2.62220
H         -1.67260       -1.94970       -0.21890
H          0.06020       -1.69960       -0.05350
H         -1.93070        0.35900       -1.13410
H         -0.18900        0.61270       -1.00240
H         -0.82070       -0.61210       -2.10590
H         -4.79650       -5.62290        0.00380
H         -4.26800       -7.54630       -0.85900
H         -4.80530       -9.21730       -1.06930
H         -3.77180       -8.92870        1.18460
H         -4.94640       -7.66820        1.57210
H         -5.48720       -9.32970        1.32240
H        -10.00530       -6.19920        1.30390
H        -10.08370       -8.63570       -4.68600
H        -13.40020       -9.71190       -1.76490
