172

C          8.95660       -7.85290        1.78250
C          8.42720       -9.11160        1.61860
C          7.11150       -9.40520        1.04880
O          6.31000       -8.61470        0.58570
C          6.94290      -10.87010        1.14780
C          8.09780      -11.43210        1.72290
C          8.17160      -12.80070        1.92540
C          7.09190      -13.58750        1.55040
C          5.95750      -13.02860        0.98320
Br         4.52100      -14.15460        0.49550
C          5.86140      -11.64870        0.76980
Cl         4.46240      -10.95110        0.07250
C          9.04920      -10.35730        2.01030
C         10.30150      -10.53810        2.54030
C         11.24000       -9.51810        2.80240
N         12.06300       -8.75270        3.04020
C         10.84080      -11.79340        2.89150
N         11.34000      -12.78060        3.19880
C          8.42480       -6.60070        1.45670
C          9.10530       -5.41020        1.71950
C          8.42390       -4.26810        1.33970
S          9.12980       -2.65730        1.54150
C          9.34130       -2.19620       -0.22030
C         10.32800       -3.10430       -0.92480
C          7.17390       -4.54970        0.77800
S          6.88790       -6.25810        0.69530
C          6.16490       -3.65690        0.34370
C          6.01910       -2.30870        0.61500
C          4.84360       -1.79640        0.07450
S          4.09020       -0.22770        0.11430
C          2.75930       -0.86520       -0.79160
C          1.50840       -0.35240       -1.25920
C          0.92460        0.90370       -1.12000
C         -0.34530        1.06550       -1.62190
C         -1.20320        2.32140       -1.63780
C         -0.50410        3.29670       -2.57130
C          0.53960        4.07870       -2.09100
C          1.22250        4.93360       -2.93430
C          0.89000        5.02550       -4.27990
C          1.60280        5.98590       -5.18750
C          0.86720        7.32670       -5.23290
C         -0.15090        4.24000       -4.75520
C         -0.83810        3.38290       -3.91500
C         -1.53260        2.94060       -0.29610
C         -1.91860        4.27520       -0.23450
C         -2.36710        4.82340        0.95000
C         -2.44260        4.05510        2.10550
C         -2.99980        4.65170        3.36580
C         -4.52290        4.76700        3.27230
C         -2.04110        2.72820        2.04350
C         -1.59590        2.17200        0.85630
C         -2.48500        1.77400       -2.20600
C         -2.32920        0.46460       -2.58880
C         -1.01520       -0.00620       -2.25940
C         -0.42240       -1.25310       -2.42120
C          0.84920       -1.41420       -1.92010
C          1.70800       -2.66720       -1.92880
C          0.93710       -3.81170       -1.30240
C          0.10240       -4.59720       -2.08770
C         -0.63060       -5.62260       -1.52260
C         -0.55120       -5.89150       -0.16210
C         -1.37970       -6.98170        0.45350
C         -2.75240       -6.44230        0.86070
C          0.27450       -5.09570        0.61970
C          1.00730       -4.06530        0.05970
C          2.23430       -3.03490       -3.30660
C          2.15210       -2.16460       -4.38320
C          2.68140       -2.52160       -5.61090
C          3.31010       -3.74560       -5.79120
C          3.91820       -4.11210       -7.11440
C          5.38290       -3.67340       -7.17050
C          3.40520       -4.60500       -4.70340
C          2.87600       -4.25620       -3.47650
C          2.88830       -2.20350       -1.11860
C          4.07640       -2.74180       -0.62970
S          4.82620       -4.29160       -0.61070
S         -3.78270       -0.26050       -3.22060
C         -4.61680        1.21770       -2.89350
S         -6.27480        1.66180       -3.00770
C         -5.90620        3.20740       -2.24320
C         -4.56840        3.35460       -1.98120
C         -3.81310        2.22670       -2.34310
C         -6.92960        4.11310       -1.85940
C         -8.27130        4.09420       -2.19160
C         -8.98480        5.11920       -1.58530
S        -10.71130        5.34640       -1.86270
C        -10.68540        6.94610       -2.77970
C        -12.10830        7.40810       -3.01130
C         -8.21590        5.91240       -0.71360
S         -6.54450        5.40210       -0.76490
C         -8.76720        6.87140        0.14140
C         -8.17300        7.62190        1.12880
C         -6.76160        7.56460        1.51680
O         -5.85250        6.97780        0.95120
C         -6.63910        8.35860        2.74880
C         -5.53890        8.55780        3.53070
C         -5.65780        9.35140        4.69320
C         -4.55580        9.59030        5.53890
C         -4.68330       10.36110        6.66100
C         -5.93450       10.91470        6.96370
F         -6.04090       11.67050        8.07170
C         -7.03560       10.71260        6.17850
C         -6.92210        9.92270        5.01830
C         -8.04430        9.69820        4.18540
C         -7.90520        8.92710        3.06310
C         -8.85940        8.52370        2.03150
C        -10.14930        8.97970        1.93240
C        -11.04790        8.68030        0.88940
N        -11.82850        8.51450        0.06280
C        -10.74430        9.86890        2.85130
N        -11.28780       10.58780        3.56280
H          9.93130       -7.78990        2.25090
H          9.03780      -13.26570        2.36500
H          7.12990      -14.65540        1.70140
H         10.07930       -5.38740        2.17570
H          9.70250       -1.16920       -0.18540
H          8.36070       -2.21840       -0.69530
H          9.96080       -4.12890       -0.94650
H         10.47180       -2.76720       -1.94940
H         11.28840       -3.09130       -0.41470
H          6.71180       -1.74490        1.21250
H          1.44810        1.70140       -0.61670
H          0.80910        4.02870       -1.04610
H          2.02880        5.53690       -2.54180
H          1.65540        5.57090       -6.19620
H          2.62190        6.14620       -4.83030
H          1.38100        8.02050       -5.89410
H         -0.14900        7.18900       -5.59570
H          0.81840        7.76540       -4.23870
H         -0.42700        4.29520       -5.79870
H         -1.64100        2.77960       -4.31270
H         -1.86730        4.88830       -1.12300
H         -2.67950        5.85720        0.97410
H         -2.73230        4.03150        4.22360
H         -2.57330        5.64620        3.51880
H         -4.96740        3.78180        3.14810
H         -4.80690        5.37740        2.41800
H         -4.92820        5.21810        4.17610
H         -2.08720        2.11410        2.93180
H         -1.30450        1.13160        0.82410
H         -0.94840       -2.05880       -2.90950
H          0.03800       -4.41410       -3.15070
H         -1.27030       -6.22800       -2.14910
H         -1.51130       -7.79560       -0.26230
H         -0.87310       -7.38000        1.33470
H         -3.27840       -6.05170       -0.00760
H         -3.35440       -7.23060        1.30640
H         -2.64310       -5.63700        1.58390
H          0.34940       -5.28540        1.68110
H          1.63960       -3.45760        0.69090
H          1.67010       -1.20460       -4.26880
H          2.60100       -1.83540       -6.44210
H          3.86120       -5.19260       -7.26080
H          3.36650       -3.62770       -7.92240
H          5.82350       -3.93940       -8.12850
H          5.95270       -4.15610       -6.37970
H          5.46030       -2.59630       -7.03920
H          3.89620       -5.56050       -4.81850
H          2.95220       -4.94070       -2.64390
H         -4.16190        4.22900       -1.50780
H         -8.71400        3.37640       -2.85910
H        -10.16560        6.75320       -3.71900
H        -10.12610        7.67070       -2.19070
H        -12.10260        8.31640       -3.61000
H        -12.67730        6.64460       -3.53670
H        -12.59140        7.61930       -2.06150
H         -9.84260        6.96740        0.03810
H         -4.59040        8.11420        3.26800
H         -3.60210        9.15270        5.28450
H         -3.85040       10.55470        7.31810
H         -7.98320       11.15530        6.44290
H         -8.98680       10.14080        4.46430
