201

C          8.66550        5.09710       -9.43180
C          7.82460        5.81310      -10.24360
C          6.44450        6.24200       -9.92420
O          5.85630        6.17500       -8.86680
C          5.87020        6.71040      -11.20490
C          6.83060        6.60060      -12.22630
C          6.50710        6.96740      -13.52300
C          5.23060        7.44650      -13.77820
C          4.29070        7.56420      -12.76580
Br         2.57300        8.23530      -13.17810
C          4.59430        7.19330      -11.45090
Cl         3.43790        7.34130      -10.19840
C          8.06780        6.08250      -11.64710
C          9.25800        5.95270      -12.31460
C         10.48050        5.54760      -11.73650
N         11.51860        5.25190      -11.34490
C          9.43330        6.24260      -13.68400
N          9.64000        6.45430      -14.79320
C          8.53950        4.83310       -8.05290
C          7.82710        5.48700       -7.07450
C          7.88640        4.86740       -5.81550
C          7.21060        5.25930       -4.63400
C          6.29860        6.38160       -4.62980
C          5.41180        6.76180       -5.59940
C          4.67840        7.91070       -5.23840
Cl         3.49200        8.60650       -6.27190
C          4.99490        8.42550       -4.01310
C          4.39410        9.59210       -3.31090
C          3.24770        9.14770       -2.39890
S          6.21310        7.45820       -3.26040
C          7.43050        4.47180       -3.51380
C          8.27770        3.33430       -3.51730
C          8.98730        2.96810       -4.68150
C          9.91200        1.85570       -4.65530
C         10.77070        1.50790       -3.64770
C         11.53000        0.35880       -3.93550
C         11.26020       -0.17710       -5.15790
C         11.82570       -1.40800       -5.77690
C         10.83490       -2.57170       -5.69640
S         10.05150        0.74490       -5.98850
C          8.73910        3.72960       -5.81670
S          9.41770        3.45580       -7.39310
C          8.20690        2.61820       -2.30340
C          7.36200        3.17440       -1.38350
S          6.62450        4.64790       -1.97710
C          6.96820        2.61660       -0.13350
C          7.58600        1.60370        0.58130
C          8.94320        1.10770        0.34220
C         10.00770        1.99800        0.21610
C         11.28690        1.51630        0.01910
C         11.51640        0.15230       -0.05530
C         10.46760       -0.74830        0.07170
C         10.71050       -2.22940        0.04930
C         10.82950       -2.76590        1.47730
C          9.18540       -0.25890        0.27700
C          6.74980        1.12720        1.60910
S          6.89920       -0.19030        2.74860
C          5.28920        0.13040        3.30130
C          4.32310       -0.43220        4.15700
C          4.35060       -1.50650        5.07370
C          3.14580       -1.85400        5.78120
N          3.33120       -2.85360        6.62830
S          4.87830       -3.32110        6.54570
N          5.37560       -2.26870        5.42030
C          1.93690       -1.20100        5.44740
C          0.59430       -1.49620        5.74310
S         -0.32870       -2.64020        6.66150
C         -1.78920       -1.99770        5.94860
C         -3.14320       -2.36050        6.05580
C         -3.65440       -3.45600        6.89040
C         -4.49780       -3.19020        7.96470
C         -5.00360       -4.23590        8.71240
C         -4.68530       -5.54270        8.38640
C         -3.83380       -5.82210        7.32610
C         -3.53130       -7.23730        6.92740
C         -4.42610       -7.65240        5.75790
C         -3.31270       -4.76750        6.59080
C         -3.94330       -1.57580        5.24760
S         -3.02560       -0.35380        4.37610
C         -1.55530       -0.93550        5.07140
C         -0.19090       -0.64910        4.95430
N          0.60340        0.18840        4.21510
C          1.91800       -0.13860        4.50450
C          3.14110        0.33210        3.97480
N          3.40230        1.38110        3.11110
C          4.69440        1.22900        2.67280
C          5.52730        1.79680        1.70310
S          5.39060        3.03850        0.51170
C          2.76810        2.68240        3.13810
C          3.69560        3.74890        3.71880
C          0.06690        0.80370        3.01750
C          0.51920        0.07320        1.75650
C         -5.32360       -1.72270        4.94110
C         -6.07340       -0.88670        4.15920
C         -7.38030       -1.35670        3.90910
C         -8.39780       -0.73610        3.15540
C         -8.22110        0.53880        2.48920
C         -9.13910        1.54280        2.36520
C         -8.66200        2.62810        1.60040
Cl        -9.60800        4.03490        1.30280
C         -7.39160        2.47170        1.12800
C         -6.60720        3.38480        0.25230
C         -6.84520        3.06320       -1.22530
S         -6.75780        0.94480        1.63420
C         -9.59780       -1.43050        3.05010
C         -9.83210       -2.68890        3.66890
C         -8.83400       -3.27590        4.48820
C         -9.08850       -4.49000        5.22530
C        -10.26230       -4.89220        5.80930
C        -10.15550       -6.11830        6.48760
C         -8.90840       -6.66500        6.43080
C         -8.44190       -7.96470        6.98910
C         -8.31140       -9.02400        5.89200
S         -7.82680       -5.65500        5.53190
C         -7.62210       -2.60010        4.54920
S         -6.22240       -3.13580        5.44200
C        -11.07040       -3.24070        3.29890
C        -11.81040       -2.44200        2.45710
S        -10.95580       -0.94480        2.08370
C        -13.05600       -2.62760        1.82470
C        -14.01970       -3.58620        1.99270
C        -14.12380       -4.61140        3.05670
O        -13.31460       -4.91230        3.91070
C        -15.46870       -5.20100        2.90890
C        -16.07250       -6.17120        3.68650
C        -17.36080       -6.56870        3.36860
C        -18.01590       -5.98710        2.28870
Cl       -19.62190       -6.48570        1.91550
C        -17.41770       -5.01240        1.49590
C        -16.12750       -4.62160        1.81250
C        -15.22770       -3.65380        1.18670
C        -15.47160       -3.00570        0.00490
C        -16.66760       -3.13260       -0.73420
N        -17.61370       -3.18230       -1.38230
C        -14.57290       -2.15830       -0.67980
N        -13.90520       -1.47920       -1.32140
H          9.51200        4.61100       -9.90230
H          7.21440        6.88580      -14.33100
H          4.95780        7.73620      -14.78130
H          7.31270        6.40990       -7.25170
H          5.25220        6.23440       -6.52170
H          5.15950       10.09200       -2.71420
H          4.01690       10.29540       -4.05600
H          3.60990        8.44150       -1.65500
H          2.46690        8.66700       -2.98330
H          2.82150       10.00710       -1.88800
H         10.88450        2.07870       -2.74350
H         12.25550       -0.05270       -3.25670
H         12.06730       -1.21540       -6.82460
H         12.74720       -1.67340       -5.25460
H          9.91840       -2.32200       -6.22600
H         10.58740       -2.78640       -4.65920
H         11.26420       -3.46400       -6.14480
H          8.70300        1.68040       -2.14190
H          9.82530        3.06070        0.28020
H         12.11250        2.20720       -0.07240
H         12.52080       -0.21550       -0.20850
H          9.88270       -2.73200       -0.45530
H         11.62920       -2.44840       -0.49830
H         11.65950       -2.28760        1.99240
H         10.99930       -3.83990        1.46690
H          9.91840       -2.56220        2.03520
H          8.35990       -0.94920        0.37200
H         -4.75250       -2.16830        8.20500
H         -5.65720       -4.03180        9.54750
H         -5.09930       -6.35550        8.96610
H         -2.48420       -7.32430        6.63030
H         -3.70350       -7.90670        7.77220
H         -5.47310       -7.53570        6.02640
H         -4.24560       -8.69030        5.48760
H         -4.23190       -7.02650        4.89030
H         -2.64950       -4.96610        5.76100
H          2.46820        2.96380        2.12290
H          1.89210        2.61370        3.78110
H          4.55420        3.91770        3.07590
H          4.04790        3.44540        4.70240
H          3.15200        4.68470        3.81650
H         -1.02070        0.74620        3.10290
H          0.33390        1.85860        2.95690
H          0.04860        0.52140        0.88610
H          0.23210       -0.97460        1.80660
H          1.59820        0.13130        1.63910
H         -5.68380        0.03810        3.77470
H        -10.10910        1.53360        2.82630
H         -5.54420        3.28540        0.48060
H         -6.91350        4.41340        0.45460
H         -6.54130        2.04200       -1.44380
H         -7.89940        3.17040       -1.46830
H         -6.27240        3.74040       -1.85330
H        -11.16620       -4.31190        5.78900
H        -10.97830       -6.57870        7.00480
H         -9.15840       -8.30240        7.74080
H         -7.47310       -7.82840        7.47600
H         -7.96530       -9.96380        6.31460
H         -7.60080       -8.69890        5.13540
H         -9.27310       -9.19000        5.41250
H        -11.40340       -4.21460        3.60150
H        -13.27530       -1.85710        1.09440
H        -15.54180       -6.60350        4.52050
H        -17.86350       -7.32400        3.95150
H        -17.96270       -4.58570        0.67050
