
  xtb     02052214313D
 energy: -394.546671671862 gnorm: 0.000971277222 xtb: 6.4.1 (unknown)
207231  0     0  0            999 V2000
   -7.3173   -1.7587  -13.6644 C   0  0  0  0  0  0  0  0  0  0  0  0
   -8.0454   -1.1967  -14.6784 C   0  0  0  0  0  0  0  0  0  0  0  0
   -7.8831    0.1691  -15.2008 C   0  0  0  0  0  0  0  0  0  0  0  0
   -7.1275    1.0311  -14.8033 O   0  0  0  0  0  0  0  0  0  0  0  0
   -8.8397    0.2863  -16.3217 C   0  0  0  0  0  0  0  0  0  0  0  0
   -9.5530   -0.9193  -16.4573 C   0  0  0  0  0  0  0  0  0  0  0  0
  -10.5093   -1.0468  -17.4526 C   0  0  0  0  0  0  0  0  0  0  0  0
  -10.7395    0.0308  -18.2952 C   0  0  0  0  0  0  0  0  0  0  0  0
  -10.0355    1.2171  -18.1555 C   0  0  0  0  0  0  0  0  0  0  0  0
  -10.3993    2.6477  -19.3336 Br  0  0  0  0  0  0  0  0  0  0  0  0
   -9.0648    1.3677  -17.1584 C   0  0  0  0  0  0  0  0  0  0  0  0
   -8.1898    2.8270  -16.9810 Cl  0  0  0  0  0  0  0  0  0  0  0  0
   -9.0929   -1.8560  -15.4330 C   0  0  0  0  0  0  0  0  0  0  0  0
   -9.5998   -3.1144  -15.2324 C   0  0  0  0  0  0  0  0  0  0  0  0
   -9.1930   -4.0206  -14.2301 C   0  0  0  0  0  0  0  0  0  0  0  0
   -8.9301   -4.8194  -13.4471 N   0  0  0  0  0  0  0  0  0  0  0  0
  -10.6323   -3.6860  -16.0062 C   0  0  0  0  0  0  0  0  0  0  0  0
  -11.4669   -4.2117  -16.5934 N   0  0  0  0  0  0  0  0  0  0  0  0
   -6.2953   -1.2219  -12.8596 C   0  0  0  0  0  0  0  0  0  0  0  0
   -5.6909   -1.9793  -11.8683 C   0  0  0  0  0  0  0  0  0  0  0  0
   -4.7167   -1.2913  -11.1359 C   0  0  0  0  0  0  0  0  0  0  0  0
   -3.9325   -1.7670  -10.0568 C   0  0  0  0  0  0  0  0  0  0  0  0
   -4.0632   -3.1296   -9.5714 C   0  0  0  0  0  0  0  0  0  0  0  0
   -5.6109   -3.7859   -9.1216 S   0  0  0  0  0  0  0  0  0  0  0  0
   -4.9256   -5.3092   -8.6730 C   0  0  0  0  0  0  0  0  0  0  0  0
   -5.7856   -6.4357   -8.2189 C   0  0  0  0  0  0  0  0  0  0  0  0
   -6.3873   -7.1774   -9.4156 C   0  0  0  0  0  0  0  0  0  0  0  0
   -3.5774   -5.2986   -8.8747 C   0  0  0  0  0  0  0  0  0  0  0  0
   -2.5512   -6.6364   -8.5563 Cl  0  0  0  0  0  0  0  0  0  0  0  0
   -3.0833   -4.0643   -9.3754 C   0  0  0  0  0  0  0  0  0  0  0  0
   -1.4345   -3.8355   -9.7782 Cl  0  0  0  0  0  0  0  0  0  0  0  0
   -3.0528   -0.8663   -9.4847 C   0  0  0  0  0  0  0  0  0  0  0  0
   -2.9120    0.4706   -9.9476 C   0  0  0  0  0  0  0  0  0  0  0  0
   -3.6490    0.9254  -11.0537 C   0  0  0  0  0  0  0  0  0  0  0  0
   -3.4405    2.2638  -11.5842 C   0  0  0  0  0  0  0  0  0  0  0  0
   -3.5582    3.6821  -10.5832 S   0  0  0  0  0  0  0  0  0  0  0  0
   -3.1344    4.7363  -11.8859 C   0  0  0  0  0  0  0  0  0  0  0  0
   -3.0954    6.2132  -11.7048 C   0  0  0  0  0  0  0  0  0  0  0  0
   -4.4540    6.8396  -12.0295 C   0  0  0  0  0  0  0  0  0  0  0  0
   -2.9266    4.0192  -13.0256 C   0  0  0  0  0  0  0  0  0  0  0  0
   -3.0979    2.6188  -12.8594 C   0  0  0  0  0  0  0  0  0  0  0  0
   -2.8165    1.5015  -14.1252 Cl  0  0  0  0  0  0  0  0  0  0  0  0
   -2.4758    4.7213  -14.5236 Cl  0  0  0  0  0  0  0  0  0  0  0  0
   -4.5531    0.0365  -11.6195 C   0  0  0  0  0  0  0  0  0  0  0  0
   -5.6327    0.3984  -12.9297 S   0  0  0  0  0  0  0  0  0  0  0  0
   -1.9744    1.1987   -9.1914 C   0  0  0  0  0  0  0  0  0  0  0  0
   -1.3977    0.4786   -8.1822 C   0  0  0  0  0  0  0  0  0  0  0  0
   -2.0218   -1.1588   -8.1106 S   0  0  0  0  0  0  0  0  0  0  0  0
   -0.4265    0.9360   -7.2493 C   0  0  0  0  0  0  0  0  0  0  0  0
    0.3177    2.1051   -7.2925 C   0  0  0  0  0  0  0  0  0  0  0  0
    0.3512    3.0629   -8.4040 C   0  0  0  0  0  0  0  0  0  0  0  0
    0.6629    2.6512   -9.6981 C   0  0  0  0  0  0  0  0  0  0  0  0
    0.6578    3.5682  -10.7308 C   0  0  0  0  0  0  0  0  0  0  0  0
    0.3586    4.8977  -10.4832 C   0  0  0  0  0  0  0  0  0  0  0  0
    0.0759    5.3297   -9.1947 C   0  0  0  0  0  0  0  0  0  0  0  0
   -0.1742    6.7799   -8.8987 C   0  0  0  0  0  0  0  0  0  0  0  0
    1.1075    7.4418   -8.3883 C   0  0  0  0  0  0  0  0  0  0  0  0
    0.0775    4.4027   -8.1614 C   0  0  0  0  0  0  0  0  0  0  0  0
    1.0706    2.2698   -6.1167 C   0  0  0  0  0  0  0  0  0  0  0  0
    2.1625    3.5260   -5.5833 S   0  0  0  0  0  0  0  0  0  0  0  0
    2.4040    2.6525   -4.1079 C   0  0  0  0  0  0  0  0  0  0  0  0
    3.1232    2.7660   -2.9080 C   0  0  0  0  0  0  0  0  0  0  0  0
    4.0824    3.7131   -2.4882 C   0  0  0  0  0  0  0  0  0  0  0  0
    4.7345    3.5264   -1.2246 C   0  0  0  0  0  0  0  0  0  0  0  0
    5.6421    4.4588   -0.9806 N   0  0  0  0  0  0  0  0  0  0  0  0
    5.6709    5.4855   -2.2327 S   0  0  0  0  0  0  0  0  0  0  0  0
    4.5258    4.7805   -3.1336 N   0  0  0  0  0  0  0  0  0  0  0  0
    4.3165    2.4651   -0.3924 C   0  0  0  0  0  0  0  0  0  0  0  0
    4.6586    2.1449    0.9306 C   0  0  0  0  0  0  0  0  0  0  0  0
    5.7127    2.7004    2.1870 S   0  0  0  0  0  0  0  0  0  0  0  0
    5.0115    1.5158    3.2653 C   0  0  0  0  0  0  0  0  0  0  0  0
    5.2503    1.2043    4.6180 C   0  0  0  0  0  0  0  0  0  0  0  0
    6.2891    1.8821    5.4007 C   0  0  0  0  0  0  0  0  0  0  0  0
    7.2531    1.1594    6.1009 C   0  0  0  0  0  0  0  0  0  0  0  0
    8.2303    1.8264    6.8140 C   0  0  0  0  0  0  0  0  0  0  0  0
    8.2717    3.2107    6.8167 C   0  0  0  0  0  0  0  0  0  0  0  0
    7.3359    3.9463    6.1020 C   0  0  0  0  0  0  0  0  0  0  0  0
    7.4205    5.4430    6.0204 C   0  0  0  0  0  0  0  0  0  0  0  0
    8.1187    5.8563    4.7229 C   0  0  0  0  0  0  0  0  0  0  0  0
    6.3460    3.2705    5.4022 C   0  0  0  0  0  0  0  0  0  0  0  0
    4.4068    0.1935    5.0523 C   0  0  0  0  0  0  0  0  0  0  0  0
    3.3568   -0.4010    3.7756 S   0  0  0  0  0  0  0  0  0  0  0  0
    4.0254    0.7338    2.6597 C   0  0  0  0  0  0  0  0  0  0  0  0
    3.8298    1.0900    1.3196 C   0  0  0  0  0  0  0  0  0  0  0  0
    3.0209    0.7187    0.2808 N   0  0  0  0  0  0  0  0  0  0  0  0
    3.3008    1.5500   -0.7918 C   0  0  0  0  0  0  0  0  0  0  0  0
    2.7799    1.6374   -2.1102 C   0  0  0  0  0  0  0  0  0  0  0  0
    1.9086    0.8403   -2.8367 N   0  0  0  0  0  0  0  0  0  0  0  0
    1.6852    1.4566   -4.0384 C   0  0  0  0  0  0  0  0  0  0  0  0
    0.9258    1.2310   -5.1925 C   0  0  0  0  0  0  0  0  0  0  0  0
   -0.1614    0.0220   -5.7744 S   0  0  0  0  0  0  0  0  0  0  0  0
    1.5885   -0.5627   -2.6895 C   0  0  0  0  0  0  0  0  0  0  0  0
    2.8487   -1.4220   -2.6323 C   0  0  0  0  0  0  0  0  0  0  0  0
    1.8725   -0.1204    0.5379 C   0  0  0  0  0  0  0  0  0  0  0  0
    0.5705    0.6737    0.4712 C   0  0  0  0  0  0  0  0  0  0  0  0
    4.2214   -0.3253    6.3647 C   0  0  0  0  0  0  0  0  0  0  0  0
    4.7296    0.1522    7.5401 C   0  0  0  0  0  0  0  0  0  0  0  0
    4.3242   -0.5792    8.6756 C   0  0  0  0  0  0  0  0  0  0  0  0
    4.6929   -0.3518   10.0144 C   0  0  0  0  0  0  0  0  0  0  0  0
    5.6225    0.7150   10.3509 C   0  0  0  0  0  0  0  0  0  0  0  0
    5.3463    2.3579    9.8509 S   0  0  0  0  0  0  0  0  0  0  0  0
    6.8366    2.9013   10.5353 C   0  0  0  0  0  0  0  0  0  0  0  0
    7.2783    4.3227   10.4561 C   0  0  0  0  0  0  0  0  0  0  0  0
    6.3073    5.1948    9.6740 C   0  0  0  0  0  0  0  0  0  0  0  0
    7.4966    1.8595   11.1171 C   0  0  0  0  0  0  0  0  0  0  0  0
    9.0223    2.0221   11.8845 Cl  0  0  0  0  0  0  0  0  0  0  0  0
    6.8125    0.6196   11.0182 C   0  0  0  0  0  0  0  0  0  0  0  0
    7.4747   -0.8471   11.6060 Cl  0  0  0  0  0  0  0  0  0  0  0  0
    4.1573   -1.2072   10.9673 C   0  0  0  0  0  0  0  0  0  0  0  0
    3.2875   -2.2799   10.6280 C   0  0  0  0  0  0  0  0  0  0  0  0
    2.9130   -2.4997    9.2852 C   0  0  0  0  0  0  0  0  0  0  0  0
    1.9686   -3.5479    8.9428 C   0  0  0  0  0  0  0  0  0  0  0  0
    2.3204   -4.7259    7.7148 S   0  0  0  0  0  0  0  0  0  0  0  0
    0.8058   -5.5286    7.9427 C   0  0  0  0  0  0  0  0  0  0  0  0
    0.4648   -6.7638    7.1851 C   0  0  0  0  0  0  0  0  0  0  0  0
    1.0406   -8.0027    7.8757 C   0  0  0  0  0  0  0  0  0  0  0  0
    0.0797   -4.9060    8.9144 C   0  0  0  0  0  0  0  0  0  0  0  0
    0.7316   -3.7796    9.4816 C   0  0  0  0  0  0  0  0  0  0  0  0
   -0.0175   -2.7783   10.6538 Cl  0  0  0  0  0  0  0  0  0  0  0  0
   -1.4787   -5.4129    9.4148 Cl  0  0  0  0  0  0  0  0  0  0  0  0
    3.4625   -1.6544    8.3379 C   0  0  0  0  0  0  0  0  0  0  0  0
    3.1816   -1.7174    6.6208 S   0  0  0  0  0  0  0  0  0  0  0  0
    2.9004   -3.0309   11.7517 C   0  0  0  0  0  0  0  0  0  0  0  0
    3.3764   -2.5336   12.9402 C   0  0  0  0  0  0  0  0  0  0  0  0
    4.4017   -1.1199   12.6811 S   0  0  0  0  0  0  0  0  0  0  0  0
    3.1729   -2.9340   14.2800 C   0  0  0  0  0  0  0  0  0  0  0  0
    2.3480   -3.8817   14.8186 C   0  0  0  0  0  0  0  0  0  0  0  0
    1.3683   -4.7674   14.1393 C   0  0  0  0  0  0  0  0  0  0  0  0
    1.2741   -5.0439   12.9615 O   0  0  0  0  0  0  0  0  0  0  0  0
    0.5075   -5.3023   15.2095 C   0  0  0  0  0  0  0  0  0  0  0  0
   -0.6069   -6.0813   15.0881 C   0  0  0  0  0  0  0  0  0  0  0  0
   -1.3013   -6.4734   16.2535 C   0  0  0  0  0  0  0  0  0  0  0  0
   -2.4612   -7.2724   16.1882 C   0  0  0  0  0  0  0  0  0  0  0  0
   -3.1274   -7.6406   17.3237 C   0  0  0  0  0  0  0  0  0  0  0  0
   -2.6396   -7.2108   18.5655 C   0  0  0  0  0  0  0  0  0  0  0  0
   -3.3097   -7.5823   19.6716 F   0  0  0  0  0  0  0  0  0  0  0  0
   -1.5199   -6.4358   18.6853 C   0  0  0  0  0  0  0  0  0  0  0  0
   -0.8202   -6.0475   17.5260 C   0  0  0  0  0  0  0  0  0  0  0  0
    0.3426   -5.2478   17.6192 C   0  0  0  0  0  0  0  0  0  0  0  0
    1.0007   -4.8821   16.4749 C   0  0  0  0  0  0  0  0  0  0  0  0
    2.1993   -4.0797   16.2550 C   0  0  0  0  0  0  0  0  0  0  0  0
    3.0524   -3.6579   17.2398 C   0  0  0  0  0  0  0  0  0  0  0  0
    2.8475   -3.9039   18.6144 C   0  0  0  0  0  0  0  0  0  0  0  0
    2.7370   -4.0633   19.7457 N   0  0  0  0  0  0  0  0  0  0  0  0
    4.2721   -2.9736   17.0458 C   0  0  0  0  0  0  0  0  0  0  0  0
    5.2836   -2.4331   16.9863 N   0  0  0  0  0  0  0  0  0  0  0  0
   -7.5453   -2.7882  -13.4160 H   0  0  0  0  0  0  0  0  0  0  0  0
  -11.0723   -1.9547  -17.5887 H   0  0  0  0  0  0  0  0  0  0  0  0
  -11.4797   -0.0491  -19.0764 H   0  0  0  0  0  0  0  0  0  0  0  0
   -5.9655   -3.0036  -11.6902 H   0  0  0  0  0  0  0  0  0  0  0  0
   -6.5897   -6.0494   -7.5902 H   0  0  0  0  0  0  0  0  0  0  0  0
   -5.1778   -7.1236   -7.6284 H   0  0  0  0  0  0  0  0  0  0  0  0
   -7.0033   -6.5053  -10.0082 H   0  0  0  0  0  0  0  0  0  0  0  0
   -7.0047   -8.0018   -9.0701 H   0  0  0  0  0  0  0  0  0  0  0  0
   -5.5979   -7.5751  -10.0484 H   0  0  0  0  0  0  0  0  0  0  0  0
   -2.8230    6.4408  -10.6730 H   0  0  0  0  0  0  0  0  0  0  0  0
   -2.3365    6.6280  -12.3714 H   0  0  0  0  0  0  0  0  0  0  0  0
   -4.4106    7.9171  -11.8955 H   0  0  0  0  0  0  0  0  0  0  0  0
   -4.7298    6.6271  -13.0591 H   0  0  0  0  0  0  0  0  0  0  0  0
   -5.2220    6.4361  -11.3741 H   0  0  0  0  0  0  0  0  0  0  0  0
   -1.7465    2.2295   -9.3746 H   0  0  0  0  0  0  0  0  0  0  0  0
    0.8970    1.6141   -9.8872 H   0  0  0  0  0  0  0  0  0  0  0  0
    0.8864    3.2457  -11.7356 H   0  0  0  0  0  0  0  0  0  0  0  0
    0.3505    5.6060  -11.2988 H   0  0  0  0  0  0  0  0  0  0  0  0
   -0.5090    7.2928   -9.8024 H   0  0  0  0  0  0  0  0  0  0  0  0
   -0.9539    6.8737   -8.1396 H   0  0  0  0  0  0  0  0  0  0  0  0
    1.4569    6.9467   -7.4853 H   0  0  0  0  0  0  0  0  0  0  0  0
    1.8912    7.3738   -9.1393 H   0  0  0  0  0  0  0  0  0  0  0  0
    0.9303    8.4911   -8.1648 H   0  0  0  0  0  0  0  0  0  0  0  0
   -0.1562    4.7222   -7.1561 H   0  0  0  0  0  0  0  0  0  0  0  0
    7.2323    0.0799    6.0801 H   0  0  0  0  0  0  0  0  0  0  0  0
    8.9691    1.2641    7.3656 H   0  0  0  0  0  0  0  0  0  0  0  0
    9.0454    3.7233    7.3698 H   0  0  0  0  0  0  0  0  0  0  0  0
    6.4173    5.8744    6.0405 H   0  0  0  0  0  0  0  0  0  0  0  0
    7.9803    5.8338    6.8720 H   0  0  0  0  0  0  0  0  0  0  0  0
    7.5714    5.4816    3.8610 H   0  0  0  0  0  0  0  0  0  0  0  0
    9.1264    5.4482    4.6905 H   0  0  0  0  0  0  0  0  0  0  0  0
    8.1801    6.9397    4.6532 H   0  0  0  0  0  0  0  0  0  0  0  0
    5.6020    3.8329    4.8571 H   0  0  0  0  0  0  0  0  0  0  0  0
    0.9506   -0.7256   -1.8202 H   0  0  0  0  0  0  0  0  0  0  0  0
    1.0040   -0.8404   -3.5701 H   0  0  0  0  0  0  0  0  0  0  0  0
    2.5786   -2.4680   -2.5159 H   0  0  0  0  0  0  0  0  0  0  0  0
    3.4151   -1.3114   -3.5542 H   0  0  0  0  0  0  0  0  0  0  0  0
    3.4897   -1.1288   -1.8043 H   0  0  0  0  0  0  0  0  0  0  0  0
    1.8600   -0.9734   -0.1409 H   0  0  0  0  0  0  0  0  0  0  0  0
    1.9987   -0.5175    1.5481 H   0  0  0  0  0  0  0  0  0  0  0  0
    0.5796    1.4621    1.2203 H   0  0  0  0  0  0  0  0  0  0  0  0
   -0.2733    0.0184    0.6694 H   0  0  0  0  0  0  0  0  0  0  0  0
    0.4381    1.1349   -0.5046 H   0  0  0  0  0  0  0  0  0  0  0  0
    5.3657    1.0135    7.5916 H   0  0  0  0  0  0  0  0  0  0  0  0
    7.3959    4.7108   11.4726 H   0  0  0  0  0  0  0  0  0  0  0  0
    8.2671    4.3491    9.9882 H   0  0  0  0  0  0  0  0  0  0  0  0
    6.6738    6.2167    9.6262 H   0  0  0  0  0  0  0  0  0  0  0  0
    5.3309    5.1994   10.1529 H   0  0  0  0  0  0  0  0  0  0  0  0
    6.1915    4.8164    8.6610 H   0  0  0  0  0  0  0  0  0  0  0  0
    0.8670   -6.6912    6.1732 H   0  0  0  0  0  0  0  0  0  0  0  0
   -0.6219   -6.8497    7.1264 H   0  0  0  0  0  0  0  0  0  0  0  0
    0.7733   -8.8978    7.3207 H   0  0  0  0  0  0  0  0  0  0  0  0
    0.6475   -8.0873    8.8855 H   0  0  0  0  0  0  0  0  0  0  0  0
    2.1244   -7.9345    7.9297 H   0  0  0  0  0  0  0  0  0  0  0  0
    2.2997   -3.9191   11.6993 H   0  0  0  0  0  0  0  0  0  0  0  0
    3.7343   -2.3340   14.9872 H   0  0  0  0  0  0  0  0  0  0  0  0
   -0.9568   -6.3890   14.1140 H   0  0  0  0  0  0  0  0  0  0  0  0
   -2.8176   -7.5905   15.2200 H   0  0  0  0  0  0  0  0  0  0  0  0
   -4.0161   -8.2508   17.2915 H   0  0  0  0  0  0  0  0  0  0  0  0
   -1.1724   -6.1246   19.6581 H   0  0  0  0  0  0  0  0  0  0  0  0
    0.6770   -4.9392   18.5964 H   0  0  0  0  0  0  0  0  0  0  0  0
  1  2  2  0  0  0  0
  2  3  1  0  0  0  0
  3  4  2  0  0  0  0
  3  5  1  0  0  0  0
  5  6  2  0  0  0  0
  6  7  1  0  0  0  0
  7  8  2  0  0  0  0
  8  9  1  0  0  0  0
  9 10  1  0  0  0  0
  9 11  2  0  0  0  0
 11 12  1  0  0  0  0
  6 13  1  0  0  0  0
 13 14  2  0  0  0  0
 14 15  1  0  0  0  0
 15 16  3  0  0  0  0
 14 17  1  0  0  0  0
 17 18  3  0  0  0  0
  1 19  1  0  0  0  0
 19 20  2  0  0  0  0
 20 21  1  0  0  0  0
 21 22  2  0  0  0  0
 22 23  1  0  0  0  0
 23 24  1  0  0  0  0
 24 25  1  0  0  0  0
 25 26  1  0  0  0  0
 26 27  1  0  0  0  0
 25 28  2  0  0  0  0
 28 29  1  0  0  0  0
 28 30  1  0  0  0  0
 30 31  1  0  0  0  0
 22 32  1  0  0  0  0
 32 33  2  0  0  0  0
 33 34  1  0  0  0  0
 34 35  1  0  0  0  0
 35 36  1  0  0  0  0
 36 37  1  0  0  0  0
 37 38  1  0  0  0  0
 38 39  1  0  0  0  0
 37 40  2  0  0  0  0
 40 41  1  0  0  0  0
 41 42  1  0  0  0  0
 40 43  1  0  0  0  0
 34 44  2  0  0  0  0
 44 45  1  0  0  0  0
 33 46  1  0  0  0  0
 46 47  2  0  0  0  0
 47 48  1  0  0  0  0
 47 49  1  0  0  0  0
 49 50  2  0  0  0  0
 50 51  1  0  0  0  0
 51 52  2  0  0  0  0
 52 53  1  0  0  0  0
 53 54  2  0  0  0  0
 54 55  1  0  0  0  0
 55 56  1  0  0  0  0
 56 57  1  0  0  0  0
 55 58  2  0  0  0  0
 50 59  1  0  0  0  0
 59 60  1  0  0  0  0
 60 61  1  0  0  0  0
 61 62  1  0  0  0  0
 62 63  1  0  0  0  0
 63 64  1  0  0  0  0
 64 65  2  0  0  0  0
 65 66  1  0  0  0  0
 66 67  1  0  0  0  0
 64 68  1  0  0  0  0
 68 69  1  0  0  0  0
 69 70  1  0  0  0  0
 70 71  1  0  0  0  0
 71 72  1  0  0  0  0
 72 73  1  0  0  0  0
 73 74  2  0  0  0  0
 74 75  1  0  0  0  0
 75 76  2  0  0  0  0
 76 77  1  0  0  0  0
 77 78  1  0  0  0  0
 78 79  1  0  0  0  0
 77 80  2  0  0  0  0
 72 81  2  0  0  0  0
 81 82  1  0  0  0  0
 82 83  1  0  0  0  0
 83 84  1  0  0  0  0
 84 85  1  0  0  0  0
 85 86  1  0  0  0  0
 86 87  1  0  0  0  0
 87 88  1  0  0  0  0
 88 89  1  0  0  0  0
 89 90  1  0  0  0  0
 90 91  1  0  0  0  0
 88 92  1  0  0  0  0
 92 93  1  0  0  0  0
 85 94  1  0  0  0  0
 94 95  1  0  0  0  0
 81 96  1  0  0  0  0
 96 97  2  0  0  0  0
 97 98  1  0  0  0  0
 98 99  2  0  0  0  0
 99100  1  0  0  0  0
100101  1  0  0  0  0
101102  1  0  0  0  0
102103  1  0  0  0  0
103104  1  0  0  0  0
102105  2  0  0  0  0
105106  1  0  0  0  0
105107  1  0  0  0  0
107108  1  0  0  0  0
 99109  1  0  0  0  0
109110  2  0  0  0  0
110111  1  0  0  0  0
111112  1  0  0  0  0
112113  1  0  0  0  0
113114  1  0  0  0  0
114115  1  0  0  0  0
115116  1  0  0  0  0
114117  2  0  0  0  0
117118  1  0  0  0  0
118119  1  0  0  0  0
117120  1  0  0  0  0
111121  2  0  0  0  0
121122  1  0  0  0  0
110123  1  0  0  0  0
123124  2  0  0  0  0
124125  1  0  0  0  0
124126  1  0  0  0  0
126127  2  0  0  0  0
127128  1  0  0  0  0
128129  2  0  0  0  0
128130  1  0  0  0  0
130131  2  0  0  0  0
131132  1  0  0  0  0
132133  2  0  0  0  0
133134  1  0  0  0  0
134135  2  0  0  0  0
135136  1  0  0  0  0
135137  1  0  0  0  0
137138  2  0  0  0  0
138139  1  0  0  0  0
139140  2  0  0  0  0
140141  1  0  0  0  0
141142  2  0  0  0  0
142143  1  0  0  0  0
143144  3  0  0  0  0
142145  1  0  0  0  0
145146  3  0  0  0  0
 13  2  1  0  0  0  0
 45 19  1  0  0  0  0
 91 49  1  0  0  0  0
122 96  1  0  0  0  0
141127  1  0  0  0  0
 11  5  1  0  0  0  0
 44 21  1  0  0  0  0
 58 51  1  0  0  0  0
 90 59  2  0  0  0  0
121 98  1  0  0  0  0
140130  1  0  0  0  0
 30 23  2  0  0  0  0
 48 32  1  0  0  0  0
 89 61  2  0  0  0  0
107100  2  0  0  0  0
125109  1  0  0  0  0
138132  1  0  0  0  0
 41 35  2  0  0  0  0
 87 62  2  0  0  0  0
118112  2  0  0  0  0
 67 63  2  0  0  0  0
 86 68  2  0  0  0  0
 84 69  2  0  0  0  0
 83 71  2  0  0  0  0
 80 73  1  0  0  0  0
  1147  1  0  0  0  0
  7148  1  0  0  0  0
  8149  1  0  0  0  0
 20150  1  0  0  0  0
 26151  1  0  0  0  0
 26152  1  0  0  0  0
 27153  1  0  0  0  0
 27154  1  0  0  0  0
 27155  1  0  0  0  0
 38156  1  0  0  0  0
 38157  1  0  0  0  0
 39158  1  0  0  0  0
 39159  1  0  0  0  0
 39160  1  0  0  0  0
 46161  1  0  0  0  0
 52162  1  0  0  0  0
 53163  1  0  0  0  0
 54164  1  0  0  0  0
 56165  1  0  0  0  0
 56166  1  0  0  0  0
 57167  1  0  0  0  0
 57168  1  0  0  0  0
 57169  1  0  0  0  0
 58170  1  0  0  0  0
 74171  1  0  0  0  0
 75172  1  0  0  0  0
 76173  1  0  0  0  0
 78174  1  0  0  0  0
 78175  1  0  0  0  0
 79176  1  0  0  0  0
 79177  1  0  0  0  0
 79178  1  0  0  0  0
 80179  1  0  0  0  0
 92180  1  0  0  0  0
 92181  1  0  0  0  0
 93182  1  0  0  0  0
 93183  1  0  0  0  0
 93184  1  0  0  0  0
 94185  1  0  0  0  0
 94186  1  0  0  0  0
 95187  1  0  0  0  0
 95188  1  0  0  0  0
 95189  1  0  0  0  0
 97190  1  0  0  0  0
103191  1  0  0  0  0
103192  1  0  0  0  0
104193  1  0  0  0  0
104194  1  0  0  0  0
104195  1  0  0  0  0
115196  1  0  0  0  0
115197  1  0  0  0  0
116198  1  0  0  0  0
116199  1  0  0  0  0
116200  1  0  0  0  0
123201  1  0  0  0  0
126202  1  0  0  0  0
131203  1  0  0  0  0
133204  1  0  0  0  0
134205  1  0  0  0  0
137206  1  0  0  0  0
139207  1  0  0  0  0
M  END
