
  xtb     02082204123D
 energy: -366.520001796524 gnorm: 0.000309229854 xtb: 6.4.1 (unknown)
213234  0     0  0            999 V2000
   -7.6635   -4.5378    6.6125 C   0  0  0  0  0  0  0  0  0  0  0  0
   -8.7456   -4.7929    7.4092 C   0  0  0  0  0  0  0  0  0  0  0  0
   -9.1483   -4.1695    8.6888 C   0  0  0  0  0  0  0  0  0  0  0  0
   -8.5379   -3.3857    9.3831 O   0  0  0  0  0  0  0  0  0  0  0  0
  -10.5034   -4.6942    8.9788 C   0  0  0  0  0  0  0  0  0  0  0  0
  -10.8843   -5.6078    7.9809 C   0  0  0  0  0  0  0  0  0  0  0  0
  -12.1283   -6.2172    8.0392 C   0  0  0  0  0  0  0  0  0  0  0  0
  -12.9716   -5.9076    9.0953 C   0  0  0  0  0  0  0  0  0  0  0  0
  -12.5888   -5.0104   10.0806 C   0  0  0  0  0  0  0  0  0  0  0  0
  -13.7836   -4.6334   11.4954 Br  0  0  0  0  0  0  0  0  0  0  0  0
  -11.3393   -4.3829   10.0399 C   0  0  0  0  0  0  0  0  0  0  0  0
  -10.8678   -3.2730   11.2550 Cl  0  0  0  0  0  0  0  0  0  0  0  0
   -9.7920   -5.7265    7.0179 C   0  0  0  0  0  0  0  0  0  0  0  0
   -9.7737   -6.6077    5.9685 C   0  0  0  0  0  0  0  0  0  0  0  0
   -8.7183   -6.8342    5.0551 C   0  0  0  0  0  0  0  0  0  0  0  0
   -7.9405   -7.1399    4.2668 N   0  0  0  0  0  0  0  0  0  0  0  0
  -10.8384   -7.4792    5.6516 C   0  0  0  0  0  0  0  0  0  0  0  0
  -11.6626   -8.2096    5.3268 N   0  0  0  0  0  0  0  0  0  0  0  0
   -6.5200   -3.6988    6.7201 C   0  0  0  0  0  0  0  0  0  0  0  0
   -6.1064   -2.9568    7.8273 C   0  0  0  0  0  0  0  0  0  0  0  0
   -4.9791   -2.1524    7.7975 C   0  0  0  0  0  0  0  0  0  0  0  0
   -4.1879   -2.0336    6.6591 C   0  0  0  0  0  0  0  0  0  0  0  0
   -4.5278   -2.8406    5.5323 C   0  0  0  0  0  0  0  0  0  0  0  0
   -3.7064   -2.8616    4.4689 N   0  0  0  0  0  0  0  0  0  0  0  0
   -3.9844   -3.6409    3.4518 C   0  0  0  0  0  0  0  0  0  0  0  0
   -2.9874   -3.7424    2.3753 C   0  0  0  0  0  0  0  0  0  0  0  0
   -1.6810   -4.0830    2.7223 C   0  0  0  0  0  0  0  0  0  0  0  0
   -0.7549   -4.3282    1.7294 C   0  0  0  0  0  0  0  0  0  0  0  0
   -1.0977   -4.2170    0.3920 C   0  0  0  0  0  0  0  0  0  0  0  0
   -2.3877   -3.8326    0.0377 C   0  0  0  0  0  0  0  0  0  0  0  0
   -2.8387   -3.6729   -1.2369 O   0  0  0  0  0  0  0  0  0  0  0  0
   -2.0427   -4.1062   -2.3242 C   0  0  0  0  0  0  0  0  0  0  0  0
   -1.0266   -3.0652   -2.7880 C   0  0  0  0  0  0  0  0  0  0  0  0
   -3.3291   -3.5966    1.0398 C   0  0  0  0  0  0  0  0  0  0  0  0
   -5.1810   -4.4254    3.4520 C   0  0  0  0  0  0  0  0  0  0  0  0
   -5.9941   -4.3929    4.4809 N   0  0  0  0  0  0  0  0  0  0  0  0
   -5.6840   -3.6514    5.5550 C   0  0  0  0  0  0  0  0  0  0  0  0
   -5.5672   -5.3078    2.3455 C   0  0  0  0  0  0  0  0  0  0  0  0
   -6.8921   -5.3066    1.9130 C   0  0  0  0  0  0  0  0  0  0  0  0
   -7.2674   -6.1249    0.8686 C   0  0  0  0  0  0  0  0  0  0  0  0
   -6.3476   -6.9495    0.2415 C   0  0  0  0  0  0  0  0  0  0  0  0
   -5.0282   -6.9753    0.6830 C   0  0  0  0  0  0  0  0  0  0  0  0
   -4.0334   -7.7550    0.1779 O   0  0  0  0  0  0  0  0  0  0  0  0
   -4.2668   -8.5290   -0.9812 C   0  0  0  0  0  0  0  0  0  0  0  0
   -4.2684   -7.6870   -2.2544 C   0  0  0  0  0  0  0  0  0  0  0  0
   -4.6495   -6.1557    1.7444 C   0  0  0  0  0  0  0  0  0  0  0  0
   -3.0944   -1.1165    6.5541 C   0  0  0  0  0  0  0  0  0  0  0  0
   -2.2734   -0.6026    7.5455 C   0  0  0  0  0  0  0  0  0  0  0  0
   -2.2662   -1.0021    8.9609 C   0  0  0  0  0  0  0  0  0  0  0  0
   -2.5393   -0.0237    9.9123 C   0  0  0  0  0  0  0  0  0  0  0  0
   -2.5354   -0.3280   11.2600 C   0  0  0  0  0  0  0  0  0  0  0  0
   -2.2449   -1.6182   11.6670 C   0  0  0  0  0  0  0  0  0  0  0  0
   -1.9495   -2.5871   10.7247 C   0  0  0  0  0  0  0  0  0  0  0  0
   -1.9531   -2.3036    9.3658 C   0  0  0  0  0  0  0  0  0  0  0  0
   -1.5460   -3.3645    8.3816 C   0  0  0  0  0  0  0  0  0  0  0  0
   -0.1189   -3.1230    7.8857 C   0  0  0  0  0  0  0  0  0  0  0  0
   -1.4006    0.3690    7.0274 C   0  0  0  0  0  0  0  0  0  0  0  0
   -0.0868    1.2983    7.7220 S   0  0  0  0  0  0  0  0  0  0  0  0
    0.2018    2.0189    6.1696 C   0  0  0  0  0  0  0  0  0  0  0  0
    1.0838    2.9215    5.5397 C   0  0  0  0  0  0  0  0  0  0  0  0
    2.1916    3.6765    5.9901 C   0  0  0  0  0  0  0  0  0  0  0  0
    2.9689    4.4343    5.0409 C   0  0  0  0  0  0  0  0  0  0  0  0
    3.9594    5.0942    5.6184 N   0  0  0  0  0  0  0  0  0  0  0  0
    3.9256    4.7951    7.2087 S   0  0  0  0  0  0  0  0  0  0  0  0
    2.6459    3.8041    7.2261 N   0  0  0  0  0  0  0  0  0  0  0  0
    2.6722    4.3337    3.6610 C   0  0  0  0  0  0  0  0  0  0  0  0
    3.3829    4.6887    2.4998 C   0  0  0  0  0  0  0  0  0  0  0  0
    4.8789    5.4280    2.0041 S   0  0  0  0  0  0  0  0  0  0  0  0
    4.5709    4.9106    0.3482 C   0  0  0  0  0  0  0  0  0  0  0  0
    5.3185    4.9481   -0.8375 C   0  0  0  0  0  0  0  0  0  0  0  0
    6.6684    5.5330   -0.8952 C   0  0  0  0  0  0  0  0  0  0  0  0
    6.8658    6.9135   -0.8145 C   0  0  0  0  0  0  0  0  0  0  0  0
    5.7048    7.8665   -0.7797 C   0  0  0  0  0  0  0  0  0  0  0  0
    5.1089    8.0537   -2.1766 C   0  0  0  0  0  0  0  0  0  0  0  0
    8.1670    7.3979   -0.8335 C   0  0  0  0  0  0  0  0  0  0  0  0
    9.2515    6.5437   -0.9156 C   0  0  0  0  0  0  0  0  0  0  0  0
    9.0488    5.1759   -0.9849 C   0  0  0  0  0  0  0  0  0  0  0  0
    7.7615    4.6748   -0.9743 C   0  0  0  0  0  0  0  0  0  0  0  0
    4.6680    4.2816   -1.8765 C   0  0  0  0  0  0  0  0  0  0  0  0
    3.1238    3.6058   -1.3791 S   0  0  0  0  0  0  0  0  0  0  0  0
    3.3528    4.2436    0.2079 C   0  0  0  0  0  0  0  0  0  0  0  0
    2.6818    4.1326    1.4226 C   0  0  0  0  0  0  0  0  0  0  0  0
    1.5628    3.4895    1.8583 N   0  0  0  0  0  0  0  0  0  0  0  0
    1.5340    3.5893    3.2284 C   0  0  0  0  0  0  0  0  0  0  0  0
    0.6867    2.9798    4.1778 C   0  0  0  0  0  0  0  0  0  0  0  0
   -0.4410    2.1933    3.9877 N   0  0  0  0  0  0  0  0  0  0  0  0
   -0.6915    1.5764    5.1898 C   0  0  0  0  0  0  0  0  0  0  0  0
   -1.5864    0.6164    5.6628 C   0  0  0  0  0  0  0  0  0  0  0  0
   -2.7616   -0.4367    4.9710 S   0  0  0  0  0  0  0  0  0  0  0  0
   -1.5746    2.5029    3.1353 C   0  0  0  0  0  0  0  0  0  0  0  0
   -2.6469    3.2850    3.8946 C   0  0  0  0  0  0  0  0  0  0  0  0
    0.8092    2.6702    0.9405 C   0  0  0  0  0  0  0  0  0  0  0  0
   -0.0792    3.5140    0.0277 C   0  0  0  0  0  0  0  0  0  0  0  0
    5.0540    4.0983   -3.2363 C   0  0  0  0  0  0  0  0  0  0  0  0
    6.1303    4.7285   -3.8643 C   0  0  0  0  0  0  0  0  0  0  0  0
    6.4384    4.5209   -5.1986 C   0  0  0  0  0  0  0  0  0  0  0  0
    5.6928    3.6696   -6.0170 C   0  0  0  0  0  0  0  0  0  0  0  0
    4.5727    3.0123   -5.4101 C   0  0  0  0  0  0  0  0  0  0  0  0
    3.8177    2.1769   -6.1320 N   0  0  0  0  0  0  0  0  0  0  0  0
    2.7863    1.5701   -5.5899 C   0  0  0  0  0  0  0  0  0  0  0  0
    2.1095    0.6025   -6.4567 C   0  0  0  0  0  0  0  0  0  0  0  0
    1.6381   -0.6203   -5.9802 C   0  0  0  0  0  0  0  0  0  0  0  0
    1.1091   -1.5295   -6.8735 C   0  0  0  0  0  0  0  0  0  0  0  0
    1.0400   -1.2533   -8.2297 C   0  0  0  0  0  0  0  0  0  0  0  0
    1.5050   -0.0330   -8.7138 C   0  0  0  0  0  0  0  0  0  0  0  0
    1.4676    0.3773  -10.0067 O   0  0  0  0  0  0  0  0  0  0  0  0
    1.2673   -0.5693  -11.0392 C   0  0  0  0  0  0  0  0  0  0  0  0
    2.4775   -1.4759  -11.2349 C   0  0  0  0  0  0  0  0  0  0  0  0
    2.0358    0.8862   -7.8125 C   0  0  0  0  0  0  0  0  0  0  0  0
    2.4236    1.8455   -4.2370 C   0  0  0  0  0  0  0  0  0  0  0  0
    3.1836    2.6420   -3.5212 N   0  0  0  0  0  0  0  0  0  0  0  0
    4.2620    3.2288   -4.0501 C   0  0  0  0  0  0  0  0  0  0  0  0
    1.2008    1.3346   -3.6029 C   0  0  0  0  0  0  0  0  0  0  0  0
   -0.0189    1.4029   -4.2767 C   0  0  0  0  0  0  0  0  0  0  0  0
   -1.1678    0.9758   -3.6446 C   0  0  0  0  0  0  0  0  0  0  0  0
   -1.1315    0.4698   -2.3541 C   0  0  0  0  0  0  0  0  0  0  0  0
    0.0824    0.3873   -1.6787 C   0  0  0  0  0  0  0  0  0  0  0  0
    0.2375   -0.0947   -0.4163 O   0  0  0  0  0  0  0  0  0  0  0  0
   -0.9107   -0.4635    0.3283 C   0  0  0  0  0  0  0  0  0  0  0  0
   -0.4563   -0.9155    1.7073 C   0  0  0  0  0  0  0  0  0  0  0  0
    1.2439    0.8325   -2.3112 C   0  0  0  0  0  0  0  0  0  0  0  0
    5.9164    3.3352   -7.3789 C   0  0  0  0  0  0  0  0  0  0  0  0
    6.7722    3.7753   -8.3503 C   0  0  0  0  0  0  0  0  0  0  0  0
    7.7355    4.8976   -8.3327 C   0  0  0  0  0  0  0  0  0  0  0  0
    8.1007    5.5822   -7.3990 O   0  0  0  0  0  0  0  0  0  0  0  0
    8.1898    5.0527   -9.7316 C   0  0  0  0  0  0  0  0  0  0  0  0
    9.0596    5.9919  -10.2524 C   0  0  0  0  0  0  0  0  0  0  0  0
    9.3354    5.9580  -11.6099 C   0  0  0  0  0  0  0  0  0  0  0  0
    8.7354    4.9910  -12.4055 C   0  0  0  0  0  0  0  0  0  0  0  0
    9.1211    4.9698  -14.2669 Br  0  0  0  0  0  0  0  0  0  0  0  0
    7.8630    4.0368  -11.8972 C   0  0  0  0  0  0  0  0  0  0  0  0
    7.5915    4.0721  -10.5392 C   0  0  0  0  0  0  0  0  0  0  0  0
    6.7517    3.2222   -9.6964 C   0  0  0  0  0  0  0  0  0  0  0  0
    6.1199    2.0817  -10.1173 C   0  0  0  0  0  0  0  0  0  0  0  0
    5.4251    1.1447   -9.3185 C   0  0  0  0  0  0  0  0  0  0  0  0
    4.8808    0.2833   -8.7877 N   0  0  0  0  0  0  0  0  0  0  0  0
    6.1110    1.6289  -11.4542 C   0  0  0  0  0  0  0  0  0  0  0  0
    6.0423    1.2021  -12.5180 N   0  0  0  0  0  0  0  0  0  0  0  0
   -7.6572   -5.0606    5.6612 H   0  0  0  0  0  0  0  0  0  0  0  0
  -12.4559   -6.9166    7.2890 H   0  0  0  0  0  0  0  0  0  0  0  0
  -13.9447   -6.3699    9.1578 H   0  0  0  0  0  0  0  0  0  0  0  0
   -6.6943   -2.9867    8.7293 H   0  0  0  0  0  0  0  0  0  0  0  0
   -4.7261   -1.5738    8.6724 H   0  0  0  0  0  0  0  0  0  0  0  0
   -1.4164   -4.1792    3.7637 H   0  0  0  0  0  0  0  0  0  0  0  0
    0.2515   -4.6188    1.9928 H   0  0  0  0  0  0  0  0  0  0  0  0
   -0.3514   -4.4294   -0.3565 H   0  0  0  0  0  0  0  0  0  0  0  0
   -1.5447   -5.0513   -2.0765 H   0  0  0  0  0  0  0  0  0  0  0  0
   -2.7605   -4.2957   -3.1283 H   0  0  0  0  0  0  0  0  0  0  0  0
   -0.3245   -2.8130   -1.9970 H   0  0  0  0  0  0  0  0  0  0  0  0
   -0.4698   -3.4567   -3.6350 H   0  0  0  0  0  0  0  0  0  0  0  0
   -1.5343   -2.1552   -3.0976 H   0  0  0  0  0  0  0  0  0  0  0  0
   -4.3295   -3.3161    0.7492 H   0  0  0  0  0  0  0  0  0  0  0  0
   -7.6063   -4.6589    2.3958 H   0  0  0  0  0  0  0  0  0  0  0  0
   -8.2927   -6.1279    0.5300 H   0  0  0  0  0  0  0  0  0  0  0  0
   -6.6787   -7.5741   -0.5731 H   0  0  0  0  0  0  0  0  0  0  0  0
   -3.4339   -9.2375   -1.0059 H   0  0  0  0  0  0  0  0  0  0  0  0
   -5.1987   -9.0994   -0.8881 H   0  0  0  0  0  0  0  0  0  0  0  0
   -3.3177   -7.1693   -2.3544 H   0  0  0  0  0  0  0  0  0  0  0  0
   -5.0604   -6.9426   -2.2255 H   0  0  0  0  0  0  0  0  0  0  0  0
   -4.4150   -8.3281   -3.1193 H   0  0  0  0  0  0  0  0  0  0  0  0
   -3.6318   -6.2219    2.0944 H   0  0  0  0  0  0  0  0  0  0  0  0
   -2.7667    0.9800    9.5828 H   0  0  0  0  0  0  0  0  0  0  0  0
   -2.7556    0.4388   11.9870 H   0  0  0  0  0  0  0  0  0  0  0  0
   -2.2399   -1.8686   12.7172 H   0  0  0  0  0  0  0  0  0  0  0  0
   -1.7061   -3.5888   11.0494 H   0  0  0  0  0  0  0  0  0  0  0  0
   -1.5967   -4.3411    8.8668 H   0  0  0  0  0  0  0  0  0  0  0  0
   -2.2254   -3.3816    7.5283 H   0  0  0  0  0  0  0  0  0  0  0  0
    0.5738   -3.1003    8.7240 H   0  0  0  0  0  0  0  0  0  0  0  0
   -0.0507   -2.1730    7.3610 H   0  0  0  0  0  0  0  0  0  0  0  0
    0.1838   -3.9157    7.2054 H   0  0  0  0  0  0  0  0  0  0  0  0
    4.9314    7.4947   -0.1060 H   0  0  0  0  0  0  0  0  0  0  0  0
    6.0438    8.8327   -0.4020 H   0  0  0  0  0  0  0  0  0  0  0  0
    4.2971    8.7768   -2.1463 H   0  0  0  0  0  0  0  0  0  0  0  0
    4.7182    7.1128   -2.5579 H   0  0  0  0  0  0  0  0  0  0  0  0
    5.8679    8.4139   -2.8677 H   0  0  0  0  0  0  0  0  0  0  0  0
    8.3295    8.4649   -0.7799 H   0  0  0  0  0  0  0  0  0  0  0  0
   10.2540    6.9444   -0.9252 H   0  0  0  0  0  0  0  0  0  0  0  0
    9.8895    4.5014   -1.0456 H   0  0  0  0  0  0  0  0  0  0  0  0
    7.5897    3.6093   -1.0283 H   0  0  0  0  0  0  0  0  0  0  0  0
   -1.2391    3.1116    2.3022 H   0  0  0  0  0  0  0  0  0  0  0  0
   -1.9958    1.5629    2.7657 H   0  0  0  0  0  0  0  0  0  0  0  0
   -3.0708    2.6894    4.6983 H   0  0  0  0  0  0  0  0  0  0  0  0
   -2.2216    4.1919    4.3197 H   0  0  0  0  0  0  0  0  0  0  0  0
   -3.4460    3.5612    3.2118 H   0  0  0  0  0  0  0  0  0  0  0  0
    1.5243    2.1261    0.3164 H   0  0  0  0  0  0  0  0  0  0  0  0
    0.2375    1.9358    1.5011 H   0  0  0  0  0  0  0  0  0  0  0  0
    0.5363    4.1384   -0.6135 H   0  0  0  0  0  0  0  0  0  0  0  0
   -0.6762    2.8657   -0.6073 H   0  0  0  0  0  0  0  0  0  0  0  0
   -0.7426    4.1635    0.5959 H   0  0  0  0  0  0  0  0  0  0  0  0
    6.7429    5.4105   -3.2975 H   0  0  0  0  0  0  0  0  0  0  0  0
    7.2834    5.0414   -5.6198 H   0  0  0  0  0  0  0  0  0  0  0  0
    1.7163   -0.8665   -4.9326 H   0  0  0  0  0  0  0  0  0  0  0  0
    0.7506   -2.4833   -6.5144 H   0  0  0  0  0  0  0  0  0  0  0  0
    0.6270   -1.9965   -8.8935 H   0  0  0  0  0  0  0  0  0  0  0  0
    1.1066    0.0397  -11.9329 H   0  0  0  0  0  0  0  0  0  0  0  0
    0.3593   -1.1586  -10.8579 H   0  0  0  0  0  0  0  0  0  0  0  0
    2.6735   -2.0565  -10.3368 H   0  0  0  0  0  0  0  0  0  0  0  0
    2.3007   -2.1525  -12.0664 H   0  0  0  0  0  0  0  0  0  0  0  0
    3.3575   -0.8743  -11.4483 H   0  0  0  0  0  0  0  0  0  0  0  0
    2.3989    1.8290   -8.1873 H   0  0  0  0  0  0  0  0  0  0  0  0
   -0.0624    1.8039   -5.2772 H   0  0  0  0  0  0  0  0  0  0  0  0
   -2.1154    1.0362   -4.1589 H   0  0  0  0  0  0  0  0  0  0  0  0
   -2.0488    0.1446   -1.8888 H   0  0  0  0  0  0  0  0  0  0  0  0
   -1.4435   -1.2832   -0.1689 H   0  0  0  0  0  0  0  0  0  0  0  0
   -1.5936    0.3945    0.4094 H   0  0  0  0  0  0  0  0  0  0  0  0
   -1.3169   -1.2162    2.2982 H   0  0  0  0  0  0  0  0  0  0  0  0
    0.0728   -0.1193    2.2240 H   0  0  0  0  0  0  0  0  0  0  0  0
    0.2148   -1.7636    1.6126 H   0  0  0  0  0  0  0  0  0  0  0  0
    2.1828    0.7713   -1.7849 H   0  0  0  0  0  0  0  0  0  0  0  0
    5.2176    2.5674   -7.6962 H   0  0  0  0  0  0  0  0  0  0  0  0
    9.5087    6.7316   -9.6080 H   0  0  0  0  0  0  0  0  0  0  0  0
   10.0089    6.6749  -12.0534 H   0  0  0  0  0  0  0  0  0  0  0  0
    7.4202    3.3063  -12.5543 H   0  0  0  0  0  0  0  0  0  0  0  0
  1  2  2  0  0  0  0
  2  3  1  0  0  0  0
  3  4  2  0  0  0  0
  3  5  1  0  0  0  0
  5  6  2  0  0  0  0
  6  7  1  0  0  0  0
  7  8  2  0  0  0  0
  8  9  1  0  0  0  0
  9 10  1  0  0  0  0
  9 11  2  0  0  0  0
 11 12  1  0  0  0  0
  6 13  1  0  0  0  0
 13 14  2  0  0  0  0
 14 15  1  0  0  0  0
 15 16  3  0  0  0  0
 14 17  1  0  0  0  0
 17 18  3  0  0  0  0
  1 19  1  0  0  0  0
 19 20  2  0  0  0  0
 20 21  1  0  0  0  0
 21 22  2  0  0  0  0
 22 23  1  0  0  0  0
 23 24  2  0  0  0  0
 24 25  1  0  0  0  0
 25 26  1  0  0  0  0
 26 27  2  0  0  0  0
 27 28  1  0  0  0  0
 28 29  2  0  0  0  0
 29 30  1  0  0  0  0
 30 31  1  0  0  0  0
 31 32  1  0  0  0  0
 32 33  1  0  0  0  0
 30 34  2  0  0  0  0
 25 35  2  0  0  0  0
 35 36  1  0  0  0  0
 36 37  2  0  0  0  0
 35 38  1  0  0  0  0
 38 39  2  0  0  0  0
 39 40  1  0  0  0  0
 40 41  2  0  0  0  0
 41 42  1  0  0  0  0
 42 43  1  0  0  0  0
 43 44  1  0  0  0  0
 44 45  1  0  0  0  0
 42 46  2  0  0  0  0
 22 47  1  0  0  0  0
 47 48  2  0  0  0  0
 48 49  1  0  0  0  0
 49 50  2  0  0  0  0
 50 51  1  0  0  0  0
 51 52  2  0  0  0  0
 52 53  1  0  0  0  0
 53 54  2  0  0  0  0
 54 55  1  0  0  0  0
 55 56  1  0  0  0  0
 48 57  1  0  0  0  0
 57 58  1  0  0  0  0
 58 59  1  0  0  0  0
 59 60  1  0  0  0  0
 60 61  1  0  0  0  0
 61 62  1  0  0  0  0
 62 63  2  0  0  0  0
 63 64  1  0  0  0  0
 64 65  1  0  0  0  0
 62 66  1  0  0  0  0
 66 67  1  0  0  0  0
 67 68  1  0  0  0  0
 68 69  1  0  0  0  0
 69 70  1  0  0  0  0
 70 71  1  0  0  0  0
 71 72  2  0  0  0  0
 72 73  1  0  0  0  0
 73 74  1  0  0  0  0
 72 75  1  0  0  0  0
 75 76  2  0  0  0  0
 76 77  1  0  0  0  0
 77 78  2  0  0  0  0
 70 79  2  0  0  0  0
 79 80  1  0  0  0  0
 80 81  1  0  0  0  0
 81 82  1  0  0  0  0
 82 83  1  0  0  0  0
 83 84  1  0  0  0  0
 84 85  1  0  0  0  0
 85 86  1  0  0  0  0
 86 87  1  0  0  0  0
 87 88  1  0  0  0  0
 88 89  1  0  0  0  0
 86 90  1  0  0  0  0
 90 91  1  0  0  0  0
 83 92  1  0  0  0  0
 92 93  1  0  0  0  0
 79 94  1  0  0  0  0
 94 95  2  0  0  0  0
 95 96  1  0  0  0  0
 96 97  2  0  0  0  0
 97 98  1  0  0  0  0
 98 99  2  0  0  0  0
 99100  1  0  0  0  0
100101  1  0  0  0  0
101102  2  0  0  0  0
102103  1  0  0  0  0
103104  2  0  0  0  0
104105  1  0  0  0  0
105106  1  0  0  0  0
106107  1  0  0  0  0
107108  1  0  0  0  0
105109  2  0  0  0  0
100110  2  0  0  0  0
110111  1  0  0  0  0
111112  2  0  0  0  0
110113  1  0  0  0  0
113114  2  0  0  0  0
114115  1  0  0  0  0
115116  2  0  0  0  0
116117  1  0  0  0  0
117118  1  0  0  0  0
118119  1  0  0  0  0
119120  1  0  0  0  0
117121  2  0  0  0  0
 97122  1  0  0  0  0
122123  2  0  0  0  0
123124  1  0  0  0  0
124125  2  0  0  0  0
124126  1  0  0  0  0
126127  2  0  0  0  0
127128  1  0  0  0  0
128129  2  0  0  0  0
129130  1  0  0  0  0
129131  1  0  0  0  0
131132  2  0  0  0  0
132133  1  0  0  0  0
133134  2  0  0  0  0
134135  1  0  0  0  0
135136  3  0  0  0  0
134137  1  0  0  0  0
137138  3  0  0  0  0
 13  2  1  0  0  0  0
 37 19  1  0  0  0  0
 46 38  1  0  0  0  0
 89 47  1  0  0  0  0
112 94  1  0  0  0  0
121113  1  0  0  0  0
133123  1  0  0  0  0
 11  5  1  0  0  0  0
 37 23  1  0  0  0  0
 54 49  1  0  0  0  0
 88 57  2  0  0  0  0
112 98  1  0  0  0  0
132126  1  0  0  0  0
 34 26  1  0  0  0  0
 87 59  2  0  0  0  0
109101  1  0  0  0  0
 85 60  2  0  0  0  0
 65 61  2  0  0  0  0
 84 66  2  0  0  0  0
 82 67  2  0  0  0  0
 81 69  2  0  0  0  0
 78 71  1  0  0  0  0
  1139  1  0  0  0  0
  7140  1  0  0  0  0
  8141  1  0  0  0  0
 20142  1  0  0  0  0
 21143  1  0  0  0  0
 27144  1  0  0  0  0
 28145  1  0  0  0  0
 29146  1  0  0  0  0
 32147  1  0  0  0  0
 32148  1  0  0  0  0
 33149  1  0  0  0  0
 33150  1  0  0  0  0
 33151  1  0  0  0  0
 34152  1  0  0  0  0
 39153  1  0  0  0  0
 40154  1  0  0  0  0
 41155  1  0  0  0  0
 44156  1  0  0  0  0
 44157  1  0  0  0  0
 45158  1  0  0  0  0
 45159  1  0  0  0  0
 45160  1  0  0  0  0
 46161  1  0  0  0  0
 50162  1  0  0  0  0
 51163  1  0  0  0  0
 52164  1  0  0  0  0
 53165  1  0  0  0  0
 55166  1  0  0  0  0
 55167  1  0  0  0  0
 56168  1  0  0  0  0
 56169  1  0  0  0  0
 56170  1  0  0  0  0
 73171  1  0  0  0  0
 73172  1  0  0  0  0
 74173  1  0  0  0  0
 74174  1  0  0  0  0
 74175  1  0  0  0  0
 75176  1  0  0  0  0
 76177  1  0  0  0  0
 77178  1  0  0  0  0
 78179  1  0  0  0  0
 90180  1  0  0  0  0
 90181  1  0  0  0  0
 91182  1  0  0  0  0
 91183  1  0  0  0  0
 91184  1  0  0  0  0
 92185  1  0  0  0  0
 92186  1  0  0  0  0
 93187  1  0  0  0  0
 93188  1  0  0  0  0
 93189  1  0  0  0  0
 95190  1  0  0  0  0
 96191  1  0  0  0  0
102192  1  0  0  0  0
103193  1  0  0  0  0
104194  1  0  0  0  0
107195  1  0  0  0  0
107196  1  0  0  0  0
108197  1  0  0  0  0
108198  1  0  0  0  0
108199  1  0  0  0  0
109200  1  0  0  0  0
114201  1  0  0  0  0
115202  1  0  0  0  0
116203  1  0  0  0  0
119204  1  0  0  0  0
119205  1  0  0  0  0
120206  1  0  0  0  0
120207  1  0  0  0  0
120208  1  0  0  0  0
121209  1  0  0  0  0
122210  1  0  0  0  0
127211  1  0  0  0  0
128212  1  0  0  0  0
131213  1  0  0  0  0
M  END
