
  xtb     02222218023D
 energy: -353.819098643167 gnorm: 0.000767824418 xtb: 6.4.1 (unknown)
203225  0     0  0            999 V2000
   -0.4704    5.1164   -8.7661 C   0  0  0  0  0  0  0  0  0  0  0  0
   -0.0731    6.4353   -8.9002 C   0  0  0  0  0  0  0  0  0  0  0  0
    0.7608    7.1113   -7.8977 C   0  0  0  0  0  0  0  0  0  0  0  0
    1.2704    6.6309   -6.9045 O   0  0  0  0  0  0  0  0  0  0  0  0
    0.7589    8.5407   -8.2967 C   0  0  0  0  0  0  0  0  0  0  0  0
    1.3932    9.6249   -7.7172 C   0  0  0  0  0  0  0  0  0  0  0  0
    2.3524    9.4416   -6.3065 Cl  0  0  0  0  0  0  0  0  0  0  0  0
    1.2635   10.8810   -8.3062 C   0  0  0  0  0  0  0  0  0  0  0  0
    0.4983   11.0154   -9.4509 C   0  0  0  0  0  0  0  0  0  0  0  0
    0.3386   12.7337  -10.2396 Br  0  0  0  0  0  0  0  0  0  0  0  0
   -0.1504    9.9413  -10.0528 C   0  0  0  0  0  0  0  0  0  0  0  0
   -0.0079    8.6994   -9.4654 C   0  0  0  0  0  0  0  0  0  0  0  0
   -0.5172    7.3860   -9.8662 C   0  0  0  0  0  0  0  0  0  0  0  0
   -1.1781    7.1014  -11.0396 C   0  0  0  0  0  0  0  0  0  0  0  0
   -1.5150    5.7946  -11.4406 C   0  0  0  0  0  0  0  0  0  0  0  0
   -1.7837    4.7513  -11.8398 N   0  0  0  0  0  0  0  0  0  0  0  0
   -1.5190    8.0588  -12.0099 C   0  0  0  0  0  0  0  0  0  0  0  0
   -1.8042    8.7992  -12.8417 N   0  0  0  0  0  0  0  0  0  0  0  0
    0.1913    4.1628   -8.0017 C   0  0  0  0  0  0  0  0  0  0  0  0
    1.5597    3.9905   -7.6746 C   0  0  0  0  0  0  0  0  0  0  0  0
    2.6314    4.5125   -8.3181 N   0  0  0  0  0  0  0  0  0  0  0  0
    2.5241    5.4132   -9.4198 C   0  0  0  0  0  0  0  0  0  0  0  0
    3.0568    6.6917   -9.3335 C   0  0  0  0  0  0  0  0  0  0  0  0
    2.9589    7.5556  -10.4107 C   0  0  0  0  0  0  0  0  0  0  0  0
    2.3395    7.1638  -11.5889 C   0  0  0  0  0  0  0  0  0  0  0  0
    2.1965    8.1058  -12.7424 C   0  0  0  0  0  0  0  0  0  0  0  0
    1.8463    5.8643  -11.6766 C   0  0  0  0  0  0  0  0  0  0  0  0
    1.9390    4.9938  -10.6095 C   0  0  0  0  0  0  0  0  0  0  0  0
    3.8571    3.7857   -8.3518 C   0  0  0  0  0  0  0  0  0  0  0  0
    3.8469    2.4215   -8.6324 C   0  0  0  0  0  0  0  0  0  0  0  0
    5.0321    1.7395   -8.8119 C   0  0  0  0  0  0  0  0  0  0  0  0
    6.2543    2.3987   -8.7448 C   0  0  0  0  0  0  0  0  0  0  0  0
    7.5225    1.6664   -9.0538 C   0  0  0  0  0  0  0  0  0  0  0  0
    6.2555    3.7521   -8.4374 C   0  0  0  0  0  0  0  0  0  0  0  0
    5.0738    4.4422   -8.2367 C   0  0  0  0  0  0  0  0  0  0  0  0
    1.6879    3.0505   -6.6241 C   0  0  0  0  0  0  0  0  0  0  0  0
    3.0102    2.5408   -5.6248 S   0  0  0  0  0  0  0  0  0  0  0  0
    1.9403    1.5128   -4.6902 C   0  0  0  0  0  0  0  0  0  0  0  0
    0.6435    1.4981   -5.1959 C   0  0  0  0  0  0  0  0  0  0  0  0
   -0.3777    0.6535   -4.7904 N   0  0  0  0  0  0  0  0  0  0  0  0
   -1.6926    1.1518   -4.7903 C   0  0  0  0  0  0  0  0  0  0  0  0
   -1.9524    2.4383   -4.3272 C   0  0  0  0  0  0  0  0  0  0  0  0
   -3.2413    2.9338   -4.3445 C   0  0  0  0  0  0  0  0  0  0  0  0
   -4.2992    2.1632   -4.8097 C   0  0  0  0  0  0  0  0  0  0  0  0
   -5.6928    2.7105   -4.8463 C   0  0  0  0  0  0  0  0  0  0  0  0
   -4.0302    0.8764   -5.2631 C   0  0  0  0  0  0  0  0  0  0  0  0
   -2.7456    0.3724   -5.2607 C   0  0  0  0  0  0  0  0  0  0  0  0
   -0.1169   -0.6642   -4.3997 C   0  0  0  0  0  0  0  0  0  0  0  0
   -0.8998   -1.2735   -3.4194 C   0  0  0  0  0  0  0  0  0  0  0  0
   -0.5725   -2.5275   -2.9454 C   0  0  0  0  0  0  0  0  0  0  0  0
    0.5443   -3.2074   -3.4153 C   0  0  0  0  0  0  0  0  0  0  0  0
    0.9624   -4.5174   -2.8216 C   0  0  0  0  0  0  0  0  0  0  0  0
    1.2840   -2.6205   -4.4347 C   0  0  0  0  0  0  0  0  0  0  0  0
    0.9580   -1.3751   -4.9323 C   0  0  0  0  0  0  0  0  0  0  0  0
    0.5075    2.4204   -6.2577 C   0  0  0  0  0  0  0  0  0  0  0  0
   -0.8333    2.9526   -7.2003 S   0  0  0  0  0  0  0  0  0  0  0  0
    2.3929    0.7671   -3.5572 C   0  0  0  0  0  0  0  0  0  0  0  0
    3.5237   -0.0095   -3.4167 C   0  0  0  0  0  0  0  0  0  0  0  0
    4.6908   -0.0122   -4.3045 C   0  0  0  0  0  0  0  0  0  0  0  0
    5.1119   -1.1769   -4.9310 C   0  0  0  0  0  0  0  0  0  0  0  0
    6.2756   -1.1623   -5.6781 C   0  0  0  0  0  0  0  0  0  0  0  0
    7.0212   -0.0028   -5.7851 C   0  0  0  0  0  0  0  0  0  0  0  0
    6.6146    1.1731   -5.1618 C   0  0  0  0  0  0  0  0  0  0  0  0
    7.4788    2.4007   -5.2643 C   0  0  0  0  0  0  0  0  0  0  0  0
    6.7694    3.7136   -4.9557 C   0  0  0  0  0  0  0  0  0  0  0  0
    5.4412    1.1529   -4.4260 C   0  0  0  0  0  0  0  0  0  0  0  0
    3.4591   -0.8044   -2.2560 C   0  0  0  0  0  0  0  0  0  0  0  0
    4.5187   -2.0342   -1.6147 S   0  0  0  0  0  0  0  0  0  0  0  0
    3.4224   -2.2512   -0.2910 C   0  0  0  0  0  0  0  0  0  0  0  0
    3.2757   -3.0542    0.8535 C   0  0  0  0  0  0  0  0  0  0  0  0
    4.0113   -4.1627    1.3284 C   0  0  0  0  0  0  0  0  0  0  0  0
    3.5283   -4.8854    2.4738 C   0  0  0  0  0  0  0  0  0  0  0  0
    4.2783   -5.9379    2.7600 N   0  0  0  0  0  0  0  0  0  0  0  0
    5.4905   -6.0118    1.6887 S   0  0  0  0  0  0  0  0  0  0  0  0
    5.1041   -4.7050    0.8146 N   0  0  0  0  0  0  0  0  0  0  0  0
    2.4077   -4.3863    3.1728 C   0  0  0  0  0  0  0  0  0  0  0  0
    1.7914   -4.7804    4.3747 C   0  0  0  0  0  0  0  0  0  0  0  0
    1.9022   -6.0357    5.5626 S   0  0  0  0  0  0  0  0  0  0  0  0
    0.6331   -5.2544    6.4778 C   0  0  0  0  0  0  0  0  0  0  0  0
   -0.0263   -5.5859    7.6814 C   0  0  0  0  0  0  0  0  0  0  0  0
    0.2446   -6.8339    8.3994 C   0  0  0  0  0  0  0  0  0  0  0  0
   -0.7981   -7.6582    8.8171 C   0  0  0  0  0  0  0  0  0  0  0  0
   -0.5172   -8.8573    9.4420 C   0  0  0  0  0  0  0  0  0  0  0  0
    0.7951   -9.2490    9.6489 C   0  0  0  0  0  0  0  0  0  0  0  0
    1.8462   -8.4424    9.2333 C   0  0  0  0  0  0  0  0  0  0  0  0
    3.2727   -8.8813    9.3932 C   0  0  0  0  0  0  0  0  0  0  0  0
    3.7725   -9.5274    8.0993 C   0  0  0  0  0  0  0  0  0  0  0  0
    1.5581   -7.2377    8.6084 C   0  0  0  0  0  0  0  0  0  0  0  0
   -0.9870   -4.6471    8.0021 C   0  0  0  0  0  0  0  0  0  0  0  0
   -1.1026   -3.3691    6.8002 S   0  0  0  0  0  0  0  0  0  0  0  0
    0.1633   -4.0872    5.8761 C   0  0  0  0  0  0  0  0  0  0  0  0
    0.8220   -3.8202    4.6701 C   0  0  0  0  0  0  0  0  0  0  0  0
    0.7875   -2.8635    3.6882 N   0  0  0  0  0  0  0  0  0  0  0  0
    1.7428   -3.2053    2.7462 C   0  0  0  0  0  0  0  0  0  0  0  0
    2.0830   -2.6274    1.4990 C   0  0  0  0  0  0  0  0  0  0  0  0
    1.4846   -1.6429    0.7275 N   0  0  0  0  0  0  0  0  0  0  0  0
    2.3060   -1.4129   -0.3453 C   0  0  0  0  0  0  0  0  0  0  0  0
    2.3208   -0.5920   -1.4792 C   0  0  0  0  0  0  0  0  0  0  0  0
    1.3111    0.6224   -2.1717 S   0  0  0  0  0  0  0  0  0  0  0  0
    0.0874   -1.2621    0.6421 C   0  0  0  0  0  0  0  0  0  0  0  0
   -0.8514   -2.4497    0.8178 C   0  0  0  0  0  0  0  0  0  0  0  0
    0.2881   -1.5446    4.0080 C   0  0  0  0  0  0  0  0  0  0  0  0
    1.1860   -0.8499    5.0308 C   0  0  0  0  0  0  0  0  0  0  0  0
   -1.8279   -4.5445    9.1720 C   0  0  0  0  0  0  0  0  0  0  0  0
   -3.0620   -3.8789    9.0808 C   0  0  0  0  0  0  0  0  0  0  0  0
   -3.8457   -3.7703   10.2029 C   0  0  0  0  0  0  0  0  0  0  0  0
   -5.1715   -3.1187   10.3580 C   0  0  0  0  0  0  0  0  0  0  0  0
   -5.8352   -2.5627    9.5160 O   0  0  0  0  0  0  0  0  0  0  0  0
   -5.4993   -3.2988   11.7987 C   0  0  0  0  0  0  0  0  0  0  0  0
   -4.4610   -4.0140   12.4315 C   0  0  0  0  0  0  0  0  0  0  0  0
   -3.4350   -4.3032   11.4421 C   0  0  0  0  0  0  0  0  0  0  0  0
   -2.2136   -4.9449   11.5405 C   0  0  0  0  0  0  0  0  0  0  0  0
   -1.4201   -5.0550   10.4099 C   0  0  0  0  0  0  0  0  0  0  0  0
   -4.5568   -4.3179   13.7779 C   0  0  0  0  0  0  0  0  0  0  0  0
   -5.6703   -3.8864   14.4795 C   0  0  0  0  0  0  0  0  0  0  0  0
   -6.6756   -3.1250   13.8724 C   0  0  0  0  0  0  0  0  0  0  0  0
   -6.5917   -2.8513   12.4954 C   0  0  0  0  0  0  0  0  0  0  0  0
   -7.7964   -2.6692   14.6523 C   0  0  0  0  0  0  0  0  0  0  0  0
   -8.5461   -1.5568   14.4685 C   0  0  0  0  0  0  0  0  0  0  0  0
   -9.8802   -1.4493   15.1289 C   0  0  0  0  0  0  0  0  0  0  0  0
  -10.2980   -2.1496   16.0185 O   0  0  0  0  0  0  0  0  0  0  0  0
  -10.5702   -0.3528   14.4191 C   0  0  0  0  0  0  0  0  0  0  0  0
  -11.8818    0.0901   14.5267 C   0  0  0  0  0  0  0  0  0  0  0  0
  -12.9677   -0.6248   15.6403 Cl  0  0  0  0  0  0  0  0  0  0  0  0
  -12.3083    1.1329   13.7086 C   0  0  0  0  0  0  0  0  0  0  0  0
  -11.4239    1.7002   12.8047 C   0  0  0  0  0  0  0  0  0  0  0  0
  -12.0401    3.1012   11.6897 Br  0  0  0  0  0  0  0  0  0  0  0  0
  -10.1034    1.2804   12.6833 C   0  0  0  0  0  0  0  0  0  0  0  0
   -9.6828    0.2512   13.5058 C   0  0  0  0  0  0  0  0  0  0  0  0
   -8.3694   -0.3810   13.6369 C   0  0  0  0  0  0  0  0  0  0  0  0
   -7.1830    0.1859   13.2630 C   0  0  0  0  0  0  0  0  0  0  0  0
   -5.9164   -0.3218   13.6264 C   0  0  0  0  0  0  0  0  0  0  0  0
   -4.8617   -0.6469   13.9395 N   0  0  0  0  0  0  0  0  0  0  0  0
   -7.0803    1.4034   12.5557 C   0  0  0  0  0  0  0  0  0  0  0  0
   -6.9483    2.3848   11.9765 N   0  0  0  0  0  0  0  0  0  0  0  0
   -1.4229    4.8151   -9.1862 H   0  0  0  0  0  0  0  0  0  0  0  0
    1.7583   11.7352   -7.8722 H   0  0  0  0  0  0  0  0  0  0  0  0
   -0.7380   10.0924  -10.9434 H   0  0  0  0  0  0  0  0  0  0  0  0
    3.5175    7.0226   -8.4159 H   0  0  0  0  0  0  0  0  0  0  0  0
    3.3635    8.5539  -10.3256 H   0  0  0  0  0  0  0  0  0  0  0  0
    2.6120    9.0814  -12.5038 H   0  0  0  0  0  0  0  0  0  0  0  0
    2.7094    7.7127  -13.6189 H   0  0  0  0  0  0  0  0  0  0  0  0
    1.1465    8.2303  -13.0055 H   0  0  0  0  0  0  0  0  0  0  0  0
    1.3769    5.5339  -12.5916 H   0  0  0  0  0  0  0  0  0  0  0  0
    1.5448    3.9919  -10.6924 H   0  0  0  0  0  0  0  0  0  0  0  0
    2.9057    1.9008   -8.7348 H   0  0  0  0  0  0  0  0  0  0  0  0
    5.0079    0.6833   -9.0357 H   0  0  0  0  0  0  0  0  0  0  0  0
    7.5121    0.6749   -8.6075 H   0  0  0  0  0  0  0  0  0  0  0  0
    8.3927    2.2129   -8.6984 H   0  0  0  0  0  0  0  0  0  0  0  0
    7.6202    1.5441  -10.1331 H   0  0  0  0  0  0  0  0  0  0  0  0
    7.1929    4.2836   -8.3639 H   0  0  0  0  0  0  0  0  0  0  0  0
    5.1002    5.4937   -8.0026 H   0  0  0  0  0  0  0  0  0  0  0  0
   -1.1404    3.0435   -3.9506 H   0  0  0  0  0  0  0  0  0  0  0  0
   -3.4281    3.9350   -3.9840 H   0  0  0  0  0  0  0  0  0  0  0  0
   -6.4235    1.9246   -4.6688 H   0  0  0  0  0  0  0  0  0  0  0  0
   -5.8240    3.4911   -4.1008 H   0  0  0  0  0  0  0  0  0  0  0  0
   -5.8961    3.1422   -5.8269 H   0  0  0  0  0  0  0  0  0  0  0  0
   -4.8390    0.2628   -5.6328 H   0  0  0  0  0  0  0  0  0  0  0  0
   -2.5481   -0.6250   -5.6251 H   0  0  0  0  0  0  0  0  0  0  0  0
   -1.7472   -0.7432   -3.0111 H   0  0  0  0  0  0  0  0  0  0  0  0
   -1.1897   -2.9773   -2.1814 H   0  0  0  0  0  0  0  0  0  0  0  0
    1.3878   -5.1704   -3.5803 H   0  0  0  0  0  0  0  0  0  0  0  0
    0.1202   -5.0227   -2.3542 H   0  0  0  0  0  0  0  0  0  0  0  0
    1.7263   -4.3524   -2.0590 H   0  0  0  0  0  0  0  0  0  0  0  0
    2.1339   -3.1470   -4.8441 H   0  0  0  0  0  0  0  0  0  0  0  0
    1.5483   -0.9423   -5.7266 H   0  0  0  0  0  0  0  0  0  0  0  0
    4.5337   -2.0823   -4.8273 H   0  0  0  0  0  0  0  0  0  0  0  0
    6.6101   -2.0653   -6.1678 H   0  0  0  0  0  0  0  0  0  0  0  0
    7.9461   -0.0114   -6.3443 H   0  0  0  0  0  0  0  0  0  0  0  0
    7.8897    2.4457   -6.2746 H   0  0  0  0  0  0  0  0  0  0  0  0
    8.3250    2.2801   -4.5792 H   0  0  0  0  0  0  0  0  0  0  0  0
    6.5074    3.7823   -3.9030 H   0  0  0  0  0  0  0  0  0  0  0  0
    7.4239    4.5497   -5.1915 H   0  0  0  0  0  0  0  0  0  0  0  0
    5.8635    3.8053   -5.5505 H   0  0  0  0  0  0  0  0  0  0  0  0
    5.1111    2.0343   -3.8997 H   0  0  0  0  0  0  0  0  0  0  0  0
   -1.8208   -7.3593    8.6407 H   0  0  0  0  0  0  0  0  0  0  0  0
   -1.3269   -9.4959    9.7635 H   0  0  0  0  0  0  0  0  0  0  0  0
    1.0048  -10.1912   10.1343 H   0  0  0  0  0  0  0  0  0  0  0  0
    3.9008   -8.0198    9.6294 H   0  0  0  0  0  0  0  0  0  0  0  0
    3.3526   -9.5989   10.2119 H   0  0  0  0  0  0  0  0  0  0  0  0
    3.1683  -10.3981    7.8544 H   0  0  0  0  0  0  0  0  0  0  0  0
    3.7060   -8.8224    7.2738 H   0  0  0  0  0  0  0  0  0  0  0  0
    4.8078   -9.8419    8.2069 H   0  0  0  0  0  0  0  0  0  0  0  0
    2.3682   -6.5981    8.2892 H   0  0  0  0  0  0  0  0  0  0  0  0
   -0.0514   -0.8449   -0.3592 H   0  0  0  0  0  0  0  0  0  0  0  0
   -0.1528   -0.4637    1.3524 H   0  0  0  0  0  0  0  0  0  0  0  0
   -0.5673   -3.2469    0.1350 H   0  0  0  0  0  0  0  0  0  0  0  0
   -1.8687   -2.1404    0.5936 H   0  0  0  0  0  0  0  0  0  0  0  0
   -0.8249   -2.8410    1.8301 H   0  0  0  0  0  0  0  0  0  0  0  0
   -0.7225   -1.6541    4.4136 H   0  0  0  0  0  0  0  0  0  0  0  0
    0.2491   -0.9423    3.1068 H   0  0  0  0  0  0  0  0  0  0  0  0
    0.7988    0.1423    5.2447 H   0  0  0  0  0  0  0  0  0  0  0  0
    1.2218   -1.4142    5.9590 H   0  0  0  0  0  0  0  0  0  0  0  0
    2.1974   -0.7559    4.6407 H   0  0  0  0  0  0  0  0  0  0  0  0
   -3.3959   -3.4640    8.1409 H   0  0  0  0  0  0  0  0  0  0  0  0
   -1.8685   -5.3438   12.4821 H   0  0  0  0  0  0  0  0  0  0  0  0
   -0.4554   -5.5320   10.4864 H   0  0  0  0  0  0  0  0  0  0  0  0
   -3.7810   -4.8767   14.2783 H   0  0  0  0  0  0  0  0  0  0  0  0
   -5.7530   -4.1047   15.5341 H   0  0  0  0  0  0  0  0  0  0  0  0
   -7.3856   -2.3270   11.9840 H   0  0  0  0  0  0  0  0  0  0  0  0
   -8.1253   -3.3202   15.4566 H   0  0  0  0  0  0  0  0  0  0  0  0
  -13.3230    1.4912   13.7785 H   0  0  0  0  0  0  0  0  0  0  0  0
   -9.4494    1.7430   11.9622 H   0  0  0  0  0  0  0  0  0  0  0  0
  1  2  2  0  0  0  0
  2  3  1  0  0  0  0
  3  4  2  0  0  0  0
  3  5  1  0  0  0  0
  5  6  2  0  0  0  0
  6  7  1  0  0  0  0
  6  8  1  0  0  0  0
  8  9  2  0  0  0  0
  9 10  1  0  0  0  0
  9 11  1  0  0  0  0
 11 12  2  0  0  0  0
 12 13  1  0  0  0  0
 13 14  2  0  0  0  0
 14 15  1  0  0  0  0
 15 16  3  0  0  0  0
 14 17  1  0  0  0  0
 17 18  3  0  0  0  0
  1 19  1  0  0  0  0
 19 20  2  0  0  0  0
 20 21  1  0  0  0  0
 21 22  1  0  0  0  0
 22 23  2  0  0  0  0
 23 24  1  0  0  0  0
 24 25  2  0  0  0  0
 25 26  1  0  0  0  0
 25 27  1  0  0  0  0
 27 28  2  0  0  0  0
 21 29  1  0  0  0  0
 29 30  2  0  0  0  0
 30 31  1  0  0  0  0
 31 32  2  0  0  0  0
 32 33  1  0  0  0  0
 32 34  1  0  0  0  0
 34 35  2  0  0  0  0
 20 36  1  0  0  0  0
 36 37  1  0  0  0  0
 37 38  1  0  0  0  0
 38 39  2  0  0  0  0
 39 40  1  0  0  0  0
 40 41  1  0  0  0  0
 41 42  2  0  0  0  0
 42 43  1  0  0  0  0
 43 44  2  0  0  0  0
 44 45  1  0  0  0  0
 44 46  1  0  0  0  0
 46 47  2  0  0  0  0
 40 48  1  0  0  0  0
 48 49  2  0  0  0  0
 49 50  1  0  0  0  0
 50 51  2  0  0  0  0
 51 52  1  0  0  0  0
 51 53  1  0  0  0  0
 53 54  2  0  0  0  0
 39 55  1  0  0  0  0
 55 56  1  0  0  0  0
 38 57  1  0  0  0  0
 57 58  2  0  0  0  0
 58 59  1  0  0  0  0
 59 60  2  0  0  0  0
 60 61  1  0  0  0  0
 61 62  2  0  0  0  0
 62 63  1  0  0  0  0
 63 64  1  0  0  0  0
 64 65  1  0  0  0  0
 63 66  2  0  0  0  0
 58 67  1  0  0  0  0
 67 68  1  0  0  0  0
 68 69  1  0  0  0  0
 69 70  1  0  0  0  0
 70 71  1  0  0  0  0
 71 72  1  0  0  0  0
 72 73  2  0  0  0  0
 73 74  1  0  0  0  0
 74 75  1  0  0  0  0
 72 76  1  0  0  0  0
 76 77  1  0  0  0  0
 77 78  1  0  0  0  0
 78 79  1  0  0  0  0
 79 80  1  0  0  0  0
 80 81  1  0  0  0  0
 81 82  2  0  0  0  0
 82 83  1  0  0  0  0
 83 84  2  0  0  0  0
 84 85  1  0  0  0  0
 85 86  1  0  0  0  0
 86 87  1  0  0  0  0
 85 88  2  0  0  0  0
 80 89  2  0  0  0  0
 89 90  1  0  0  0  0
 90 91  1  0  0  0  0
 91 92  1  0  0  0  0
 92 93  1  0  0  0  0
 93 94  1  0  0  0  0
 94 95  1  0  0  0  0
 95 96  1  0  0  0  0
 96 97  1  0  0  0  0
 97 98  1  0  0  0  0
 98 99  1  0  0  0  0
 96100  1  0  0  0  0
100101  1  0  0  0  0
 93102  1  0  0  0  0
102103  1  0  0  0  0
 89104  1  0  0  0  0
104105  2  0  0  0  0
105106  1  0  0  0  0
106107  1  0  0  0  0
107108  2  0  0  0  0
107109  1  0  0  0  0
109110  2  0  0  0  0
110111  1  0  0  0  0
111112  1  0  0  0  0
112113  2  0  0  0  0
110114  1  0  0  0  0
114115  2  0  0  0  0
115116  1  0  0  0  0
116117  2  0  0  0  0
116118  1  0  0  0  0
118119  2  0  0  0  0
119120  1  0  0  0  0
120121  2  0  0  0  0
120122  1  0  0  0  0
122123  2  0  0  0  0
123124  1  0  0  0  0
123125  1  0  0  0  0
125126  2  0  0  0  0
126127  1  0  0  0  0
126128  1  0  0  0  0
128129  2  0  0  0  0
129130  1  0  0  0  0
130131  2  0  0  0  0
131132  1  0  0  0  0
132133  3  0  0  0  0
131134  1  0  0  0  0
134135  3  0  0  0  0
 13  2  1  0  0  0  0
 56 19  1  0  0  0  0
 99 57  1  0  0  0  0
113104  1  0  0  0  0
130119  1  0  0  0  0
 12  5  1  0  0  0  0
 28 22  1  0  0  0  0
 35 29  1  0  0  0  0
 55 36  2  0  0  0  0
 66 59  1  0  0  0  0
 98 67  2  0  0  0  0
111106  2  0  0  0  0
129122  1  0  0  0  0
 47 41  1  0  0  0  0
 54 48  1  0  0  0  0
 97 69  2  0  0  0  0
117109  1  0  0  0  0
 95 70  2  0  0  0  0
 75 71  2  0  0  0  0
 94 76  2  0  0  0  0
 92 77  2  0  0  0  0
 91 79  2  0  0  0  0
 88 81  1  0  0  0  0
  1136  1  0  0  0  0
  8137  1  0  0  0  0
 11138  1  0  0  0  0
 23139  1  0  0  0  0
 24140  1  0  0  0  0
 26141  1  0  0  0  0
 26142  1  0  0  0  0
 26143  1  0  0  0  0
 27144  1  0  0  0  0
 28145  1  0  0  0  0
 30146  1  0  0  0  0
 31147  1  0  0  0  0
 33148  1  0  0  0  0
 33149  1  0  0  0  0
 33150  1  0  0  0  0
 34151  1  0  0  0  0
 35152  1  0  0  0  0
 42153  1  0  0  0  0
 43154  1  0  0  0  0
 45155  1  0  0  0  0
 45156  1  0  0  0  0
 45157  1  0  0  0  0
 46158  1  0  0  0  0
 47159  1  0  0  0  0
 49160  1  0  0  0  0
 50161  1  0  0  0  0
 52162  1  0  0  0  0
 52163  1  0  0  0  0
 52164  1  0  0  0  0
 53165  1  0  0  0  0
 54166  1  0  0  0  0
 60167  1  0  0  0  0
 61168  1  0  0  0  0
 62169  1  0  0  0  0
 64170  1  0  0  0  0
 64171  1  0  0  0  0
 65172  1  0  0  0  0
 65173  1  0  0  0  0
 65174  1  0  0  0  0
 66175  1  0  0  0  0
 82176  1  0  0  0  0
 83177  1  0  0  0  0
 84178  1  0  0  0  0
 86179  1  0  0  0  0
 86180  1  0  0  0  0
 87181  1  0  0  0  0
 87182  1  0  0  0  0
 87183  1  0  0  0  0
 88184  1  0  0  0  0
100185  1  0  0  0  0
100186  1  0  0  0  0
101187  1  0  0  0  0
101188  1  0  0  0  0
101189  1  0  0  0  0
102190  1  0  0  0  0
102191  1  0  0  0  0
103192  1  0  0  0  0
103193  1  0  0  0  0
103194  1  0  0  0  0
105195  1  0  0  0  0
112196  1  0  0  0  0
113197  1  0  0  0  0
114198  1  0  0  0  0
115199  1  0  0  0  0
117200  1  0  0  0  0
118201  1  0  0  0  0
125202  1  0  0  0  0
128203  1  0  0  0  0
M  END
