203

C         -0.47040        5.11640       -8.76610
C         -0.07310        6.43530       -8.90020
C          0.76080        7.11130       -7.89770
O          1.27040        6.63090       -6.90450
C          0.75890        8.54070       -8.29670
C          1.39320        9.62490       -7.71720
Cl         2.35240        9.44160       -6.30650
C          1.26350       10.88100       -8.30620
C          0.49830       11.01540       -9.45090
Br         0.33860       12.73370      -10.23960
C         -0.15040        9.94130      -10.05280
C         -0.00790        8.69940       -9.46540
C         -0.51720        7.38600       -9.86620
C         -1.17810        7.10140      -11.03960
C         -1.51500        5.79460      -11.44060
N         -1.78370        4.75130      -11.83980
C         -1.51900        8.05880      -12.00990
N         -1.80420        8.79920      -12.84170
C          0.19130        4.16280       -8.00170
C          1.55970        3.99050       -7.67460
N          2.63140        4.51250       -8.31810
C          2.52410        5.41320       -9.41980
C          3.05680        6.69170       -9.33350
C          2.95890        7.55560      -10.41070
C          2.33950        7.16380      -11.58890
C          2.19650        8.10580      -12.74240
C          1.84630        5.86430      -11.67660
C          1.93900        4.99380      -10.60950
C          3.85710        3.78570       -8.35180
C          3.84690        2.42150       -8.63240
C          5.03210        1.73950       -8.81190
C          6.25430        2.39870       -8.74480
C          7.52250        1.66640       -9.05380
C          6.25550        3.75210       -8.43740
C          5.07380        4.44220       -8.23670
C          1.68790        3.05050       -6.62410
S          3.01020        2.54080       -5.62480
C          1.94030        1.51280       -4.69020
C          0.64350        1.49810       -5.19590
N         -0.37770        0.65350       -4.79040
C         -1.69260        1.15180       -4.79030
C         -1.95240        2.43830       -4.32720
C         -3.24130        2.93380       -4.34450
C         -4.29920        2.16320       -4.80970
C         -5.69280        2.71050       -4.84630
C         -4.03020        0.87640       -5.26310
C         -2.74560        0.37240       -5.26070
C         -0.11690       -0.66420       -4.39970
C         -0.89980       -1.27350       -3.41940
C         -0.57250       -2.52750       -2.94540
C          0.54430       -3.20740       -3.41530
C          0.96240       -4.51740       -2.82160
C          1.28400       -2.62050       -4.43470
C          0.95800       -1.37510       -4.93230
C          0.50750        2.42040       -6.25770
S         -0.83330        2.95260       -7.20030
C          2.39290        0.76710       -3.55720
C          3.52370       -0.00950       -3.41670
C          4.69080       -0.01220       -4.30450
C          5.11190       -1.17690       -4.93100
C          6.27560       -1.16230       -5.67810
C          7.02120       -0.00280       -5.78510
C          6.61460        1.17310       -5.16180
C          7.47880        2.40070       -5.26430
C          6.76940        3.71360       -4.95570
C          5.44120        1.15290       -4.42600
C          3.45910       -0.80440       -2.25600
S          4.51870       -2.03420       -1.61470
C          3.42240       -2.25120       -0.29100
C          3.27570       -3.05420        0.85350
C          4.01130       -4.16270        1.32840
C          3.52830       -4.88540        2.47380
N          4.27830       -5.93790        2.76000
S          5.49050       -6.01180        1.68870
N          5.10410       -4.70500        0.81460
C          2.40770       -4.38630        3.17280
C          1.79140       -4.78040        4.37470
S          1.90220       -6.03570        5.56260
C          0.63310       -5.25440        6.47780
C         -0.02630       -5.58590        7.68140
C          0.24460       -6.83390        8.39940
C         -0.79810       -7.65820        8.81710
C         -0.51720       -8.85730        9.44200
C          0.79510       -9.24900        9.64890
C          1.84620       -8.44240        9.23330
C          3.27270       -8.88130        9.39320
C          3.77250       -9.52740        8.09930
C          1.55810       -7.23770        8.60840
C         -0.98700       -4.64710        8.00210
S         -1.10260       -3.36910        6.80020
C          0.16330       -4.08720        5.87610
C          0.82200       -3.82020        4.67010
N          0.78750       -2.86350        3.68820
C          1.74280       -3.20530        2.74620
C          2.08300       -2.62740        1.49900
N          1.48460       -1.64290        0.72750
C          2.30600       -1.41290       -0.34530
C          2.32080       -0.59200       -1.47920
S          1.31110        0.62240       -2.17170
C          0.08740       -1.26210        0.64210
C         -0.85140       -2.44970        0.81780
C          0.28810       -1.54460        4.00800
C          1.18600       -0.84990        5.03080
C         -1.82790       -4.54450        9.17200
C         -3.06200       -3.87890        9.08080
C         -3.84570       -3.77030       10.20290
C         -5.17150       -3.11870       10.35800
O         -5.83520       -2.56270        9.51600
C         -5.49930       -3.29880       11.79870
C         -4.46100       -4.01400       12.43150
C         -3.43500       -4.30320       11.44210
C         -2.21360       -4.94490       11.54050
C         -1.42010       -5.05500       10.40990
C         -4.55680       -4.31790       13.77790
C         -5.67030       -3.88640       14.47950
C         -6.67560       -3.12500       13.87240
C         -6.59170       -2.85130       12.49540
C         -7.79640       -2.66920       14.65230
C         -8.54610       -1.55680       14.46850
C         -9.88020       -1.44930       15.12890
O        -10.29800       -2.14960       16.01850
C        -10.57020       -0.35280       14.41910
C        -11.88180        0.09010       14.52670
Cl       -12.96770       -0.62480       15.64030
C        -12.30830        1.13290       13.70860
C        -11.42390        1.70020       12.80470
Br       -12.04010        3.10120       11.68970
C        -10.10340        1.28040       12.68330
C         -9.68280        0.25120       13.50580
C         -8.36940       -0.38100       13.63690
C         -7.18300        0.18590       13.26300
C         -5.91640       -0.32180       13.62640
N         -4.86170       -0.64690       13.93950
C         -7.08030        1.40340       12.55570
N         -6.94830        2.38480       11.97650
H         -1.42290        4.81510       -9.18620
H          1.75830       11.73520       -7.87220
H         -0.73800       10.09240      -10.94340
H          3.51750        7.02260       -8.41590
H          3.36350        8.55390      -10.32560
H          2.61200        9.08140      -12.50380
H          2.70940        7.71270      -13.61890
H          1.14650        8.23030      -13.00550
H          1.37690        5.53390      -12.59160
H          1.54480        3.99190      -10.69240
H          2.90570        1.90080       -8.73480
H          5.00790        0.68330       -9.03570
H          7.51210        0.67490       -8.60750
H          8.39270        2.21290       -8.69840
H          7.62020        1.54410      -10.13310
H          7.19290        4.28360       -8.36390
H          5.10020        5.49370       -8.00260
H         -1.14040        3.04350       -3.95060
H         -3.42810        3.93500       -3.98400
H         -6.42350        1.92460       -4.66880
H         -5.82400        3.49110       -4.10080
H         -5.89610        3.14220       -5.82690
H         -4.83900        0.26280       -5.63280
H         -2.54810       -0.62500       -5.62510
H         -1.74720       -0.74320       -3.01110
H         -1.18970       -2.97730       -2.18140
H          1.38780       -5.17040       -3.58030
H          0.12020       -5.02270       -2.35420
H          1.72630       -4.35240       -2.05900
H          2.13390       -3.14700       -4.84410
H          1.54830       -0.94230       -5.72660
H          4.53370       -2.08230       -4.82730
H          6.61010       -2.06530       -6.16780
H          7.94610       -0.01140       -6.34430
H          7.88970        2.44570       -6.27460
H          8.32500        2.28010       -4.57920
H          6.50740        3.78230       -3.90300
H          7.42390        4.54970       -5.19150
H          5.86350        3.80530       -5.55050
H          5.11110        2.03430       -3.89970
H         -1.82080       -7.35930        8.64070
H         -1.32690       -9.49590        9.76350
H          1.00480      -10.19120       10.13430
H          3.90080       -8.01980        9.62940
H          3.35260       -9.59890       10.21190
H          3.16830      -10.39810        7.85440
H          3.70600       -8.82240        7.27380
H          4.80780       -9.84190        8.20690
H          2.36820       -6.59810        8.28920
H         -0.05140       -0.84490       -0.35920
H         -0.15280       -0.46370        1.35240
H         -0.56730       -3.24690        0.13500
H         -1.86870       -2.14040        0.59360
H         -0.82490       -2.84100        1.83010
H         -0.72250       -1.65410        4.41360
H          0.24910       -0.94230        3.10680
H          0.79880        0.14230        5.24470
H          1.22180       -1.41420        5.95900
H          2.19740       -0.75590        4.64070
H         -3.39590       -3.46400        8.14090
H         -1.86850       -5.34380       12.48210
H         -0.45540       -5.53200       10.48640
H         -3.78100       -4.87670       14.27830
H         -5.75300       -4.10470       15.53410
H         -7.38560       -2.32700       11.98400
H         -8.12530       -3.32020       15.45660
H        -13.32300        1.49120       13.77850
H         -9.44940        1.74300       11.96220
