
  xtb     02082201393D
 energy: -426.936137255794 gnorm: 0.000959157608 xtb: 6.4.1 (unknown)
249274  0     0  0            999 V2000
  -12.0766   -1.9318   -0.5399 C   0  0  0  0  0  0  0  0  0  0  0  0
  -12.8564   -1.6009    0.5433 C   0  0  0  0  0  0  0  0  0  0  0  0
  -14.3091   -1.8589    0.5160 C   0  0  0  0  0  0  0  0  0  0  0  0
  -14.9126   -2.5758   -0.2517 O   0  0  0  0  0  0  0  0  0  0  0  0
  -14.8682   -1.0026    1.5934 C   0  0  0  0  0  0  0  0  0  0  0  0
  -16.1838   -0.7461    1.9437 C   0  0  0  0  0  0  0  0  0  0  0  0
  -17.4838   -1.5217    1.1389 Cl  0  0  0  0  0  0  0  0  0  0  0  0
  -16.4475    0.1638    2.9661 C   0  0  0  0  0  0  0  0  0  0  0  0
  -15.3931    0.7869    3.6107 C   0  0  0  0  0  0  0  0  0  0  0  0
  -15.7756    2.0519    4.9710 Br  0  0  0  0  0  0  0  0  0  0  0  0
  -14.0630    0.5298    3.2966 C   0  0  0  0  0  0  0  0  0  0  0  0
  -13.8130   -0.3725    2.2815 C   0  0  0  0  0  0  0  0  0  0  0  0
  -12.5474   -0.8667    1.7377 C   0  0  0  0  0  0  0  0  0  0  0  0
  -11.3458   -0.8652    2.4082 C   0  0  0  0  0  0  0  0  0  0  0  0
  -10.2701   -1.6834    2.0098 C   0  0  0  0  0  0  0  0  0  0  0  0
   -9.4110   -2.3966    1.7383 N   0  0  0  0  0  0  0  0  0  0  0  0
  -11.0970   -0.1273    3.5774 C   0  0  0  0  0  0  0  0  0  0  0  0
  -10.8442    0.4900    4.5130 N   0  0  0  0  0  0  0  0  0  0  0  0
  -10.8711   -1.3423   -0.9269 C   0  0  0  0  0  0  0  0  0  0  0  0
  -10.0674   -1.7002   -2.0310 C   0  0  0  0  0  0  0  0  0  0  0  0
  -10.2072   -2.8431   -2.7571 N   0  0  0  0  0  0  0  0  0  0  0  0
  -10.6988   -4.0375   -2.1850 C   0  0  0  0  0  0  0  0  0  0  0  0
  -10.3112   -4.4260   -0.9061 C   0  0  0  0  0  0  0  0  0  0  0  0
  -10.8008   -5.5997   -0.3700 C   0  0  0  0  0  0  0  0  0  0  0  0
  -11.6681   -6.4150   -1.0894 C   0  0  0  0  0  0  0  0  0  0  0  0
  -12.2187   -7.6701   -0.4879 C   0  0  0  0  0  0  0  0  0  0  0  0
  -12.0305   -6.0250   -2.3731 C   0  0  0  0  0  0  0  0  0  0  0  0
  -11.5545   -4.8500   -2.9211 C   0  0  0  0  0  0  0  0  0  0  0  0
   -9.7610   -2.8771   -4.0925 C   0  0  0  0  0  0  0  0  0  0  0  0
  -10.0654   -1.8288   -4.9574 C   0  0  0  0  0  0  0  0  0  0  0  0
   -9.6338   -1.8667   -6.2675 C   0  0  0  0  0  0  0  0  0  0  0  0
   -8.9003   -2.9451   -6.7498 C   0  0  0  0  0  0  0  0  0  0  0  0
   -8.4208   -2.9629   -8.1678 C   0  0  0  0  0  0  0  0  0  0  0  0
   -8.6137   -3.9916   -5.8815 C   0  0  0  0  0  0  0  0  0  0  0  0
   -9.0356   -3.9648   -4.5669 C   0  0  0  0  0  0  0  0  0  0  0  0
   -9.0633   -0.7325   -2.2575 C   0  0  0  0  0  0  0  0  0  0  0  0
   -7.7421   -0.5921   -3.3703 S   0  0  0  0  0  0  0  0  0  0  0  0
   -7.2019    0.8757   -2.5724 C   0  0  0  0  0  0  0  0  0  0  0  0
   -7.9657    1.1966   -1.4546 C   0  0  0  0  0  0  0  0  0  0  0  0
   -7.6840    2.1852   -0.5364 N   0  0  0  0  0  0  0  0  0  0  0  0
   -6.3634    2.5444   -0.2213 C   0  0  0  0  0  0  0  0  0  0  0  0
   -6.0695    3.8723    0.0785 C   0  0  0  0  0  0  0  0  0  0  0  0
   -4.7644    4.2617    0.2986 C   0  0  0  0  0  0  0  0  0  0  0  0
   -3.7191    3.3457    0.2387 C   0  0  0  0  0  0  0  0  0  0  0  0
   -2.3033    3.7980    0.4269 C   0  0  0  0  0  0  0  0  0  0  0  0
   -4.0310    2.0119    0.0150 C   0  0  0  0  0  0  0  0  0  0  0  0
   -5.3347    1.6075   -0.2029 C   0  0  0  0  0  0  0  0  0  0  0  0
   -8.7288    2.6513    0.2883 C   0  0  0  0  0  0  0  0  0  0  0  0
   -9.9278    3.0829   -0.2702 C   0  0  0  0  0  0  0  0  0  0  0  0
  -10.9750    3.4582    0.5505 C   0  0  0  0  0  0  0  0  0  0  0  0
  -10.8531    3.4161    1.9337 C   0  0  0  0  0  0  0  0  0  0  0  0
  -11.9943    3.8034    2.8226 C   0  0  0  0  0  0  0  0  0  0  0  0
   -9.6371    3.0199    2.4802 C   0  0  0  0  0  0  0  0  0  0  0  0
   -8.5840    2.6425    1.6726 C   0  0  0  0  0  0  0  0  0  0  0  0
   -9.0494    0.2992   -1.3298 C   0  0  0  0  0  0  0  0  0  0  0  0
  -10.3192    0.1582   -0.1766 S   0  0  0  0  0  0  0  0  0  0  0  0
   -6.0383    1.5816   -3.0130 C   0  0  0  0  0  0  0  0  0  0  0  0
   -5.8916    2.9530   -3.1110 C   0  0  0  0  0  0  0  0  0  0  0  0
   -7.0171    3.8840   -3.1314 C   0  0  0  0  0  0  0  0  0  0  0  0
   -8.2392    3.5085   -3.6890 C   0  0  0  0  0  0  0  0  0  0  0  0
   -9.3011    4.3914   -3.6914 C   0  0  0  0  0  0  0  0  0  0  0  0
   -9.1619    5.6571   -3.1473 C   0  0  0  0  0  0  0  0  0  0  0  0
   -7.9462    6.0585   -2.6105 C   0  0  0  0  0  0  0  0  0  0  0  0
   -7.7554    7.4484   -2.0762 C   0  0  0  0  0  0  0  0  0  0  0  0
   -7.1461    8.3497   -3.1518 C   0  0  0  0  0  0  0  0  0  0  0  0
   -6.8828    5.1688   -2.6160 C   0  0  0  0  0  0  0  0  0  0  0  0
   -4.5276    3.3059   -3.2139 C   0  0  0  0  0  0  0  0  0  0  0  0
   -3.6858    4.8363   -3.2071 S   0  0  0  0  0  0  0  0  0  0  0  0
   -2.1757    3.9917   -3.1711 C   0  0  0  0  0  0  0  0  0  0  0  0
   -0.8141    4.2608   -2.9485 C   0  0  0  0  0  0  0  0  0  0  0  0
   -0.1374    5.4486   -2.5926 C   0  0  0  0  0  0  0  0  0  0  0  0
    1.2204    5.3662   -2.1235 C   0  0  0  0  0  0  0  0  0  0  0  0
    1.6879    6.5389   -1.7256 N   0  0  0  0  0  0  0  0  0  0  0  0
    0.5313    7.6531   -1.9332 S   0  0  0  0  0  0  0  0  0  0  0  0
   -0.6187    6.6801   -2.5286 N   0  0  0  0  0  0  0  0  0  0  0  0
    1.8827    4.1198   -2.1537 C   0  0  0  0  0  0  0  0  0  0  0  0
    3.1768    3.7179   -1.7717 C   0  0  0  0  0  0  0  0  0  0  0  0
    4.5704    4.3584   -0.9697 S   0  0  0  0  0  0  0  0  0  0  0  0
    5.3048    2.7745   -1.0053 C   0  0  0  0  0  0  0  0  0  0  0  0
    6.4818    2.2383   -0.4370 C   0  0  0  0  0  0  0  0  0  0  0  0
    7.5387    2.9975    0.2263 C   0  0  0  0  0  0  0  0  0  0  0  0
    7.2549    4.1612    0.9363 C   0  0  0  0  0  0  0  0  0  0  0  0
    8.2705    4.8489    1.5731 C   0  0  0  0  0  0  0  0  0  0  0  0
    9.5761    4.3971    1.5040 C   0  0  0  0  0  0  0  0  0  0  0  0
    9.8849    3.2549    0.7753 C   0  0  0  0  0  0  0  0  0  0  0  0
   11.3057    2.7848    0.6407 C   0  0  0  0  0  0  0  0  0  0  0  0
   11.9585    3.4021   -0.5971 C   0  0  0  0  0  0  0  0  0  0  0  0
    8.8628    2.5725    0.1362 C   0  0  0  0  0  0  0  0  0  0  0  0
    6.5391    0.8694   -0.6238 C   0  0  0  0  0  0  0  0  0  0  0  0
    5.2219    0.2552   -1.6103 S   0  0  0  0  0  0  0  0  0  0  0  0
    4.5135    1.8272   -1.6544 C   0  0  0  0  0  0  0  0  0  0  0  0
    3.2974    2.3650   -2.0897 C   0  0  0  0  0  0  0  0  0  0  0  0
    2.1342    1.9053   -2.6548 N   0  0  0  0  0  0  0  0  0  0  0  0
    1.2374    2.9610   -2.6599 C   0  0  0  0  0  0  0  0  0  0  0  0
   -0.1525    3.0036   -2.9228 C   0  0  0  0  0  0  0  0  0  0  0  0
   -1.0923    2.0037   -3.0874 N   0  0  0  0  0  0  0  0  0  0  0  0
   -2.3162    2.6037   -3.2235 C   0  0  0  0  0  0  0  0  0  0  0  0
   -3.6612    2.2132   -3.2399 C   0  0  0  0  0  0  0  0  0  0  0  0
   -4.5195    0.7174   -3.1760 S   0  0  0  0  0  0  0  0  0  0  0  0
   -1.0064    0.5953   -2.7733 C   0  0  0  0  0  0  0  0  0  0  0  0
   -1.2396   -0.2854   -3.9998 C   0  0  0  0  0  0  0  0  0  0  0  0
    2.1682    0.7805   -3.5649 C   0  0  0  0  0  0  0  0  0  0  0  0
    3.1933    0.9950   -4.6781 C   0  0  0  0  0  0  0  0  0  0  0  0
    7.3778   -0.0480    0.0876 C   0  0  0  0  0  0  0  0  0  0  0  0
    7.5502   -0.0718    1.4669 C   0  0  0  0  0  0  0  0  0  0  0  0
    6.8947    0.7368    2.3732 N   0  0  0  0  0  0  0  0  0  0  0  0
    5.5745    1.1555    2.1578 C   0  0  0  0  0  0  0  0  0  0  0  0
    5.1707    2.4245    2.5676 C   0  0  0  0  0  0  0  0  0  0  0  0
    3.8993    2.8768    2.2800 C   0  0  0  0  0  0  0  0  0  0  0  0
    2.9913    2.0829    1.5874 C   0  0  0  0  0  0  0  0  0  0  0  0
    1.6280    2.6026    1.2454 C   0  0  0  0  0  0  0  0  0  0  0  0
    3.3790    0.7955    1.2420 C   0  0  0  0  0  0  0  0  0  0  0  0
    4.6476    0.3288    1.5284 C   0  0  0  0  0  0  0  0  0  0  0  0
    7.5244    1.0181    3.6005 C   0  0  0  0  0  0  0  0  0  0  0  0
    6.8150    0.9239    4.7938 C   0  0  0  0  0  0  0  0  0  0  0  0
    7.4558    1.1384    5.9965 C   0  0  0  0  0  0  0  0  0  0  0  0
    8.8100    1.4487    6.0447 C   0  0  0  0  0  0  0  0  0  0  0  0
    9.5080    1.6098    7.3592 C   0  0  0  0  0  0  0  0  0  0  0  0
    9.5017    1.5696    4.8471 C   0  0  0  0  0  0  0  0  0  0  0  0
    8.8720    1.3610    3.6358 C   0  0  0  0  0  0  0  0  0  0  0  0
    8.4585   -1.0898    1.8430 C   0  0  0  0  0  0  0  0  0  0  0  0
    9.0290   -1.6441    3.3737 S   0  0  0  0  0  0  0  0  0  0  0  0
    9.9480   -2.9245    2.5733 C   0  0  0  0  0  0  0  0  0  0  0  0
    9.7225   -2.9430    1.1653 C   0  0  0  0  0  0  0  0  0  0  0  0
   10.1940   -3.8834    0.2940 N   0  0  0  0  0  0  0  0  0  0  0  0
   10.3581   -5.2376    0.6442 C   0  0  0  0  0  0  0  0  0  0  0  0
   11.4043   -5.9764    0.0991 C   0  0  0  0  0  0  0  0  0  0  0  0
   11.5856   -7.2956    0.4698 C   0  0  0  0  0  0  0  0  0  0  0  0
   10.7519   -7.9032    1.3994 C   0  0  0  0  0  0  0  0  0  0  0  0
   11.0104   -9.2987    1.8698 C   0  0  0  0  0  0  0  0  0  0  0  0
    9.6842   -7.1665    1.9067 C   0  0  0  0  0  0  0  0  0  0  0  0
    9.4751   -5.8574    1.5277 C   0  0  0  0  0  0  0  0  0  0  0  0
   10.4322   -3.5015   -1.0425 C   0  0  0  0  0  0  0  0  0  0  0  0
   11.1250   -2.3246   -1.3149 C   0  0  0  0  0  0  0  0  0  0  0  0
   11.3583   -1.9474   -2.6212 C   0  0  0  0  0  0  0  0  0  0  0  0
   10.9171   -2.7302   -3.6828 C   0  0  0  0  0  0  0  0  0  0  0  0
   11.1592   -2.2977   -5.0954 C   0  0  0  0  0  0  0  0  0  0  0  0
   10.2370   -3.9082   -3.3989 C   0  0  0  0  0  0  0  0  0  0  0  0
    9.9930   -4.2954   -2.0959 C   0  0  0  0  0  0  0  0  0  0  0  0
    8.9109   -1.8642    0.7805 C   0  0  0  0  0  0  0  0  0  0  0  0
    8.2375   -1.3407   -0.7326 S   0  0  0  0  0  0  0  0  0  0  0  0
   10.8507   -3.7643    3.2064 C   0  0  0  0  0  0  0  0  0  0  0  0
   11.1192   -3.9609    4.5505 C   0  0  0  0  0  0  0  0  0  0  0  0
   10.4116   -3.3369    5.6600 C   0  0  0  0  0  0  0  0  0  0  0  0
    9.5866   -2.4425    5.6222 O   0  0  0  0  0  0  0  0  0  0  0  0
   10.8945   -4.0206    6.8823 C   0  0  0  0  0  0  0  0  0  0  0  0
   10.5750   -3.7480    8.1984 C   0  0  0  0  0  0  0  0  0  0  0  0
    9.4220   -2.5570    8.6051 Cl  0  0  0  0  0  0  0  0  0  0  0  0
   11.2336   -4.4689    9.2042 C   0  0  0  0  0  0  0  0  0  0  0  0
   10.8456   -4.1948   10.8474 Cl  0  0  0  0  0  0  0  0  0  0  0  0
   12.2293   -5.3809    8.8645 C   0  0  0  0  0  0  0  0  0  0  0  0
   13.0735   -6.1954   10.1112 Cl  0  0  0  0  0  0  0  0  0  0  0  0
   12.5666   -5.6343    7.5243 C   0  0  0  0  0  0  0  0  0  0  0  0
   13.9099   -6.6559    7.2149 Cl  0  0  0  0  0  0  0  0  0  0  0  0
   11.8485   -4.9943    6.5208 C   0  0  0  0  0  0  0  0  0  0  0  0
   11.9656   -5.0065    5.0639 C   0  0  0  0  0  0  0  0  0  0  0  0
   12.6782   -5.9088    4.2963 C   0  0  0  0  0  0  0  0  0  0  0  0
   12.9808   -7.2368    4.6445 C   0  0  0  0  0  0  0  0  0  0  0  0
   13.1229   -8.3730    4.7498 N   0  0  0  0  0  0  0  0  0  0  0  0
   13.0884   -5.6649    2.9735 C   0  0  0  0  0  0  0  0  0  0  0  0
   13.5444   -5.5027    1.9294 N   0  0  0  0  0  0  0  0  0  0  0  0
  -12.5245   -2.6366   -1.2314 H   0  0  0  0  0  0  0  0  0  0  0  0
  -17.4666    0.3798    3.2444 H   0  0  0  0  0  0  0  0  0  0  0  0
  -13.2682    1.0319    3.8227 H   0  0  0  0  0  0  0  0  0  0  0  0
   -9.6390   -3.8079   -0.3301 H   0  0  0  0  0  0  0  0  0  0  0  0
  -10.4962   -5.8887    0.6248 H   0  0  0  0  0  0  0  0  0  0  0  0
  -13.1707   -7.4574   -0.0005 H   0  0  0  0  0  0  0  0  0  0  0  0
  -12.3947   -8.4235   -1.2522 H   0  0  0  0  0  0  0  0  0  0  0  0
  -11.5403   -8.0733    0.2601 H   0  0  0  0  0  0  0  0  0  0  0  0
  -12.7014   -6.6444   -2.9499 H   0  0  0  0  0  0  0  0  0  0  0  0
  -11.8493   -4.5517   -3.9166 H   0  0  0  0  0  0  0  0  0  0  0  0
  -10.6503   -0.9942   -4.5988 H   0  0  0  0  0  0  0  0  0  0  0  0
   -9.8771   -1.0493   -6.9304 H   0  0  0  0  0  0  0  0  0  0  0  0
   -9.1838   -2.5736   -8.8386 H   0  0  0  0  0  0  0  0  0  0  0  0
   -8.1579   -3.9708   -8.4783 H   0  0  0  0  0  0  0  0  0  0  0  0
   -7.5360   -2.3335   -8.2679 H   0  0  0  0  0  0  0  0  0  0  0  0
   -8.0470   -4.8396   -6.2371 H   0  0  0  0  0  0  0  0  0  0  0  0
   -8.8028   -4.7812   -3.8997 H   0  0  0  0  0  0  0  0  0  0  0  0
   -6.8737    4.5918    0.1157 H   0  0  0  0  0  0  0  0  0  0  0  0
   -4.5454    5.2998    0.5027 H   0  0  0  0  0  0  0  0  0  0  0  0
   -2.1393    4.1132    1.4571 H   0  0  0  0  0  0  0  0  0  0  0  0
   -1.6014    2.9997    0.1964 H   0  0  0  0  0  0  0  0  0  0  0  0
   -2.0869    4.6481   -0.2184 H   0  0  0  0  0  0  0  0  0  0  0  0
   -3.2425    1.2721    0.0117 H   0  0  0  0  0  0  0  0  0  0  0  0
   -5.5576    0.5625   -0.3624 H   0  0  0  0  0  0  0  0  0  0  0  0
  -10.0317    3.1143   -1.3451 H   0  0  0  0  0  0  0  0  0  0  0  0
  -11.9060    3.7804    0.1063 H   0  0  0  0  0  0  0  0  0  0  0  0
  -11.9689    4.8753    3.0209 H   0  0  0  0  0  0  0  0  0  0  0  0
  -11.9265    3.2864    3.7767 H   0  0  0  0  0  0  0  0  0  0  0  0
  -12.9488    3.5721    2.3546 H   0  0  0  0  0  0  0  0  0  0  0  0
   -9.5240    2.9798    3.5531 H   0  0  0  0  0  0  0  0  0  0  0  0
   -7.6508    2.3152    2.1071 H   0  0  0  0  0  0  0  0  0  0  0  0
   -8.3495    2.5315   -4.1355 H   0  0  0  0  0  0  0  0  0  0  0  0
  -10.2448    4.0930   -4.1257 H   0  0  0  0  0  0  0  0  0  0  0  0
  -10.0000    6.3389   -3.1467 H   0  0  0  0  0  0  0  0  0  0  0  0
   -8.7151    7.8598   -1.7578 H   0  0  0  0  0  0  0  0  0  0  0  0
   -7.0889    7.4231   -1.2116 H   0  0  0  0  0  0  0  0  0  0  0  0
   -7.7998    8.3974   -4.0201 H   0  0  0  0  0  0  0  0  0  0  0  0
   -7.0042    9.3571   -2.7680 H   0  0  0  0  0  0  0  0  0  0  0  0
   -6.1821    7.9588   -3.4693 H   0  0  0  0  0  0  0  0  0  0  0  0
   -5.9387    5.4759   -2.1936 H   0  0  0  0  0  0  0  0  0  0  0  0
    6.2389    4.5161    1.0019 H   0  0  0  0  0  0  0  0  0  0  0  0
    8.0401    5.7445    2.1310 H   0  0  0  0  0  0  0  0  0  0  0  0
   10.3623    4.9357    2.0127 H   0  0  0  0  0  0  0  0  0  0  0  0
   11.3289    1.6957    0.5530 H   0  0  0  0  0  0  0  0  0  0  0  0
   11.8747    3.0682    1.5284 H   0  0  0  0  0  0  0  0  0  0  0  0
   12.9861    3.0600   -0.6967 H   0  0  0  0  0  0  0  0  0  0  0  0
   11.9589    4.4870   -0.5226 H   0  0  0  0  0  0  0  0  0  0  0  0
   11.4092    3.1216   -1.4932 H   0  0  0  0  0  0  0  0  0  0  0  0
    9.1023    1.6985   -0.4527 H   0  0  0  0  0  0  0  0  0  0  0  0
   -0.0417    0.3919   -2.3086 H   0  0  0  0  0  0  0  0  0  0  0  0
   -1.7879    0.3716   -2.0374 H   0  0  0  0  0  0  0  0  0  0  0  0
   -0.5628   -0.0327   -4.8128 H   0  0  0  0  0  0  0  0  0  0  0  0
   -2.2575   -0.1615   -4.3592 H   0  0  0  0  0  0  0  0  0  0  0  0
   -1.0937   -1.3286   -3.7344 H   0  0  0  0  0  0  0  0  0  0  0  0
    1.1885    0.6695   -4.0190 H   0  0  0  0  0  0  0  0  0  0  0  0
    2.4211   -0.1246   -3.0020 H   0  0  0  0  0  0  0  0  0  0  0  0
    3.1474    0.1652   -5.3782 H   0  0  0  0  0  0  0  0  0  0  0  0
    4.2009    1.0502   -4.2763 H   0  0  0  0  0  0  0  0  0  0  0  0
    2.9792    1.9178   -5.2133 H   0  0  0  0  0  0  0  0  0  0  0  0
    5.8719    3.0542    3.0941 H   0  0  0  0  0  0  0  0  0  0  0  0
    3.6096    3.8735    2.5798 H   0  0  0  0  0  0  0  0  0  0  0  0
    0.9797    2.5704    2.1216 H   0  0  0  0  0  0  0  0  0  0  0  0
    1.1705    2.0046    0.4599 H   0  0  0  0  0  0  0  0  0  0  0  0
    1.6836    3.6362    0.9089 H   0  0  0  0  0  0  0  0  0  0  0  0
    2.6803    0.1446    0.7349 H   0  0  0  0  0  0  0  0  0  0  0  0
    4.9269   -0.6791    1.2573 H   0  0  0  0  0  0  0  0  0  0  0  0
    5.7665    0.6649    4.7709 H   0  0  0  0  0  0  0  0  0  0  0  0
    6.8989    1.0443    6.9174 H   0  0  0  0  0  0  0  0  0  0  0  0
    8.8500    2.0616    8.0983 H   0  0  0  0  0  0  0  0  0  0  0  0
    9.8092    0.6302    7.7314 H   0  0  0  0  0  0  0  0  0  0  0  0
   10.4009    2.2220    7.2565 H   0  0  0  0  0  0  0  0  0  0  0  0
   10.5517    1.8242    4.8599 H   0  0  0  0  0  0  0  0  0  0  0  0
    9.4201    1.4592    2.7109 H   0  0  0  0  0  0  0  0  0  0  0  0
   12.0843   -5.5096   -0.5961 H   0  0  0  0  0  0  0  0  0  0  0  0
   12.4118   -7.8500    0.0519 H   0  0  0  0  0  0  0  0  0  0  0  0
   11.6587   -9.2738    2.7480 H   0  0  0  0  0  0  0  0  0  0  0  0
   11.5110   -9.8825    1.1016 H   0  0  0  0  0  0  0  0  0  0  0  0
   10.0845   -9.7954    2.1505 H   0  0  0  0  0  0  0  0  0  0  0  0
    9.0043   -7.6293    2.6072 H   0  0  0  0  0  0  0  0  0  0  0  0
    8.6389   -5.3023    1.9272 H   0  0  0  0  0  0  0  0  0  0  0  0
   11.4856   -1.7186   -0.4965 H   0  0  0  0  0  0  0  0  0  0  0  0
   11.8989   -1.0342   -2.8223 H   0  0  0  0  0  0  0  0  0  0  0  0
   10.4488   -1.5181   -5.3718 H   0  0  0  0  0  0  0  0  0  0  0  0
   11.0372   -3.1292   -5.7845 H   0  0  0  0  0  0  0  0  0  0  0  0
   12.1616   -1.8897   -5.2075 H   0  0  0  0  0  0  0  0  0  0  0  0
    9.8875   -4.5309   -4.2093 H   0  0  0  0  0  0  0  0  0  0  0  0
    9.4586   -5.2102   -1.8871 H   0  0  0  0  0  0  0  0  0  0  0  0
   11.4183   -4.3881    2.5290 H   0  0  0  0  0  0  0  0  0  0  0  0
  1  2  2  0  0  0  0
  2  3  1  0  0  0  0
  3  4  2  0  0  0  0
  3  5  1  0  0  0  0
  5  6  2  0  0  0  0
  6  7  1  0  0  0  0
  6  8  1  0  0  0  0
  8  9  2  0  0  0  0
  9 10  1  0  0  0  0
  9 11  1  0  0  0  0
 11 12  2  0  0  0  0
 12 13  1  0  0  0  0
 13 14  2  0  0  0  0
 14 15  1  0  0  0  0
 15 16  3  0  0  0  0
 14 17  1  0  0  0  0
 17 18  3  0  0  0  0
  1 19  1  0  0  0  0
 19 20  2  0  0  0  0
 20 21  1  0  0  0  0
 21 22  1  0  0  0  0
 22 23  2  0  0  0  0
 23 24  1  0  0  0  0
 24 25  2  0  0  0  0
 25 26  1  0  0  0  0
 25 27  1  0  0  0  0
 27 28  2  0  0  0  0
 21 29  1  0  0  0  0
 29 30  2  0  0  0  0
 30 31  1  0  0  0  0
 31 32  2  0  0  0  0
 32 33  1  0  0  0  0
 32 34  1  0  0  0  0
 34 35  2  0  0  0  0
 20 36  1  0  0  0  0
 36 37  1  0  0  0  0
 37 38  1  0  0  0  0
 38 39  2  0  0  0  0
 39 40  1  0  0  0  0
 40 41  1  0  0  0  0
 41 42  2  0  0  0  0
 42 43  1  0  0  0  0
 43 44  2  0  0  0  0
 44 45  1  0  0  0  0
 44 46  1  0  0  0  0
 46 47  2  0  0  0  0
 40 48  1  0  0  0  0
 48 49  2  0  0  0  0
 49 50  1  0  0  0  0
 50 51  2  0  0  0  0
 51 52  1  0  0  0  0
 51 53  1  0  0  0  0
 53 54  2  0  0  0  0
 39 55  1  0  0  0  0
 55 56  1  0  0  0  0
 38 57  1  0  0  0  0
 57 58  2  0  0  0  0
 58 59  1  0  0  0  0
 59 60  2  0  0  0  0
 60 61  1  0  0  0  0
 61 62  2  0  0  0  0
 62 63  1  0  0  0  0
 63 64  1  0  0  0  0
 64 65  1  0  0  0  0
 63 66  2  0  0  0  0
 58 67  1  0  0  0  0
 67 68  1  0  0  0  0
 68 69  1  0  0  0  0
 69 70  1  0  0  0  0
 70 71  1  0  0  0  0
 71 72  1  0  0  0  0
 72 73  2  0  0  0  0
 73 74  1  0  0  0  0
 74 75  1  0  0  0  0
 72 76  1  0  0  0  0
 76 77  1  0  0  0  0
 77 78  1  0  0  0  0
 78 79  1  0  0  0  0
 79 80  1  0  0  0  0
 80 81  1  0  0  0  0
 81 82  2  0  0  0  0
 82 83  1  0  0  0  0
 83 84  2  0  0  0  0
 84 85  1  0  0  0  0
 85 86  1  0  0  0  0
 86 87  1  0  0  0  0
 85 88  2  0  0  0  0
 80 89  2  0  0  0  0
 89 90  1  0  0  0  0
 90 91  1  0  0  0  0
 91 92  1  0  0  0  0
 92 93  1  0  0  0  0
 93 94  1  0  0  0  0
 94 95  1  0  0  0  0
 95 96  1  0  0  0  0
 96 97  1  0  0  0  0
 97 98  1  0  0  0  0
 98 99  1  0  0  0  0
 96100  1  0  0  0  0
100101  1  0  0  0  0
 93102  1  0  0  0  0
102103  1  0  0  0  0
 89104  1  0  0  0  0
104105  2  0  0  0  0
105106  1  0  0  0  0
106107  1  0  0  0  0
107108  2  0  0  0  0
108109  1  0  0  0  0
109110  2  0  0  0  0
110111  1  0  0  0  0
110112  1  0  0  0  0
112113  2  0  0  0  0
106114  1  0  0  0  0
114115  2  0  0  0  0
115116  1  0  0  0  0
116117  2  0  0  0  0
117118  1  0  0  0  0
117119  1  0  0  0  0
119120  2  0  0  0  0
105121  1  0  0  0  0
121122  1  0  0  0  0
122123  1  0  0  0  0
123124  2  0  0  0  0
124125  1  0  0  0  0
125126  1  0  0  0  0
126127  2  0  0  0  0
127128  1  0  0  0  0
128129  2  0  0  0  0
129130  1  0  0  0  0
129131  1  0  0  0  0
131132  2  0  0  0  0
125133  1  0  0  0  0
133134  2  0  0  0  0
134135  1  0  0  0  0
135136  2  0  0  0  0
136137  1  0  0  0  0
136138  1  0  0  0  0
138139  2  0  0  0  0
124140  1  0  0  0  0
140141  1  0  0  0  0
123142  1  0  0  0  0
142143  2  0  0  0  0
143144  1  0  0  0  0
144145  2  0  0  0  0
144146  1  0  0  0  0
146147  2  0  0  0  0
147148  1  0  0  0  0
147149  1  0  0  0  0
149150  1  0  0  0  0
149151  2  0  0  0  0
151152  1  0  0  0  0
151153  1  0  0  0  0
153154  1  0  0  0  0
153155  2  0  0  0  0
155156  1  0  0  0  0
156157  2  0  0  0  0
157158  1  0  0  0  0
158159  3  0  0  0  0
157160  1  0  0  0  0
160161  3  0  0  0  0
 13  2  1  0  0  0  0
 56 19  1  0  0  0  0
 99 57  1  0  0  0  0
141104  1  0  0  0  0
156143  1  0  0  0  0
 12  5  1  0  0  0  0
 28 22  1  0  0  0  0
 35 29  1  0  0  0  0
 55 36  2  0  0  0  0
 66 59  1  0  0  0  0
 98 67  2  0  0  0  0
113107  1  0  0  0  0
120114  1  0  0  0  0
140121  2  0  0  0  0
155146  1  0  0  0  0
 47 41  1  0  0  0  0
 54 48  1  0  0  0  0
 97 69  2  0  0  0  0
132126  1  0  0  0  0
139133  1  0  0  0  0
 95 70  2  0  0  0  0
 75 71  2  0  0  0  0
 94 76  2  0  0  0  0
 92 77  2  0  0  0  0
 91 79  2  0  0  0  0
 88 81  1  0  0  0  0
  1162  1  0  0  0  0
  8163  1  0  0  0  0
 11164  1  0  0  0  0
 23165  1  0  0  0  0
 24166  1  0  0  0  0
 26167  1  0  0  0  0
 26168  1  0  0  0  0
 26169  1  0  0  0  0
 27170  1  0  0  0  0
 28171  1  0  0  0  0
 30172  1  0  0  0  0
 31173  1  0  0  0  0
 33174  1  0  0  0  0
 33175  1  0  0  0  0
 33176  1  0  0  0  0
 34177  1  0  0  0  0
 35178  1  0  0  0  0
 42179  1  0  0  0  0
 43180  1  0  0  0  0
 45181  1  0  0  0  0
 45182  1  0  0  0  0
 45183  1  0  0  0  0
 46184  1  0  0  0  0
 47185  1  0  0  0  0
 49186  1  0  0  0  0
 50187  1  0  0  0  0
 52188  1  0  0  0  0
 52189  1  0  0  0  0
 52190  1  0  0  0  0
 53191  1  0  0  0  0
 54192  1  0  0  0  0
 60193  1  0  0  0  0
 61194  1  0  0  0  0
 62195  1  0  0  0  0
 64196  1  0  0  0  0
 64197  1  0  0  0  0
 65198  1  0  0  0  0
 65199  1  0  0  0  0
 65200  1  0  0  0  0
 66201  1  0  0  0  0
 82202  1  0  0  0  0
 83203  1  0  0  0  0
 84204  1  0  0  0  0
 86205  1  0  0  0  0
 86206  1  0  0  0  0
 87207  1  0  0  0  0
 87208  1  0  0  0  0
 87209  1  0  0  0  0
 88210  1  0  0  0  0
100211  1  0  0  0  0
100212  1  0  0  0  0
101213  1  0  0  0  0
101214  1  0  0  0  0
101215  1  0  0  0  0
102216  1  0  0  0  0
102217  1  0  0  0  0
103218  1  0  0  0  0
103219  1  0  0  0  0
103220  1  0  0  0  0
108221  1  0  0  0  0
109222  1  0  0  0  0
111223  1  0  0  0  0
111224  1  0  0  0  0
111225  1  0  0  0  0
112226  1  0  0  0  0
113227  1  0  0  0  0
115228  1  0  0  0  0
116229  1  0  0  0  0
118230  1  0  0  0  0
118231  1  0  0  0  0
118232  1  0  0  0  0
119233  1  0  0  0  0
120234  1  0  0  0  0
127235  1  0  0  0  0
128236  1  0  0  0  0
130237  1  0  0  0  0
130238  1  0  0  0  0
130239  1  0  0  0  0
131240  1  0  0  0  0
132241  1  0  0  0  0
134242  1  0  0  0  0
135243  1  0  0  0  0
137244  1  0  0  0  0
137245  1  0  0  0  0
137246  1  0  0  0  0
138247  1  0  0  0  0
139248  1  0  0  0  0
142249  1  0  0  0  0
M  END
