
  xtb     02112210223D
 energy: -288.224588031559 gnorm: 0.000618935301 xtb: 6.4.1 (unknown)
157176  0     0  0            999 V2000
    0.5340   -5.5977  -12.3695 C   0  0  0  0  0  0  0  0  0  0  0  0
    0.4585   -5.8796  -13.7160 C   0  0  0  0  0  0  0  0  0  0  0  0
   -0.1443   -5.0713  -14.7916 C   0  0  0  0  0  0  0  0  0  0  0  0
   -0.5759   -3.9362  -14.7458 O   0  0  0  0  0  0  0  0  0  0  0  0
   -0.1366   -5.9351  -15.9926 C   0  0  0  0  0  0  0  0  0  0  0  0
   -0.6300   -5.6833  -17.2637 C   0  0  0  0  0  0  0  0  0  0  0  0
   -1.3699   -4.1877  -17.6536 Cl  0  0  0  0  0  0  0  0  0  0  0  0
   -0.5210   -6.6719  -18.2378 C   0  0  0  0  0  0  0  0  0  0  0  0
    0.0749   -7.8793  -17.9152 C   0  0  0  0  0  0  0  0  0  0  0  0
    0.2024   -9.2143  -19.2550 Br  0  0  0  0  0  0  0  0  0  0  0  0
    0.5817   -8.1531  -16.6491 C   0  0  0  0  0  0  0  0  0  0  0  0
    0.4721   -7.1650  -15.6873 C   0  0  0  0  0  0  0  0  0  0  0  0
    0.9012   -7.1343  -14.2870 C   0  0  0  0  0  0  0  0  0  0  0  0
    1.6437   -8.1167  -13.6820 C   0  0  0  0  0  0  0  0  0  0  0  0
    2.0377   -9.3162  -14.3120 C   0  0  0  0  0  0  0  0  0  0  0  0
    2.3869  -10.3162  -14.7549 N   0  0  0  0  0  0  0  0  0  0  0  0
    2.1643   -8.0828  -12.3704 C   0  0  0  0  0  0  0  0  0  0  0  0
    2.6479   -8.1448  -11.3303 N   0  0  0  0  0  0  0  0  0  0  0  0
    0.1743   -4.4682  -11.6273 C   0  0  0  0  0  0  0  0  0  0  0  0
    0.3405   -4.6287   -9.8627 S   0  0  0  0  0  0  0  0  0  0  0  0
   -0.2367   -3.0299   -9.6487 C   0  0  0  0  0  0  0  0  0  0  0  0
   -0.5458   -2.1025   -8.6618 C   0  0  0  0  0  0  0  0  0  0  0  0
   -1.0079   -0.9386   -9.3220 C   0  0  0  0  0  0  0  0  0  0  0  0
   -0.9714   -1.1245  -10.6749 N   0  0  0  0  0  0  0  0  0  0  0  0
   -1.4676   -0.2045  -11.6669 C   0  0  0  0  0  0  0  0  0  0  0  0
   -2.9915   -0.2444  -11.7532 C   0  0  0  0  0  0  0  0  0  0  0  0
   -0.5251   -2.4032  -10.8963 C   0  0  0  0  0  0  0  0  0  0  0  0
   -0.2936   -3.2095  -11.9958 C   0  0  0  0  0  0  0  0  0  0  0  0
   -1.3837    0.0874   -8.4527 C   0  0  0  0  0  0  0  0  0  0  0  0
   -1.2298   -0.2860   -7.1336 C   0  0  0  0  0  0  0  0  0  0  0  0
   -0.5786   -1.9109   -6.9479 S   0  0  0  0  0  0  0  0  0  0  0  0
   -1.5301    0.4697   -5.9657 C   0  0  0  0  0  0  0  0  0  0  0  0
   -2.3675    1.5632   -5.8180 C   0  0  0  0  0  0  0  0  0  0  0  0
   -3.2593    2.1211   -6.8376 C   0  0  0  0  0  0  0  0  0  0  0  0
   -4.0964    1.2972   -7.5870 C   0  0  0  0  0  0  0  0  0  0  0  0
   -4.9601    1.8526   -8.5109 C   0  0  0  0  0  0  0  0  0  0  0  0
   -5.0064    3.2254   -8.6893 C   0  0  0  0  0  0  0  0  0  0  0  0
   -4.1895    4.0621   -7.9405 C   0  0  0  0  0  0  0  0  0  0  0  0
   -4.2807    5.5546   -8.0699 C   0  0  0  0  0  0  0  0  0  0  0  0
   -5.2126    6.1179   -6.9948 C   0  0  0  0  0  0  0  0  0  0  0  0
   -3.3206    3.4979   -7.0174 C   0  0  0  0  0  0  0  0  0  0  0  0
   -2.3281    2.0569   -4.4992 C   0  0  0  0  0  0  0  0  0  0  0  0
   -3.1615    3.3750   -3.7092 S   0  0  0  0  0  0  0  0  0  0  0  0
   -2.3826    2.9460   -2.2241 C   0  0  0  0  0  0  0  0  0  0  0  0
   -2.2881    3.4048   -0.9007 C   0  0  0  0  0  0  0  0  0  0  0  0
   -2.8123    4.5565   -0.2751 C   0  0  0  0  0  0  0  0  0  0  0  0
   -2.4197    4.8518    1.0733 C   0  0  0  0  0  0  0  0  0  0  0  0
   -2.9347    5.9896    1.5124 N   0  0  0  0  0  0  0  0  0  0  0  0
   -3.8391    6.6319    0.3332 S   0  0  0  0  0  0  0  0  0  0  0  0
   -3.6078    5.4838   -0.7850 N   0  0  0  0  0  0  0  0  0  0  0  0
   -1.6198    3.9210    1.7712 C   0  0  0  0  0  0  0  0  0  0  0  0
   -1.1974    3.8865    3.1104 C   0  0  0  0  0  0  0  0  0  0  0  0
   -1.2838    4.8580    4.5403 S   0  0  0  0  0  0  0  0  0  0  0  0
   -0.4541    3.5947    5.4191 C   0  0  0  0  0  0  0  0  0  0  0  0
   -0.0247    3.4922    6.7570 C   0  0  0  0  0  0  0  0  0  0  0  0
   -0.1866    4.5895    7.7138 C   0  0  0  0  0  0  0  0  0  0  0  0
    0.8921    5.0535    8.4631 C   0  0  0  0  0  0  0  0  0  0  0  0
    0.7232    6.1237    9.3201 C   0  0  0  0  0  0  0  0  0  0  0  0
   -0.5107    6.7430    9.4326 C   0  0  0  0  0  0  0  0  0  0  0  0
   -1.5937    6.2996    8.6853 C   0  0  0  0  0  0  0  0  0  0  0  0
   -2.9187    7.0023    8.7444 C   0  0  0  0  0  0  0  0  0  0  0  0
   -3.0318    8.0068    7.5957 C   0  0  0  0  0  0  0  0  0  0  0  0
   -1.4186    5.2228    7.8280 C   0  0  0  0  0  0  0  0  0  0  0  0
    0.6049    2.2803    6.9878 C   0  0  0  0  0  0  0  0  0  0  0  0
    0.6949    1.2841    5.5419 S   0  0  0  0  0  0  0  0  0  0  0  0
   -0.1331    2.4912    4.6262 C   0  0  0  0  0  0  0  0  0  0  0  0
   -0.5543    2.6626    3.3019 C   0  0  0  0  0  0  0  0  0  0  0  0
   -0.5258    1.9505    2.1300 N   0  0  0  0  0  0  0  0  0  0  0  0
   -1.1725    2.7131    1.1667 C   0  0  0  0  0  0  0  0  0  0  0  0
   -1.4065    2.5177   -0.2194 C   0  0  0  0  0  0  0  0  0  0  0  0
   -0.9430    1.5834   -1.1269 N   0  0  0  0  0  0  0  0  0  0  0  0
   -1.5373    1.8391   -2.3333 C   0  0  0  0  0  0  0  0  0  0  0  0
   -1.4986    1.3341   -3.6388 C   0  0  0  0  0  0  0  0  0  0  0  0
   -0.7195    0.0360   -4.4691 S   0  0  0  0  0  0  0  0  0  0  0  0
    0.2086    0.7125   -1.0691 C   0  0  0  0  0  0  0  0  0  0  0  0
   -0.1836   -0.7641   -1.0450 C   0  0  0  0  0  0  0  0  0  0  0  0
   -0.3894    0.5118    2.2146 C   0  0  0  0  0  0  0  0  0  0  0  0
   -1.7556   -0.1582    2.3455 C   0  0  0  0  0  0  0  0  0  0  0  0
    1.1043    1.7373    8.2046 C   0  0  0  0  0  0  0  0  0  0  0  0
    2.2325    0.3874    8.1293 S   0  0  0  0  0  0  0  0  0  0  0  0
    2.2996    0.3358    9.8510 C   0  0  0  0  0  0  0  0  0  0  0  0
    2.8949   -0.3541   10.8989 C   0  0  0  0  0  0  0  0  0  0  0  0
    2.4112    0.2314   12.0993 C   0  0  0  0  0  0  0  0  0  0  0  0
    1.5630    1.2655   11.7947 N   0  0  0  0  0  0  0  0  0  0  0  0
    0.8199    2.0644   12.7348 C   0  0  0  0  0  0  0  0  0  0  0  0
   -0.5228    1.4222   13.0775 C   0  0  0  0  0  0  0  0  0  0  0  0
    1.4750    1.3285   10.4324 C   0  0  0  0  0  0  0  0  0  0  0  0
    0.7970    2.1126    9.4964 C   0  0  0  0  0  0  0  0  0  0  0  0
    2.8978   -0.3796   13.2452 C   0  0  0  0  0  0  0  0  0  0  0  0
    3.7930   -1.4017   12.9520 C   0  0  0  0  0  0  0  0  0  0  0  0
    3.9852   -1.6431   11.2107 S   0  0  0  0  0  0  0  0  0  0  0  0
    4.4067   -2.2457   13.8941 C   0  0  0  0  0  0  0  0  0  0  0  0
    5.4632   -3.0968   13.7212 C   0  0  0  0  0  0  0  0  0  0  0  0
    5.6335   -4.2610   14.6229 C   0  0  0  0  0  0  0  0  0  0  0  0
    5.0622   -4.4582   15.6706 O   0  0  0  0  0  0  0  0  0  0  0  0
    6.6017   -5.1416   13.9283 C   0  0  0  0  0  0  0  0  0  0  0  0
    7.0343   -6.4199   14.2472 C   0  0  0  0  0  0  0  0  0  0  0  0
    6.4792   -7.2176   15.6582 Cl  0  0  0  0  0  0  0  0  0  0  0  0
    7.9345   -7.0589   13.3974 C   0  0  0  0  0  0  0  0  0  0  0  0
    8.3755   -6.4095   12.2566 C   0  0  0  0  0  0  0  0  0  0  0  0
    9.5820   -7.3122   11.1076 Br  0  0  0  0  0  0  0  0  0  0  0  0
    7.9665   -5.1233   11.9193 C   0  0  0  0  0  0  0  0  0  0  0  0
    7.0767   -4.4956   12.7699 C   0  0  0  0  0  0  0  0  0  0  0  0
    6.4900   -3.1555   12.7128 C   0  0  0  0  0  0  0  0  0  0  0  0
    7.0291   -2.0857   12.0446 C   0  0  0  0  0  0  0  0  0  0  0  0
    6.6208   -0.7562   12.2797 C   0  0  0  0  0  0  0  0  0  0  0  0
    6.3513    0.3386   12.4959 N   0  0  0  0  0  0  0  0  0  0  0  0
    8.1078   -2.1802   11.1445 C   0  0  0  0  0  0  0  0  0  0  0  0
    8.9772   -2.2123   10.3956 N   0  0  0  0  0  0  0  0  0  0  0  0
    0.9185   -6.3992  -11.7497 H   0  0  0  0  0  0  0  0  0  0  0  0
   -0.9000   -6.4951  -19.2317 H   0  0  0  0  0  0  0  0  0  0  0  0
    1.0345   -9.1092  -16.4461 H   0  0  0  0  0  0  0  0  0  0  0  0
   -1.0277   -0.4778  -12.6282 H   0  0  0  0  0  0  0  0  0  0  0  0
   -1.1339    0.8029  -11.4006 H   0  0  0  0  0  0  0  0  0  0  0  0
   -3.4317    0.0251  -10.7956 H   0  0  0  0  0  0  0  0  0  0  0  0
   -3.3268   -1.2424  -12.0251 H   0  0  0  0  0  0  0  0  0  0  0  0
   -3.3381    0.4572  -12.5064 H   0  0  0  0  0  0  0  0  0  0  0  0
   -0.4534   -2.9397  -13.0228 H   0  0  0  0  0  0  0  0  0  0  0  0
   -1.7413    1.0550   -8.7504 H   0  0  0  0  0  0  0  0  0  0  0  0
   -4.0732    0.2286   -7.4325 H   0  0  0  0  0  0  0  0  0  0  0  0
   -5.6099    1.2126   -9.0901 H   0  0  0  0  0  0  0  0  0  0  0  0
   -5.6879    3.6505   -9.4118 H   0  0  0  0  0  0  0  0  0  0  0  0
   -4.6625    5.8212   -9.0573 H   0  0  0  0  0  0  0  0  0  0  0  0
   -3.2897    5.9981   -7.9536 H   0  0  0  0  0  0  0  0  0  0  0  0
   -6.2107    5.6996   -7.1036 H   0  0  0  0  0  0  0  0  0  0  0  0
   -4.8429    5.8660   -6.0035 H   0  0  0  0  0  0  0  0  0  0  0  0
   -5.2781    7.2000   -7.0783 H   0  0  0  0  0  0  0  0  0  0  0  0
   -2.6740    4.1381   -6.4350 H   0  0  0  0  0  0  0  0  0  0  0  0
    1.8575    4.5806    8.3614 H   0  0  0  0  0  0  0  0  0  0  0  0
    1.5614    6.4833    9.8988 H   0  0  0  0  0  0  0  0  0  0  0  0
   -0.6317    7.5820   10.1026 H   0  0  0  0  0  0  0  0  0  0  0  0
   -3.7282    6.2737    8.6646 H   0  0  0  0  0  0  0  0  0  0  0  0
   -3.0214    7.5263    9.6965 H   0  0  0  0  0  0  0  0  0  0  0  0
   -3.9931    8.5139    7.6279 H   0  0  0  0  0  0  0  0  0  0  0  0
   -2.2428    8.7520    7.6672 H   0  0  0  0  0  0  0  0  0  0  0  0
   -2.9365    7.4995    6.6384 H   0  0  0  0  0  0  0  0  0  0  0  0
   -2.2555    4.8640    7.2466 H   0  0  0  0  0  0  0  0  0  0  0  0
    0.8199    0.9939   -0.2108 H   0  0  0  0  0  0  0  0  0  0  0  0
    0.8062    0.8973   -1.9692 H   0  0  0  0  0  0  0  0  0  0  0  0
    0.7031   -1.3784   -0.9152 H   0  0  0  0  0  0  0  0  0  0  0  0
   -0.8846   -0.9788   -0.2434 H   0  0  0  0  0  0  0  0  0  0  0  0
   -0.6525   -1.0383   -1.9861 H   0  0  0  0  0  0  0  0  0  0  0  0
    0.2087    0.3061    3.1060 H   0  0  0  0  0  0  0  0  0  0  0  0
    0.1458    0.1131    1.3586 H   0  0  0  0  0  0  0  0  0  0  0  0
   -2.2691    0.2049    3.2329 H   0  0  0  0  0  0  0  0  0  0  0  0
   -2.3745    0.0620    1.4778 H   0  0  0  0  0  0  0  0  0  0  0  0
   -1.6350   -1.2347    2.4312 H   0  0  0  0  0  0  0  0  0  0  0  0
    0.6629    3.0516   12.2921 H   0  0  0  0  0  0  0  0  0  0  0  0
    1.4253    2.1792   13.6375 H   0  0  0  0  0  0  0  0  0  0  0  0
   -1.1256    1.3074   12.1797 H   0  0  0  0  0  0  0  0  0  0  0  0
   -0.3709    0.4408   13.5206 H   0  0  0  0  0  0  0  0  0  0  0  0
   -1.0636    2.0451   13.7842 H   0  0  0  0  0  0  0  0  0  0  0  0
    0.1058    2.9005    9.7289 H   0  0  0  0  0  0  0  0  0  0  0  0
    2.6595   -0.1001   14.2554 H   0  0  0  0  0  0  0  0  0  0  0  0
    3.9221   -2.3015   14.8643 H   0  0  0  0  0  0  0  0  0  0  0  0
    8.2801   -8.0536   13.6296 H   0  0  0  0  0  0  0  0  0  0  0  0
    8.3291   -4.6526   11.0200 H   0  0  0  0  0  0  0  0  0  0  0  0
  1  2  2  0  0  0  0
  2  3  1  0  0  0  0
  3  4  2  0  0  0  0
  3  5  1  0  0  0  0
  5  6  2  0  0  0  0
  6  7  1  0  0  0  0
  6  8  1  0  0  0  0
  8  9  2  0  0  0  0
  9 10  1  0  0  0  0
  9 11  1  0  0  0  0
 11 12  2  0  0  0  0
 12 13  1  0  0  0  0
 13 14  2  0  0  0  0
 14 15  1  0  0  0  0
 15 16  3  0  0  0  0
 14 17  1  0  0  0  0
 17 18  3  0  0  0  0
  1 19  1  0  0  0  0
 19 20  1  0  0  0  0
 20 21  1  0  0  0  0
 21 22  1  0  0  0  0
 22 23  2  0  0  0  0
 23 24  1  0  0  0  0
 24 25  1  0  0  0  0
 25 26  1  0  0  0  0
 24 27  1  0  0  0  0
 27 28  1  0  0  0  0
 23 29  1  0  0  0  0
 29 30  2  0  0  0  0
 30 31  1  0  0  0  0
 30 32  1  0  0  0  0
 32 33  2  0  0  0  0
 33 34  1  0  0  0  0
 34 35  2  0  0  0  0
 35 36  1  0  0  0  0
 36 37  2  0  0  0  0
 37 38  1  0  0  0  0
 38 39  1  0  0  0  0
 39 40  1  0  0  0  0
 38 41  2  0  0  0  0
 33 42  1  0  0  0  0
 42 43  1  0  0  0  0
 43 44  1  0  0  0  0
 44 45  1  0  0  0  0
 45 46  1  0  0  0  0
 46 47  1  0  0  0  0
 47 48  2  0  0  0  0
 48 49  1  0  0  0  0
 49 50  1  0  0  0  0
 47 51  1  0  0  0  0
 51 52  1  0  0  0  0
 52 53  1  0  0  0  0
 53 54  1  0  0  0  0
 54 55  1  0  0  0  0
 55 56  1  0  0  0  0
 56 57  2  0  0  0  0
 57 58  1  0  0  0  0
 58 59  2  0  0  0  0
 59 60  1  0  0  0  0
 60 61  1  0  0  0  0
 61 62  1  0  0  0  0
 60 63  2  0  0  0  0
 55 64  2  0  0  0  0
 64 65  1  0  0  0  0
 65 66  1  0  0  0  0
 66 67  1  0  0  0  0
 67 68  1  0  0  0  0
 68 69  1  0  0  0  0
 69 70  1  0  0  0  0
 70 71  1  0  0  0  0
 71 72  1  0  0  0  0
 72 73  1  0  0  0  0
 73 74  1  0  0  0  0
 71 75  1  0  0  0  0
 75 76  1  0  0  0  0
 68 77  1  0  0  0  0
 77 78  1  0  0  0  0
 64 79  1  0  0  0  0
 79 80  1  0  0  0  0
 80 81  1  0  0  0  0
 81 82  1  0  0  0  0
 82 83  2  0  0  0  0
 83 84  1  0  0  0  0
 84 85  1  0  0  0  0
 85 86  1  0  0  0  0
 84 87  1  0  0  0  0
 87 88  1  0  0  0  0
 83 89  1  0  0  0  0
 89 90  2  0  0  0  0
 90 91  1  0  0  0  0
 90 92  1  0  0  0  0
 92 93  2  0  0  0  0
 93 94  1  0  0  0  0
 94 95  2  0  0  0  0
 94 96  1  0  0  0  0
 96 97  2  0  0  0  0
 97 98  1  0  0  0  0
 97 99  1  0  0  0  0
 99100  2  0  0  0  0
100101  1  0  0  0  0
100102  1  0  0  0  0
102103  2  0  0  0  0
103104  1  0  0  0  0
104105  2  0  0  0  0
105106  1  0  0  0  0
106107  3  0  0  0  0
105108  1  0  0  0  0
108109  3  0  0  0  0
 13  2  1  0  0  0  0
 28 19  2  0  0  0  0
 74 32  1  0  0  0  0
 88 79  2  0  0  0  0
104 93  1  0  0  0  0
 12  5  1  0  0  0  0
 27 21  2  0  0  0  0
 41 34  1  0  0  0  0
 73 42  2  0  0  0  0
 87 81  2  0  0  0  0
103 96  1  0  0  0  0
 31 22  1  0  0  0  0
 72 44  2  0  0  0  0
 91 82  1  0  0  0  0
 70 45  2  0  0  0  0
 50 46  2  0  0  0  0
 69 51  2  0  0  0  0
 67 52  2  0  0  0  0
 66 54  2  0  0  0  0
 63 56  1  0  0  0  0
  1110  1  0  0  0  0
  8111  1  0  0  0  0
 11112  1  0  0  0  0
 25113  1  0  0  0  0
 25114  1  0  0  0  0
 26115  1  0  0  0  0
 26116  1  0  0  0  0
 26117  1  0  0  0  0
 28118  1  0  0  0  0
 29119  1  0  0  0  0
 35120  1  0  0  0  0
 36121  1  0  0  0  0
 37122  1  0  0  0  0
 39123  1  0  0  0  0
 39124  1  0  0  0  0
 40125  1  0  0  0  0
 40126  1  0  0  0  0
 40127  1  0  0  0  0
 41128  1  0  0  0  0
 57129  1  0  0  0  0
 58130  1  0  0  0  0
 59131  1  0  0  0  0
 61132  1  0  0  0  0
 61133  1  0  0  0  0
 62134  1  0  0  0  0
 62135  1  0  0  0  0
 62136  1  0  0  0  0
 63137  1  0  0  0  0
 75138  1  0  0  0  0
 75139  1  0  0  0  0
 76140  1  0  0  0  0
 76141  1  0  0  0  0
 76142  1  0  0  0  0
 77143  1  0  0  0  0
 77144  1  0  0  0  0
 78145  1  0  0  0  0
 78146  1  0  0  0  0
 78147  1  0  0  0  0
 85148  1  0  0  0  0
 85149  1  0  0  0  0
 86150  1  0  0  0  0
 86151  1  0  0  0  0
 86152  1  0  0  0  0
 88153  1  0  0  0  0
 89154  1  0  0  0  0
 92155  1  0  0  0  0
 99156  1  0  0  0  0
102157  1  0  0  0  0
M  END
