234

C         -6.03120      -13.50730       -5.40140
C         -5.39590      -14.52050       -4.71850
C         -4.10080      -14.42330       -4.03660
O         -3.35940      -13.46150       -3.97550
C         -3.86460      -15.74950       -3.42800
C         -2.79700      -16.19680       -2.66570
Cl        -1.47600      -15.16920       -2.29740
C         -2.80910      -17.50730       -2.19470
C         -3.88220      -18.32750       -2.49830
Br        -3.87810      -20.10610       -1.84220
C         -4.96330      -17.90130       -3.26330
C         -4.94520      -16.59900       -3.72870
C         -5.91240      -15.85680       -4.54330
C         -7.08510      -16.37720       -5.03390
C         -8.02770      -15.68690       -5.82330
N         -8.84560      -15.20090       -6.46840
C         -7.52180      -17.70030       -4.81610
N         -7.94010      -18.76090       -4.67970
C         -5.65440      -12.18250       -5.61970
C         -6.45920      -11.24460       -6.30890
C         -7.82030      -11.51090       -6.85780
C         -8.87690      -11.43460       -5.75150
N         -5.95480      -10.02740       -6.41260
C         -4.76750       -9.92450       -5.84230
S         -4.17960      -11.39520       -5.11020
C         -4.04950       -8.71490       -5.80210
C         -4.46920       -7.48790       -6.30930
C         -3.57000       -6.47290       -6.03870
C         -3.41140       -4.99980       -6.36220
C         -3.06710       -4.99360       -7.87420
C         -2.72570       -3.63950       -8.47140
C         -4.60670       -4.11740       -5.98420
C         -5.86970       -4.32860       -6.80860
C         -2.18530       -4.65710       -5.53180
C         -1.50730       -3.54360       -5.02810
C         -1.69450       -2.04090       -4.88630
C         -2.91400       -1.68390       -4.05070
C         -3.38100       -0.37400       -4.01290
C         -4.44580       -0.02540       -3.20460
C         -5.06910       -0.96640       -2.39590
C         -6.20090       -0.57360       -1.49140
C         -5.66280       -0.06930       -0.15080
C         -4.57660       -2.26350       -2.40500
C         -3.51140       -2.61670       -3.21310
C         -1.61480       -1.33270       -6.22440
C         -2.72970       -0.83410       -6.88490
C         -2.59950       -0.20710       -8.11110
C         -1.35990       -0.07140       -8.71910
C         -1.23300        0.55470      -10.07710
C         -1.39240       -0.50850      -11.16590
C         -0.24760       -0.58350       -8.06370
C         -0.37130       -1.20140       -6.83450
C         -0.49880       -1.66990       -4.01110
C          0.26460       -2.81120       -3.68860
C         -0.38400       -3.92520       -4.29300
S         -0.15200       -5.62640       -4.15560
C         -1.59320       -5.84530       -5.07510
C         -2.43560       -6.93570       -5.36030
S         -2.48680       -8.61320       -5.02020
C          1.38880       -2.74530       -2.86740
C          1.69970       -1.52020       -2.33040
C          2.82940       -1.16340       -1.36940
C          2.85500       -2.07670       -0.16210
C          4.04150       -2.47860        0.43750
C          4.02420       -3.30430        1.54790
C          2.82600       -3.73550        2.09980
C          2.81230       -4.67100        3.27350
C          2.82840       -6.12460        2.79590
C          1.64110       -3.31620        1.50910
C          1.65360       -2.49710        0.39660
C          4.10770       -1.21130       -2.19250
C          4.69480       -0.05890       -2.69610
C          5.83540       -0.13050       -3.47530
C          6.41650       -1.35220       -3.78330
C          7.63030       -1.42800       -4.66340
C          7.21900       -1.49620       -6.13560
C          5.81380       -2.50560       -3.29740
C          4.67610       -2.43850       -2.51700
C          2.44600        0.24970       -0.98450
C          1.37990        0.66770       -1.77750
C          0.90280       -0.38690       -2.60950
C         -0.18660       -0.44320       -3.47500
S          0.83520        2.27140       -1.44810
C          2.03560        2.37900       -0.21510
C          2.40750        3.32870        0.75960
C          3.44300        2.80710        1.53440
C          3.81940        1.42360        1.05640
C          2.82180        1.23050       -0.06880
C          3.63380        0.40820        2.19620
C          2.18460        0.28560        2.65100
C          5.24270        1.37000        0.46430
C          6.36230        1.64890        1.45740
C          3.78180        3.63530        2.59710
C          3.01770        4.79150        2.62970
S          1.86760        4.85890        1.30830
C          3.02230        5.81200        3.61540
C          3.77540        5.88300        4.75890
C          3.46290        6.99050        5.57770
C          4.03250        7.34070        6.81690
C          5.15970        6.58000        7.37390
C          5.13860        6.12550        8.69090
C          6.20790        5.40630        9.18980
C          7.30580        5.12200        8.39660
C          7.34020        5.58360        7.08780
S          8.65990        5.24980        5.95490
C         10.11180        4.95700        7.02320
C         10.50900        6.19700        7.79950
C          6.27060        6.31280        6.58380
C          3.47840        8.42830        7.47170
C          2.41690        9.20420        6.92500
C          1.87860        8.88180        5.66100
C          0.81830        9.68950        5.04650
C          0.94030       11.07370        4.94390
C         -0.05000       11.81790        4.32900
C         -1.16790       11.19670        3.79980
C         -1.28800        9.81950        3.89590
S         -2.70060        8.98750        3.18590
C         -2.19000        9.06500        1.42840
C         -0.98340        8.19210        1.14710
C         -0.31230        9.06810        4.52370
C          2.40630        7.77110        5.03360
S          1.89320        7.14350        3.48870
C          1.99920       10.23090        7.78560
C          2.71650       10.30050        8.95940
S          3.95960        9.04570        9.02460
C          2.57680       11.11160       10.10070
C          1.78980       12.21190       10.33310
C          1.02960       13.01340        9.34870
O          0.89000       12.82280        8.15910
C          0.49620       14.16750       10.10280
C         -0.27260       15.23080        9.65340
Cl        -0.76100       15.34550        8.01580
C         -0.65380       16.21640       10.55970
C         -0.25360       16.11440       11.88170
Br        -0.77710       17.47280       13.09490
C          0.51570       15.05660       12.35540
C          0.88630       14.07770       11.45060
C          1.66610       12.85120       11.62830
C          2.11620       12.38240       12.83560
C          1.94180       13.05470       14.06440
N          1.84130       13.54520       15.09730
C          2.78650       11.15990       13.05920
N          3.31620       10.18280       13.34900
H         -6.98820      -13.75880       -5.83780
H         -1.98860      -17.87450       -1.59910
H         -5.77500      -18.57810       -3.47240
H         -7.86260      -12.49060       -7.33580
H         -8.02920      -10.74610       -7.60630
H         -8.86210      -10.45240       -5.28510
H         -8.69300      -12.18520       -4.98640
H         -9.86270      -11.60900       -6.17310
H         -5.40570       -7.40470       -6.82750
H         -3.91520       -5.42690       -8.40630
H         -2.21580       -5.66450       -8.01820
H         -2.51330       -3.75680       -9.53200
H         -3.54830       -2.93930       -8.36560
H         -1.84710       -3.21650       -7.99440
H         -4.29230       -3.07710       -6.06870
H         -4.83870       -4.30200       -4.93280
H         -6.65060       -3.66790       -6.43760
H         -5.70480       -4.09930       -7.85750
H         -6.22670       -5.35040       -6.72470
H         -2.91520        0.38440       -4.62460
H         -4.79710        0.99670       -3.20160
H         -6.79260        0.21520       -1.96040
H         -6.85200       -1.43260       -1.31820
H         -5.07650       -0.84490        0.33700
H         -6.48220        0.21250        0.50620
H         -5.02360        0.79780       -0.30110
H         -5.03060       -3.01100       -1.76980
H         -3.14440       -3.63180       -3.18450
H         -3.71230       -0.93220       -6.44750
H         -3.47990        0.17990       -8.60430
H         -2.00030        1.32050      -10.20680
H         -0.25490        1.02930      -10.17750
H         -2.36830       -0.98280      -11.09070
H         -1.29760       -0.06100      -12.15240
H         -0.63020       -1.27710      -11.05760
H          0.72850       -0.49430       -8.51880
H          0.50880       -1.58950       -6.34150
H          1.95190       -3.63690       -2.64030
H          4.98990       -2.15250        0.03480
H          4.95910       -3.61060        1.99560
H          1.91640       -4.49930        3.87340
H          3.68590       -4.48940        3.90300
H          3.72340       -6.32030        2.20940
H          2.81370       -6.80450        3.64440
H          1.96030       -6.32740        2.17270
H          0.69590       -3.63340        1.92590
H          0.71950       -2.18240       -0.04740
H          4.26370        0.90700       -2.48050
H          6.28070        0.78110       -3.84790
H          8.21560       -2.31480       -4.41210
H          8.25750       -0.54820       -4.50590
H          8.09740       -1.55430       -6.77390
H          6.59990       -2.37240       -6.31490
H          6.64730       -0.61230       -6.40980
H          6.24230       -3.47000       -3.53080
H          4.23360       -3.35080       -2.14570
H         -0.77020        0.44090       -3.67640
H          4.24340        0.72770        3.04230
H          3.98960       -0.56630        1.86340
H          1.80160        1.24570        2.99060
H          2.11470       -0.42400        3.47180
H          1.55440       -0.07230        1.84060
H          5.38480        0.38090        0.02420
H          5.29920        2.10340       -0.34420
H          6.25750        2.63850        1.89350
H          7.31920        1.60650        0.94180
H          6.37640        0.91120        2.25480
H          4.52770        3.41940        3.33970
H          4.51170        5.14650        5.02230
H          4.27840        6.31470        9.31390
H          6.18520        5.05030       10.20890
H          8.11690        4.53970        8.80400
H          9.90040        4.10990        7.67500
H         10.89310        4.66730        6.32040
H         10.72530        7.01500        7.11610
H          9.70910        6.51000        8.46800
H         11.39830        5.99310        8.39260
H          6.32140        6.68600        5.57180
H          1.82000       11.56450        5.33100
H          0.05130       12.89050        4.26230
H         -1.94450       11.77200        3.31850
H         -1.99520       10.11010        1.18730
H         -3.06390        8.72380        0.87500
H         -0.11870        8.53560        1.71200
H         -1.18620        7.16040        1.42460
H         -0.74000        8.22590        0.08700
H         -0.44580        8.00130        4.61730
H          1.18260       10.89070        7.56220
H          3.20230       10.79250       10.92610
H         -1.25420       17.04960       10.23100
H          0.80350       15.02330       13.39290
