
  xtb     02032222183D
 energy: -376.057549577164 gnorm: 0.000919735824 xtb: 6.4.1 (unknown)
220240  0     0  0            999 V2000
   -4.4695   12.2340   -5.8754 C   0  0  0  0  0  0  0  0  0  0  0  0
   -4.1930   12.3413   -7.2021 C   0  0  0  0  0  0  0  0  0  0  0  0
   -3.3388   11.3822   -7.9552 C   0  0  0  0  0  0  0  0  0  0  0  0
   -2.5689   10.5584   -7.5150 O   0  0  0  0  0  0  0  0  0  0  0  0
   -3.4656   11.7854   -9.3748 C   0  0  0  0  0  0  0  0  0  0  0  0
   -2.9469   11.1601  -10.4900 C   0  0  0  0  0  0  0  0  0  0  0  0
   -3.1731   11.7347  -11.7345 C   0  0  0  0  0  0  0  0  0  0  0  0
   -2.5721   10.9954  -13.1669 Cl  0  0  0  0  0  0  0  0  0  0  0  0
   -3.8968   12.9269  -11.8156 C   0  0  0  0  0  0  0  0  0  0  0  0
   -4.1075   13.4774  -13.0174 F   0  0  0  0  0  0  0  0  0  0  0  0
   -4.4089   13.5676  -10.6988 C   0  0  0  0  0  0  0  0  0  0  0  0
   -4.1928   12.9849   -9.4584 C   0  0  0  0  0  0  0  0  0  0  0  0
   -4.6133   13.3857   -8.1174 C   0  0  0  0  0  0  0  0  0  0  0  0
   -5.3234   14.5159   -7.8122 C   0  0  0  0  0  0  0  0  0  0  0  0
   -5.7175   15.4828   -8.7618 C   0  0  0  0  0  0  0  0  0  0  0  0
   -6.0598   16.3077   -9.4828 N   0  0  0  0  0  0  0  0  0  0  0  0
   -5.7568   14.8823   -6.5197 C   0  0  0  0  0  0  0  0  0  0  0  0
   -6.1615   15.2432   -5.5081 N   0  0  0  0  0  0  0  0  0  0  0  0
   -4.3117   11.0134   -5.1427 C   0  0  0  0  0  0  0  0  0  0  0  0
   -3.9711   11.0043   -3.7957 C   0  0  0  0  0  0  0  0  0  0  0  0
   -3.7317   12.1675   -3.1725 F   0  0  0  0  0  0  0  0  0  0  0  0
   -3.8129    9.8235   -3.0801 C   0  0  0  0  0  0  0  0  0  0  0  0
   -3.4478    9.9213   -1.7884 F   0  0  0  0  0  0  0  0  0  0  0  0
   -4.0192    8.5649   -3.6452 C   0  0  0  0  0  0  0  0  0  0  0  0
   -4.4091    8.5477   -5.0210 C   0  0  0  0  0  0  0  0  0  0  0  0
   -4.5501    7.3685   -5.6618 N   0  0  0  0  0  0  0  0  0  0  0  0
   -4.8751    7.3658   -6.9275 C   0  0  0  0  0  0  0  0  0  0  0  0
   -4.9408    6.2229   -7.6048 O   0  0  0  0  0  0  0  0  0  0  0  0
   -4.6055    5.0330   -6.8940 C   0  0  0  0  0  0  0  0  0  0  0  0
   -4.3933    3.9158   -7.8991 C   0  0  0  0  0  0  0  0  0  0  0  0
   -5.2059    8.5790   -7.6167 C   0  0  0  0  0  0  0  0  0  0  0  0
   -5.0447    9.7157   -7.0106 N   0  0  0  0  0  0  0  0  0  0  0  0
   -4.5789    9.7504   -5.7444 C   0  0  0  0  0  0  0  0  0  0  0  0
   -5.7295    8.5510   -9.0089 C   0  0  0  0  0  0  0  0  0  0  0  0
   -3.7965    7.3546   -2.9155 C   0  0  0  0  0  0  0  0  0  0  0  0
   -4.3160    6.0990   -3.1956 C   0  0  0  0  0  0  0  0  0  0  0  0
   -3.8259    5.1196   -2.3496 C   0  0  0  0  0  0  0  0  0  0  0  0
   -3.9994    3.6253   -2.2002 C   0  0  0  0  0  0  0  0  0  0  0  0
   -5.4653    3.3900   -1.7641 C   0  0  0  0  0  0  0  0  0  0  0  0
   -5.9507    1.9493   -1.8185 C   0  0  0  0  0  0  0  0  0  0  0  0
   -3.6720    2.9114   -3.5198 C   0  0  0  0  0  0  0  0  0  0  0  0
   -2.2908    3.2681   -4.0555 C   0  0  0  0  0  0  0  0  0  0  0  0
   -2.9915    3.3327   -1.1002 C   0  0  0  0  0  0  0  0  0  0  0  0
   -2.4143    2.2475   -0.4375 C   0  0  0  0  0  0  0  0  0  0  0  0
   -2.4836    0.7311   -0.4251 C   0  0  0  0  0  0  0  0  0  0  0  0
   -3.7014    0.2029    0.3142 C   0  0  0  0  0  0  0  0  0  0  0  0
   -4.4804    1.0393    1.1049 C   0  0  0  0  0  0  0  0  0  0  0  0
   -5.5546    0.5397    1.8171 C   0  0  0  0  0  0  0  0  0  0  0  0
   -5.8772   -0.8095    1.7722 C   0  0  0  0  0  0  0  0  0  0  0  0
   -7.0230   -1.3520    2.5759 C   0  0  0  0  0  0  0  0  0  0  0  0
   -6.5683   -1.6825    3.9990 C   0  0  0  0  0  0  0  0  0  0  0  0
   -5.0787   -1.6489    1.0068 C   0  0  0  0  0  0  0  0  0  0  0  0
   -4.0034   -1.1542    0.2935 C   0  0  0  0  0  0  0  0  0  0  0  0
   -2.2795    0.1820   -1.8221 C   0  0  0  0  0  0  0  0  0  0  0  0
   -1.0255    0.3272   -2.4067 C   0  0  0  0  0  0  0  0  0  0  0  0
   -0.7874   -0.1152   -3.6932 C   0  0  0  0  0  0  0  0  0  0  0  0
   -1.7940   -0.7181   -4.4363 C   0  0  0  0  0  0  0  0  0  0  0  0
   -1.5559   -1.1523   -5.8536 C   0  0  0  0  0  0  0  0  0  0  0  0
   -1.9354   -0.0318   -6.8242 C   0  0  0  0  0  0  0  0  0  0  0  0
   -3.0446   -0.8608   -3.8524 C   0  0  0  0  0  0  0  0  0  0  0  0
   -3.2894   -0.4139   -2.5654 C   0  0  0  0  0  0  0  0  0  0  0  0
   -1.3044    0.3854    0.4803 C   0  0  0  0  0  0  0  0  0  0  0  0
   -0.7533    1.5530    1.0521 C   0  0  0  0  0  0  0  0  0  0  0  0
   -1.4365    2.6588    0.4684 C   0  0  0  0  0  0  0  0  0  0  0  0
   -1.2115    4.3642    0.5557 S   0  0  0  0  0  0  0  0  0  0  0  0
   -2.4193    4.5373   -0.6594 C   0  0  0  0  0  0  0  0  0  0  0  0
   -2.9255    5.6184   -1.4103 C   0  0  0  0  0  0  0  0  0  0  0  0
   -2.7045    7.3091   -1.5382 S   0  0  0  0  0  0  0  0  0  0  0  0
    0.3171    1.5079    1.9422 C   0  0  0  0  0  0  0  0  0  0  0  0
    0.8467    0.2704    2.2210 C   0  0  0  0  0  0  0  0  0  0  0  0
    2.0339   -0.0754    3.1200 C   0  0  0  0  0  0  0  0  0  0  0  0
    3.2165    0.7576    2.6570 C   0  0  0  0  0  0  0  0  0  0  0  0
    4.0334    1.5003    3.4974 C   0  0  0  0  0  0  0  0  0  0  0  0
    5.0726    2.2573    2.9831 C   0  0  0  0  0  0  0  0  0  0  0  0
    5.3310    2.2941    1.6214 C   0  0  0  0  0  0  0  0  0  0  0  0
    6.4910    3.0747    1.0764 C   0  0  0  0  0  0  0  0  0  0  0  0
    7.7426    2.1960    1.0244 C   0  0  0  0  0  0  0  0  0  0  0  0
    4.5180    1.5441    0.7810 C   0  0  0  0  0  0  0  0  0  0  0  0
    3.4785    0.7917    1.2892 C   0  0  0  0  0  0  0  0  0  0  0  0
    1.5459    0.1918    4.5358 C   0  0  0  0  0  0  0  0  0  0  0  0
    1.4374    1.4936    5.0146 C   0  0  0  0  0  0  0  0  0  0  0  0
    0.9598    1.7430    6.2872 C   0  0  0  0  0  0  0  0  0  0  0  0
    0.5500    0.7068    7.1148 C   0  0  0  0  0  0  0  0  0  0  0  0
    0.0945    0.9707    8.5202 C   0  0  0  0  0  0  0  0  0  0  0  0
    1.2702    0.8417    9.4913 C   0  0  0  0  0  0  0  0  0  0  0  0
    0.6106   -0.5873    6.6176 C   0  0  0  0  0  0  0  0  0  0  0  0
    1.0904   -0.8410    5.3466 C   0  0  0  0  0  0  0  0  0  0  0  0
    2.2048   -1.5690    2.8477 C   0  0  0  0  0  0  0  0  0  0  0  0
    1.1607   -1.9697    2.0092 C   0  0  0  0  0  0  0  0  0  0  0  0
    0.3296   -0.8875    1.6083 C   0  0  0  0  0  0  0  0  0  0  0  0
   -0.7651   -0.8488    0.7465 C   0  0  0  0  0  0  0  0  0  0  0  0
    1.0986   -3.6512    1.6619 S   0  0  0  0  0  0  0  0  0  0  0  0
    2.4780   -3.8498    2.6691 C   0  0  0  0  0  0  0  0  0  0  0  0
    3.1733   -4.9799    3.1326 C   0  0  0  0  0  0  0  0  0  0  0  0
    4.1591   -4.5450    4.0161 C   0  0  0  0  0  0  0  0  0  0  0  0
    4.2108   -3.0308    4.0818 C   0  0  0  0  0  0  0  0  0  0  0  0
    2.9956   -2.6655    3.2288 C   0  0  0  0  0  0  0  0  0  0  0  0
    5.5716   -2.6784    3.4230 C   0  0  0  0  0  0  0  0  0  0  0  0
    5.6897   -1.3234    2.7478 C   0  0  0  0  0  0  0  0  0  0  0  0
    4.1172   -2.6161    5.5620 C   0  0  0  0  0  0  0  0  0  0  0  0
    4.4348   -1.1640    5.8771 C   0  0  0  0  0  0  0  0  0  0  0  0
    4.9014   -5.5857    4.5391 C   0  0  0  0  0  0  0  0  0  0  0  0
    4.4857   -6.8303    4.0663 C   0  0  0  0  0  0  0  0  0  0  0  0
    3.1435   -6.6871    2.9421 S   0  0  0  0  0  0  0  0  0  0  0  0
    5.0270   -8.1097    4.3623 C   0  0  0  0  0  0  0  0  0  0  0  0
    6.0775   -8.3394    5.2585 C   0  0  0  0  0  0  0  0  0  0  0  0
    6.6191   -7.3257    5.9618 F   0  0  0  0  0  0  0  0  0  0  0  0
    6.6164   -9.6016    5.4601 C   0  0  0  0  0  0  0  0  0  0  0  0
    7.6396   -9.7233    6.3203 F   0  0  0  0  0  0  0  0  0  0  0  0
    6.1912  -10.7307    4.7615 C   0  0  0  0  0  0  0  0  0  0  0  0
    5.0727  -10.5536    3.8974 C   0  0  0  0  0  0  0  0  0  0  0  0
    4.5062  -11.6273    3.3169 N   0  0  0  0  0  0  0  0  0  0  0  0
    3.4741  -11.4520    2.5347 C   0  0  0  0  0  0  0  0  0  0  0  0
    2.8857  -12.4858    1.9373 O   0  0  0  0  0  0  0  0  0  0  0  0
    3.4670  -13.7734    2.1232 C   0  0  0  0  0  0  0  0  0  0  0  0
    3.2237  -14.3422    3.5140 C   0  0  0  0  0  0  0  0  0  0  0  0
    2.9285  -10.1482    2.2920 C   0  0  0  0  0  0  0  0  0  0  0  0
    3.4507   -9.1224    2.8985 N   0  0  0  0  0  0  0  0  0  0  0  0
    4.5094   -9.2737    3.7128 C   0  0  0  0  0  0  0  0  0  0  0  0
    1.7664   -9.9564    1.3855 C   0  0  0  0  0  0  0  0  0  0  0  0
    6.7759  -12.0133    4.9786 C   0  0  0  0  0  0  0  0  0  0  0  0
    6.9102  -12.9592    4.0045 C   0  0  0  0  0  0  0  0  0  0  0  0
    6.9488  -12.6517    2.5534 C   0  0  0  0  0  0  0  0  0  0  0  0
    6.8563  -11.5763    2.0049 O   0  0  0  0  0  0  0  0  0  0  0  0
    7.2798  -13.9389    1.8939 C   0  0  0  0  0  0  0  0  0  0  0  0
    7.4346  -14.1896    0.5456 C   0  0  0  0  0  0  0  0  0  0  0  0
    7.7682  -15.4788    0.1481 C   0  0  0  0  0  0  0  0  0  0  0  0
    7.9635  -15.8615   -1.5178 Cl  0  0  0  0  0  0  0  0  0  0  0  0
    7.9473  -16.4687    1.1169 C   0  0  0  0  0  0  0  0  0  0  0  0
    8.2759  -17.7065    0.7273 F   0  0  0  0  0  0  0  0  0  0  0  0
    7.8000  -16.2226    2.4732 C   0  0  0  0  0  0  0  0  0  0  0  0
    7.4581  -14.9378    2.8660 C   0  0  0  0  0  0  0  0  0  0  0  0
    7.2142  -14.3616    4.1853 C   0  0  0  0  0  0  0  0  0  0  0  0
    7.1656  -15.0569    5.3656 C   0  0  0  0  0  0  0  0  0  0  0  0
    6.8041  -14.4979    6.6097 C   0  0  0  0  0  0  0  0  0  0  0  0
    6.4881  -14.1237    7.6480 N   0  0  0  0  0  0  0  0  0  0  0  0
    7.4311  -16.4369    5.4797 C   0  0  0  0  0  0  0  0  0  0  0  0
    7.6349  -17.5565    5.6298 N   0  0  0  0  0  0  0  0  0  0  0  0
   -4.8655   13.0769   -5.3244 H   0  0  0  0  0  0  0  0  0  0  0  0
   -2.3837   10.2457  -10.3938 H   0  0  0  0  0  0  0  0  0  0  0  0
   -4.9528   14.4885  -10.8316 H   0  0  0  0  0  0  0  0  0  0  0  0
   -3.7037    5.2123   -6.2992 H   0  0  0  0  0  0  0  0  0  0  0  0
   -5.4276    4.7916   -6.2093 H   0  0  0  0  0  0  0  0  0  0  0  0
   -5.2956    3.7586   -8.4838 H   0  0  0  0  0  0  0  0  0  0  0  0
   -4.1428    2.9979   -7.3750 H   0  0  0  0  0  0  0  0  0  0  0  0
   -3.5817    4.1699   -8.5751 H   0  0  0  0  0  0  0  0  0  0  0  0
   -4.9943    8.0889   -9.6655 H   0  0  0  0  0  0  0  0  0  0  0  0
   -5.9391    9.5624   -9.3444 H   0  0  0  0  0  0  0  0  0  0  0  0
   -6.6353    7.9487   -9.0548 H   0  0  0  0  0  0  0  0  0  0  0  0
   -5.0176    5.9428   -3.9909 H   0  0  0  0  0  0  0  0  0  0  0  0
   -5.5776    3.7705   -0.7461 H   0  0  0  0  0  0  0  0  0  0  0  0
   -6.1008    3.9981   -2.4121 H   0  0  0  0  0  0  0  0  0  0  0  0
   -6.9583    1.8943   -1.4117 H   0  0  0  0  0  0  0  0  0  0  0  0
   -5.3132    1.3043   -1.2247 H   0  0  0  0  0  0  0  0  0  0  0  0
   -5.9781    1.5816   -2.8407 H   0  0  0  0  0  0  0  0  0  0  0  0
   -4.4291    3.1933   -4.2547 H   0  0  0  0  0  0  0  0  0  0  0  0
   -3.7215    1.8351   -3.3659 H   0  0  0  0  0  0  0  0  0  0  0  0
   -2.1034    2.7283   -4.9805 H   0  0  0  0  0  0  0  0  0  0  0  0
   -1.5214    2.9900   -3.3395 H   0  0  0  0  0  0  0  0  0  0  0  0
   -2.2107    4.3346   -4.2529 H   0  0  0  0  0  0  0  0  0  0  0  0
   -4.2552    2.0938    1.1606 H   0  0  0  0  0  0  0  0  0  0  0  0
   -6.1530    1.2118    2.4153 H   0  0  0  0  0  0  0  0  0  0  0  0
   -7.8268   -0.6139    2.6182 H   0  0  0  0  0  0  0  0  0  0  0  0
   -7.4131   -2.2555    2.1030 H   0  0  0  0  0  0  0  0  0  0  0  0
   -7.3979   -2.0754    4.5820 H   0  0  0  0  0  0  0  0  0  0  0  0
   -6.1884   -0.7903    4.4917 H   0  0  0  0  0  0  0  0  0  0  0  0
   -5.7739   -2.4253    3.9790 H   0  0  0  0  0  0  0  0  0  0  0  0
   -5.3003   -2.7060    0.9674 H   0  0  0  0  0  0  0  0  0  0  0  0
   -3.3997   -1.8327   -0.2903 H   0  0  0  0  0  0  0  0  0  0  0  0
   -0.2280    0.7926   -1.8445 H   0  0  0  0  0  0  0  0  0  0  0  0
    0.1946    0.0091   -4.1267 H   0  0  0  0  0  0  0  0  0  0  0  0
   -2.1554   -2.0375   -6.0758 H   0  0  0  0  0  0  0  0  0  0  0  0
   -0.5039   -1.4077   -5.9925 H   0  0  0  0  0  0  0  0  0  0  0  0
   -1.3310    0.8529   -6.6346 H   0  0  0  0  0  0  0  0  0  0  0  0
   -1.7745   -0.3472   -7.8523 H   0  0  0  0  0  0  0  0  0  0  0  0
   -2.9834    0.2346   -6.7024 H   0  0  0  0  0  0  0  0  0  0  0  0
   -3.8444   -1.3258   -4.4116 H   0  0  0  0  0  0  0  0  0  0  0  0
   -4.2772   -0.5352   -2.1476 H   0  0  0  0  0  0  0  0  0  0  0  0
    0.7188    2.4189    2.3564 H   0  0  0  0  0  0  0  0  0  0  0  0
    3.8751    1.5012    4.5648 H   0  0  0  0  0  0  0  0  0  0  0  0
    5.6924    2.8290    3.6592 H   0  0  0  0  0  0  0  0  0  0  0  0
    6.2590    3.4309    0.0708 H   0  0  0  0  0  0  0  0  0  0  0  0
    6.6862    3.9418    1.7103 H   0  0  0  0  0  0  0  0  0  0  0  0
    7.9980    1.8426    2.0209 H   0  0  0  0  0  0  0  0  0  0  0  0
    7.5702    1.3301    0.3889 H   0  0  0  0  0  0  0  0  0  0  0  0
    8.5853    2.7569    0.6275 H   0  0  0  0  0  0  0  0  0  0  0  0
    4.6986    1.5535   -0.2844 H   0  0  0  0  0  0  0  0  0  0  0  0
    2.8575    0.2188    0.6146 H   0  0  0  0  0  0  0  0  0  0  0  0
    1.7309    2.3264    4.3943 H   0  0  0  0  0  0  0  0  0  0  0  0
    0.8995    2.7630    6.6394 H   0  0  0  0  0  0  0  0  0  0  0  0
   -0.6818    0.2550    8.7988 H   0  0  0  0  0  0  0  0  0  0  0  0
   -0.3245    1.9762    8.5928 H   0  0  0  0  0  0  0  0  0  0  0  0
    2.0513    1.5547    9.2362 H   0  0  0  0  0  0  0  0  0  0  0  0
    0.9449    1.0331   10.5111 H   0  0  0  0  0  0  0  0  0  0  0  0
    1.6923   -0.1598    9.4434 H   0  0  0  0  0  0  0  0  0  0  0  0
    0.2734   -1.4108    7.2309 H   0  0  0  0  0  0  0  0  0  0  0  0
    1.1094   -1.8587    4.9881 H   0  0  0  0  0  0  0  0  0  0  0  0
   -1.1349   -1.7547    0.2926 H   0  0  0  0  0  0  0  0  0  0  0  0
    6.3380   -2.7775    4.1938 H   0  0  0  0  0  0  0  0  0  0  0  0
    5.7755   -3.4395    2.6645 H   0  0  0  0  0  0  0  0  0  0  0  0
    6.6864   -1.2224    2.3226 H   0  0  0  0  0  0  0  0  0  0  0  0
    5.5319   -0.5068    3.4417 H   0  0  0  0  0  0  0  0  0  0  0  0
    4.9683   -1.2331    1.9409 H   0  0  0  0  0  0  0  0  0  0  0  0
    3.1083   -2.8464    5.9119 H   0  0  0  0  0  0  0  0  0  0  0  0
    4.8069   -3.2535    6.1202 H   0  0  0  0  0  0  0  0  0  0  0  0
    4.2448   -0.9736    6.9316 H   0  0  0  0  0  0  0  0  0  0  0  0
    5.4775   -0.9364    5.6745 H   0  0  0  0  0  0  0  0  0  0  0  0
    3.8037   -0.5042    5.2953 H   0  0  0  0  0  0  0  0  0  0  0  0
    5.7147   -5.4609    5.2277 H   0  0  0  0  0  0  0  0  0  0  0  0
    4.5421  -13.7092    1.9244 H   0  0  0  0  0  0  0  0  0  0  0  0
    2.9902  -14.3952    1.3620 H   0  0  0  0  0  0  0  0  0  0  0  0
    2.1585  -14.3658    3.7301 H   0  0  0  0  0  0  0  0  0  0  0  0
    3.7241  -13.7325    4.2617 H   0  0  0  0  0  0  0  0  0  0  0  0
    3.6156  -15.3544    3.5619 H   0  0  0  0  0  0  0  0  0  0  0  0
    1.4971   -8.9052    1.3558 H   0  0  0  0  0  0  0  0  0  0  0  0
    2.0192  -10.3046    0.3856 H   0  0  0  0  0  0  0  0  0  0  0  0
    0.9229  -10.5495    1.7348 H   0  0  0  0  0  0  0  0  0  0  0  0
    7.1269  -12.2189    5.9823 H   0  0  0  0  0  0  0  0  0  0  0  0
    7.2975  -13.4026   -0.1788 H   0  0  0  0  0  0  0  0  0  0  0  0
    7.9613  -17.0286    3.1703 H   0  0  0  0  0  0  0  0  0  0  0  0
  1  2  2  0  0  0  0
  2  3  1  0  0  0  0
  3  4  2  0  0  0  0
  3  5  1  0  0  0  0
  5  6  2  0  0  0  0
  6  7  1  0  0  0  0
  7  8  1  0  0  0  0
  7  9  2  0  0  0  0
  9 10  1  0  0  0  0
  9 11  1  0  0  0  0
 11 12  2  0  0  0  0
 12 13  1  0  0  0  0
 13 14  2  0  0  0  0
 14 15  1  0  0  0  0
 15 16  3  0  0  0  0
 14 17  1  0  0  0  0
 17 18  3  0  0  0  0
  1 19  1  0  0  0  0
 19 20  2  0  0  0  0
 20 21  1  0  0  0  0
 20 22  1  0  0  0  0
 22 23  1  0  0  0  0
 22 24  2  0  0  0  0
 24 25  1  0  0  0  0
 25 26  2  0  0  0  0
 26 27  1  0  0  0  0
 27 28  1  0  0  0  0
 28 29  1  0  0  0  0
 29 30  1  0  0  0  0
 27 31  2  0  0  0  0
 31 32  1  0  0  0  0
 32 33  2  0  0  0  0
 31 34  1  0  0  0  0
 24 35  1  0  0  0  0
 35 36  2  0  0  0  0
 36 37  1  0  0  0  0
 37 38  1  0  0  0  0
 38 39  1  0  0  0  0
 39 40  1  0  0  0  0
 38 41  1  0  0  0  0
 41 42  1  0  0  0  0
 38 43  1  0  0  0  0
 43 44  1  0  0  0  0
 44 45  1  0  0  0  0
 45 46  1  0  0  0  0
 46 47  2  0  0  0  0
 47 48  1  0  0  0  0
 48 49  2  0  0  0  0
 49 50  1  0  0  0  0
 50 51  1  0  0  0  0
 49 52  1  0  0  0  0
 52 53  2  0  0  0  0
 45 54  1  0  0  0  0
 54 55  2  0  0  0  0
 55 56  1  0  0  0  0
 56 57  2  0  0  0  0
 57 58  1  0  0  0  0
 58 59  1  0  0  0  0
 57 60  1  0  0  0  0
 60 61  2  0  0  0  0
 45 62  1  0  0  0  0
 62 63  2  0  0  0  0
 63 64  1  0  0  0  0
 64 65  1  0  0  0  0
 65 66  1  0  0  0  0
 66 67  1  0  0  0  0
 67 68  1  0  0  0  0
 63 69  1  0  0  0  0
 69 70  2  0  0  0  0
 70 71  1  0  0  0  0
 71 72  1  0  0  0  0
 72 73  2  0  0  0  0
 73 74  1  0  0  0  0
 74 75  2  0  0  0  0
 75 76  1  0  0  0  0
 76 77  1  0  0  0  0
 75 78  1  0  0  0  0
 78 79  2  0  0  0  0
 71 80  1  0  0  0  0
 80 81  2  0  0  0  0
 81 82  1  0  0  0  0
 82 83  2  0  0  0  0
 83 84  1  0  0  0  0
 84 85  1  0  0  0  0
 83 86  1  0  0  0  0
 86 87  2  0  0  0  0
 71 88  1  0  0  0  0
 88 89  2  0  0  0  0
 89 90  1  0  0  0  0
 90 91  2  0  0  0  0
 89 92  1  0  0  0  0
 92 93  1  0  0  0  0
 93 94  1  0  0  0  0
 94 95  2  0  0  0  0
 95 96  1  0  0  0  0
 96 97  1  0  0  0  0
 96 98  1  0  0  0  0
 98 99  1  0  0  0  0
 96100  1  0  0  0  0
100101  1  0  0  0  0
 95102  1  0  0  0  0
102103  2  0  0  0  0
103104  1  0  0  0  0
103105  1  0  0  0  0
105106  2  0  0  0  0
106107  1  0  0  0  0
106108  1  0  0  0  0
108109  1  0  0  0  0
108110  2  0  0  0  0
110111  1  0  0  0  0
111112  2  0  0  0  0
112113  1  0  0  0  0
113114  1  0  0  0  0
114115  1  0  0  0  0
115116  1  0  0  0  0
113117  2  0  0  0  0
117118  1  0  0  0  0
118119  2  0  0  0  0
117120  1  0  0  0  0
110121  1  0  0  0  0
121122  2  0  0  0  0
122123  1  0  0  0  0
123124  2  0  0  0  0
123125  1  0  0  0  0
125126  2  0  0  0  0
126127  1  0  0  0  0
127128  1  0  0  0  0
127129  2  0  0  0  0
129130  1  0  0  0  0
129131  1  0  0  0  0
131132  2  0  0  0  0
132133  1  0  0  0  0
133134  2  0  0  0  0
134135  1  0  0  0  0
135136  3  0  0  0  0
134137  1  0  0  0  0
137138  3  0  0  0  0
 13  2  1  0  0  0  0
 33 19  1  0  0  0  0
 68 35  1  0  0  0  0
 90 70  1  0  0  0  0
 97 93  2  0  0  0  0
119105  1  0  0  0  0
133122  1  0  0  0  0
 12  5  1  0  0  0  0
 33 25  1  0  0  0  0
 67 37  2  0  0  0  0
 79 72  1  0  0  0  0
 87 80  1  0  0  0  0
 97 88  1  0  0  0  0
119111  1  0  0  0  0
132125  1  0  0  0  0
 66 43  2  0  0  0  0
104 94  1  0  0  0  0
 64 44  2  0  0  0  0
 53 46  1  0  0  0  0
 61 54  1  0  0  0  0
 91 62  1  0  0  0  0
  1139  1  0  0  0  0
  6140  1  0  0  0  0
 11141  1  0  0  0  0
 29142  1  0  0  0  0
 29143  1  0  0  0  0
 30144  1  0  0  0  0
 30145  1  0  0  0  0
 30146  1  0  0  0  0
 34147  1  0  0  0  0
 34148  1  0  0  0  0
 34149  1  0  0  0  0
 36150  1  0  0  0  0
 39151  1  0  0  0  0
 39152  1  0  0  0  0
 40153  1  0  0  0  0
 40154  1  0  0  0  0
 40155  1  0  0  0  0
 41156  1  0  0  0  0
 41157  1  0  0  0  0
 42158  1  0  0  0  0
 42159  1  0  0  0  0
 42160  1  0  0  0  0
 47161  1  0  0  0  0
 48162  1  0  0  0  0
 50163  1  0  0  0  0
 50164  1  0  0  0  0
 51165  1  0  0  0  0
 51166  1  0  0  0  0
 51167  1  0  0  0  0
 52168  1  0  0  0  0
 53169  1  0  0  0  0
 55170  1  0  0  0  0
 56171  1  0  0  0  0
 58172  1  0  0  0  0
 58173  1  0  0  0  0
 59174  1  0  0  0  0
 59175  1  0  0  0  0
 59176  1  0  0  0  0
 60177  1  0  0  0  0
 61178  1  0  0  0  0
 69179  1  0  0  0  0
 73180  1  0  0  0  0
 74181  1  0  0  0  0
 76182  1  0  0  0  0
 76183  1  0  0  0  0
 77184  1  0  0  0  0
 77185  1  0  0  0  0
 77186  1  0  0  0  0
 78187  1  0  0  0  0
 79188  1  0  0  0  0
 81189  1  0  0  0  0
 82190  1  0  0  0  0
 84191  1  0  0  0  0
 84192  1  0  0  0  0
 85193  1  0  0  0  0
 85194  1  0  0  0  0
 85195  1  0  0  0  0
 86196  1  0  0  0  0
 87197  1  0  0  0  0
 91198  1  0  0  0  0
 98199  1  0  0  0  0
 98200  1  0  0  0  0
 99201  1  0  0  0  0
 99202  1  0  0  0  0
 99203  1  0  0  0  0
100204  1  0  0  0  0
100205  1  0  0  0  0
101206  1  0  0  0  0
101207  1  0  0  0  0
101208  1  0  0  0  0
102209  1  0  0  0  0
115210  1  0  0  0  0
115211  1  0  0  0  0
116212  1  0  0  0  0
116213  1  0  0  0  0
116214  1  0  0  0  0
120215  1  0  0  0  0
120216  1  0  0  0  0
120217  1  0  0  0  0
121218  1  0  0  0  0
126219  1  0  0  0  0
131220  1  0  0  0  0
M  END
