220

C         -4.46950       12.23400       -5.87540
C         -4.19300       12.34130       -7.20210
C         -3.33880       11.38220       -7.95520
O         -2.56890       10.55840       -7.51500
C         -3.46560       11.78540       -9.37480
C         -2.94690       11.16010      -10.49000
C         -3.17310       11.73470      -11.73450
Cl        -2.57210       10.99540      -13.16690
C         -3.89680       12.92690      -11.81560
F         -4.10750       13.47740      -13.01740
C         -4.40890       13.56760      -10.69880
C         -4.19280       12.98490       -9.45840
C         -4.61330       13.38570       -8.11740
C         -5.32340       14.51590       -7.81220
C         -5.71750       15.48280       -8.76180
N         -6.05980       16.30770       -9.48280
C         -5.75680       14.88230       -6.51970
N         -6.16150       15.24320       -5.50810
C         -4.31170       11.01340       -5.14270
C         -3.97110       11.00430       -3.79570
F         -3.73170       12.16750       -3.17250
C         -3.81290        9.82350       -3.08010
F         -3.44780        9.92130       -1.78840
C         -4.01920        8.56490       -3.64520
C         -4.40910        8.54770       -5.02100
N         -4.55010        7.36850       -5.66180
C         -4.87510        7.36580       -6.92750
O         -4.94080        6.22290       -7.60480
C         -4.60550        5.03300       -6.89400
C         -4.39330        3.91580       -7.89910
C         -5.20590        8.57900       -7.61670
N         -5.04470        9.71570       -7.01060
C         -4.57890        9.75040       -5.74440
C         -5.72950        8.55100       -9.00890
C         -3.79650        7.35460       -2.91550
C         -4.31600        6.09900       -3.19560
C         -3.82590        5.11960       -2.34960
C         -3.99940        3.62530       -2.20020
C         -5.46530        3.39000       -1.76410
C         -5.95070        1.94930       -1.81850
C         -3.67200        2.91140       -3.51980
C         -2.29080        3.26810       -4.05550
C         -2.99150        3.33270       -1.10020
C         -2.41430        2.24750       -0.43750
C         -2.48360        0.73110       -0.42510
C         -3.70140        0.20290        0.31420
C         -4.48040        1.03930        1.10490
C         -5.55460        0.53970        1.81710
C         -5.87720       -0.80950        1.77220
C         -7.02300       -1.35200        2.57590
C         -6.56830       -1.68250        3.99900
C         -5.07870       -1.64890        1.00680
C         -4.00340       -1.15420        0.29350
C         -2.27950        0.18200       -1.82210
C         -1.02550        0.32720       -2.40670
C         -0.78740       -0.11520       -3.69320
C         -1.79400       -0.71810       -4.43630
C         -1.55590       -1.15230       -5.85360
C         -1.93540       -0.03180       -6.82420
C         -3.04460       -0.86080       -3.85240
C         -3.28940       -0.41390       -2.56540
C         -1.30440        0.38540        0.48030
C         -0.75330        1.55300        1.05210
C         -1.43650        2.65880        0.46840
S         -1.21150        4.36420        0.55570
C         -2.41930        4.53730       -0.65940
C         -2.92550        5.61840       -1.41030
S         -2.70450        7.30910       -1.53820
C          0.31710        1.50790        1.94220
C          0.84670        0.27040        2.22100
C          2.03390       -0.07540        3.12000
C          3.21650        0.75760        2.65700
C          4.03340        1.50030        3.49740
C          5.07260        2.25730        2.98310
C          5.33100        2.29410        1.62140
C          6.49100        3.07470        1.07640
C          7.74260        2.19600        1.02440
C          4.51800        1.54410        0.78100
C          3.47850        0.79170        1.28920
C          1.54590        0.19180        4.53580
C          1.43740        1.49360        5.01460
C          0.95980        1.74300        6.28720
C          0.55000        0.70680        7.11480
C          0.09450        0.97070        8.52020
C          1.27020        0.84170        9.49130
C          0.61060       -0.58730        6.61760
C          1.09040       -0.84100        5.34660
C          2.20480       -1.56900        2.84770
C          1.16070       -1.96970        2.00920
C          0.32960       -0.88750        1.60830
C         -0.76510       -0.84880        0.74650
S          1.09860       -3.65120        1.66190
C          2.47800       -3.84980        2.66910
C          3.17330       -4.97990        3.13260
C          4.15910       -4.54500        4.01610
C          4.21080       -3.03080        4.08180
C          2.99560       -2.66550        3.22880
C          5.57160       -2.67840        3.42300
C          5.68970       -1.32340        2.74780
C          4.11720       -2.61610        5.56200
C          4.43480       -1.16400        5.87710
C          4.90140       -5.58570        4.53910
C          4.48570       -6.83030        4.06630
S          3.14350       -6.68710        2.94210
C          5.02700       -8.10970        4.36230
C          6.07750       -8.33940        5.25850
F          6.61910       -7.32570        5.96180
C          6.61640       -9.60160        5.46010
F          7.63960       -9.72330        6.32030
C          6.19120      -10.73070        4.76150
C          5.07270      -10.55360        3.89740
N          4.50620      -11.62730        3.31690
C          3.47410      -11.45200        2.53470
O          2.88570      -12.48580        1.93730
C          3.46700      -13.77340        2.12320
C          3.22370      -14.34220        3.51400
C          2.92850      -10.14820        2.29200
N          3.45070       -9.12240        2.89850
C          4.50940       -9.27370        3.71280
C          1.76640       -9.95640        1.38550
C          6.77590      -12.01330        4.97860
C          6.91020      -12.95920        4.00450
C          6.94880      -12.65170        2.55340
O          6.85630      -11.57630        2.00490
C          7.27980      -13.93890        1.89390
C          7.43460      -14.18960        0.54560
C          7.76820      -15.47880        0.14810
Cl         7.96350      -15.86150       -1.51780
C          7.94730      -16.46870        1.11690
F          8.27590      -17.70650        0.72730
C          7.80000      -16.22260        2.47320
C          7.45810      -14.93780        2.86600
C          7.21420      -14.36160        4.18530
C          7.16560      -15.05690        5.36560
C          6.80410      -14.49790        6.60970
N          6.48810      -14.12370        7.64800
C          7.43110      -16.43690        5.47970
N          7.63490      -17.55650        5.62980
H         -4.86550       13.07690       -5.32440
H         -2.38370       10.24570      -10.39380
H         -4.95280       14.48850      -10.83160
H         -3.70370        5.21230       -6.29920
H         -5.42760        4.79160       -6.20930
H         -5.29560        3.75860       -8.48380
H         -4.14280        2.99790       -7.37500
H         -3.58170        4.16990       -8.57510
H         -4.99430        8.08890       -9.66550
H         -5.93910        9.56240       -9.34440
H         -6.63530        7.94870       -9.05480
H         -5.01760        5.94280       -3.99090
H         -5.57760        3.77050       -0.74610
H         -6.10080        3.99810       -2.41210
H         -6.95830        1.89430       -1.41170
H         -5.31320        1.30430       -1.22470
H         -5.97810        1.58160       -2.84070
H         -4.42910        3.19330       -4.25470
H         -3.72150        1.83510       -3.36590
H         -2.10340        2.72830       -4.98050
H         -1.52140        2.99000       -3.33950
H         -2.21070        4.33460       -4.25290
H         -4.25520        2.09380        1.16060
H         -6.15300        1.21180        2.41530
H         -7.82680       -0.61390        2.61820
H         -7.41310       -2.25550        2.10300
H         -7.39790       -2.07540        4.58200
H         -6.18840       -0.79030        4.49170
H         -5.77390       -2.42530        3.97900
H         -5.30030       -2.70600        0.96740
H         -3.39970       -1.83270       -0.29030
H         -0.22800        0.79260       -1.84450
H          0.19460        0.00910       -4.12670
H         -2.15540       -2.03750       -6.07580
H         -0.50390       -1.40770       -5.99250
H         -1.33100        0.85290       -6.63460
H         -1.77450       -0.34720       -7.85230
H         -2.98340        0.23460       -6.70240
H         -3.84440       -1.32580       -4.41160
H         -4.27720       -0.53520       -2.14760
H          0.71880        2.41890        2.35640
H          3.87510        1.50120        4.56480
H          5.69240        2.82900        3.65920
H          6.25900        3.43090        0.07080
H          6.68620        3.94180        1.71030
H          7.99800        1.84260        2.02090
H          7.57020        1.33010        0.38890
H          8.58530        2.75690        0.62750
H          4.69860        1.55350       -0.28440
H          2.85750        0.21880        0.61460
H          1.73090        2.32640        4.39430
H          0.89950        2.76300        6.63940
H         -0.68180        0.25500        8.79880
H         -0.32450        1.97620        8.59280
H          2.05130        1.55470        9.23620
H          0.94490        1.03310       10.51110
H          1.69230       -0.15980        9.44340
H          0.27340       -1.41080        7.23090
H          1.10940       -1.85870        4.98810
H         -1.13490       -1.75470        0.29260
H          6.33800       -2.77750        4.19380
H          5.77550       -3.43950        2.66450
H          6.68640       -1.22240        2.32260
H          5.53190       -0.50680        3.44170
H          4.96830       -1.23310        1.94090
H          3.10830       -2.84640        5.91190
H          4.80690       -3.25350        6.12020
H          4.24480       -0.97360        6.93160
H          5.47750       -0.93640        5.67450
H          3.80370       -0.50420        5.29530
H          5.71470       -5.46090        5.22770
H          4.54210      -13.70920        1.92440
H          2.99020      -14.39520        1.36200
H          2.15850      -14.36580        3.73010
H          3.72410      -13.73250        4.26170
H          3.61560      -15.35440        3.56190
H          1.49710       -8.90520        1.35580
H          2.01920      -10.30460        0.38560
H          0.92290      -10.54950        1.73480
H          7.12690      -12.21890        5.98230
H          7.29750      -13.40260       -0.17880
H          7.96130      -17.02860        3.17030
