201

C         -3.97980        1.61950        9.27170
C         -3.80030        0.71470       10.30140
C         -2.66710       -0.19040       10.47080
O         -1.73450       -0.38860        9.71180
C         -2.85530       -0.83140       11.79260
C         -2.04820       -1.75660       12.41980
C         -2.42970       -2.21860       13.67440
Cl        -1.46820       -3.37450       14.51300
C         -3.60410       -1.73670       14.25260
F         -3.96530       -2.18450       15.46270
C         -4.42080       -0.80730       13.62490
C         -4.03840       -0.34780       12.37560
C         -4.66420        0.59660       11.44900
C         -5.87530        1.21530       11.65480
C         -6.56030        2.00970       10.71660
N         -7.20670        2.63540        9.99990
C         -6.62450        1.10390       12.84260
N         -7.27390        1.07400       13.78970
C         -3.24400        1.82800        8.11330
C         -3.57790        2.82040        7.14890
N         -4.48840        3.82440        7.31610
C         -5.17290        4.30840        6.18220
C         -5.74560        3.41090        5.28460
C         -6.42890        3.87930        4.18190
C         -6.56520        5.24370        3.94810
C         -7.34040        5.73110        2.76370
C         -5.98920        6.12950        4.84990
C         -5.29780        5.67440        5.95560
C         -4.68630        4.47630        8.54800
C         -3.62000        4.69370        9.41730
C         -3.83250        5.32540       10.62600
C         -5.09760        5.77230       10.99080
C         -5.33670        6.43460       12.31190
C         -6.14780        5.57990       10.10070
C         -5.95420        4.93630        8.89480
C         -2.83000        2.64400        5.97420
S         -2.73840        3.50360        4.47000
C         -1.41850        2.46330        3.94490
C         -1.06150        1.52350        4.90610
N         -0.01610        0.62370        4.81680
C         -0.14220       -0.59610        5.51050
C         -1.32440       -1.32500        5.42390
C         -1.47510       -2.48800        6.15210
C         -0.45600       -2.95590        6.97190
C         -0.64780       -4.18600        7.80320
C          0.73160       -2.23650        7.02730
C          0.89310       -1.06900        6.30950
C          1.19390        0.95260        4.19830
C          1.66880        2.26290        4.19140
C          2.82520        2.58250        3.51230
C          3.55880        1.60740        2.84420
C          4.80660        1.97750        2.10150
C          3.10590        0.29560        2.89470
C          1.93720       -0.03330        3.55310
C         -1.88920        1.62500        6.05050
S         -1.90600        0.80730        7.57150
C         -0.88650        2.63050        2.63270
C         -0.76240        3.80030        1.90640
C         -1.06410        5.14440        2.40450
C         -0.58360        5.58880        3.63260
C         -0.88320        6.86370        4.07100
C         -1.65840        7.70490        3.29240
C         -2.13220        7.28470        2.05650
C         -3.00730        8.17690        1.22480
C         -4.47590        7.95930        1.59270
C         -1.82800        6.00370        1.62280
C         -0.26790        3.54930        0.61190
S          0.16680        4.60660       -0.70940
C          0.67330        3.22200       -1.61750
C          1.24800        2.91510       -2.86120
C          1.75250        3.74520       -3.88690
C          2.42040        3.14150       -5.00480
N          2.89650        4.03770       -5.85460
S          2.53190        5.51500       -5.29890
N          1.75310        5.06720       -3.95260
C          2.43050        1.73330       -5.11310
C          2.83810        0.88700       -6.15300
S          3.60450        0.98520       -7.70080
C          3.35040       -0.73460       -7.91020
C          3.69380       -1.62810       -8.93460
C          4.58130       -1.25560      -10.03230
C          5.64710       -2.08480      -10.38260
C          6.53750       -1.68310      -11.36000
C          6.37750       -0.46170      -11.99260
C          5.32110        0.37620      -11.65640
C          5.16800        1.72680      -12.29210
C          5.77460        2.80460      -11.39100
C          4.43210       -0.02980      -10.67290
C          3.24450       -2.91790       -8.64060
S          2.50510       -3.02870       -7.04710
C          2.70700       -1.33550       -6.81750
C          2.43560       -0.40860       -5.80780
N          1.82830       -0.39660       -4.58140
C          1.83220        0.90300       -4.11920
C          1.36470        1.49810       -2.92060
N          0.91560        0.96490       -1.71900
C          0.50770        2.01330       -0.93640
C         -0.02010        2.20220        0.34680
S         -0.42750        1.21040        1.69900
C          1.33540       -0.25590       -1.06240
C          2.82660       -0.21300       -0.73820
C          1.06700       -1.54380       -4.14100
C          1.95600       -2.64490       -3.56430
C          3.25080       -4.12160       -9.38290
C          3.20980       -5.40380       -8.82220
C          3.22670       -6.35250       -9.86340
C          3.20050       -5.64050      -11.12060
O          3.13240       -6.00910      -12.27080
N          3.24410       -4.27220      -10.74720
C          3.03940       -3.25720      -11.74480
C          3.16700       -7.63040       -9.30180
N          3.16560       -7.47080       -7.93650
C          3.28830       -8.49650       -6.93780
C          3.20190       -6.11530       -7.56650
O          3.23450       -5.73120       -6.41260
C          3.16230       -8.82760      -10.05270
C          2.50180      -10.00040       -9.80090
C          1.31810      -10.13380       -8.92190
O          0.83720       -9.30110       -8.18490
C          0.75510      -11.46950       -9.22460
C         -0.37200      -12.05950       -8.69030
C         -0.73120      -13.32390       -9.14220
Cl        -2.12250      -14.11760       -8.51520
C          0.04860      -13.94990      -10.11740
F         -0.30800      -15.16440      -10.55210
C          1.18120      -13.36260      -10.66000
C          1.53820      -12.10310      -10.20500
C          2.65200      -11.22760      -10.55450
C          3.70690      -11.54890      -11.36940
C          3.81330      -12.76400      -12.07640
N          3.94550      -13.73340      -12.67660
C          4.84420      -10.73430      -11.55560
N          5.81860      -10.14760      -11.71170
H         -4.83480        2.27530        9.37420
H         -1.14560       -2.10990       11.94750
H         -5.31490       -0.47700       14.12770
H         -5.66090        2.34950        5.46660
H         -6.87510        3.17520        3.49490
H         -8.40210        5.52780        2.90410
H         -7.21090        6.80060        2.62410
H         -7.02260        5.21570        1.85910
H         -6.08240        7.19300        4.68630
H         -4.85070        6.37270        6.64730
H         -2.62930        4.36030        9.14490
H         -2.99750        5.48060       11.29390
H         -5.89760        7.35830       12.18210
H         -4.39860        6.65970       12.81280
H         -5.92300        5.77940       12.95620
H         -7.13750        5.92090       10.36370
H         -6.78340        4.77520        8.22450
H         -2.12340       -0.96870        4.78950
H         -2.40190       -3.03950        6.08560
H         -1.10160       -3.91170        8.75610
H          0.30310       -4.67160        8.00900
H         -1.30850       -4.89390        7.30770
H          1.53670       -2.58580        7.65700
H          1.81390       -0.50840        6.37580
H          1.12610        3.02710        4.72690
H          3.17070        3.60640        3.50430
H          5.25070        1.10720        1.62440
H          4.58830        2.72310        1.33690
H          5.53900        2.40980        2.78230
H          3.66980       -0.48320        2.40180
H          1.58450       -1.05370        3.56240
H          0.03460        4.93910        4.23330
H         -0.50730        7.20520        5.02440
H         -1.89030        8.70040        3.64270
H         -2.74220        9.22210        1.39500
H         -2.86220        7.95460        0.16610
H         -4.63910        8.19840        2.64110
H         -4.75170        6.91930        1.43500
H         -5.12000        8.59030        0.98440
H         -2.19870        5.66150        0.66730
H          5.78330       -3.02730       -9.87320
H          7.36410       -2.32460      -11.62660
H          7.08110       -0.15470      -12.75240
H          4.10940        1.94400      -12.44780
H          5.66750        1.74090      -13.26240
H          6.83430        2.61480      -11.23590
H          5.28220        2.80920      -10.42120
H          5.66040        3.78610      -11.84460
H          3.60240        0.60990      -10.41030
H          1.10620       -1.12920       -1.66550
H          0.76050       -0.32650       -0.13560
H          3.12070       -1.13050       -0.23610
H          3.41340       -0.10420       -1.64840
H          3.04280        0.62740       -0.08310
H          0.31080       -1.20630       -3.43080
H          0.54080       -1.94410       -5.01480
H          2.55160       -3.10060       -4.35070
H          1.33830       -3.42100       -3.12110
H          2.63200       -2.25460       -2.80820
H          3.98550       -2.83950      -12.09300
H          2.41620       -2.45630      -11.34920
H          2.54150       -3.73540      -12.58990
H          3.79290       -8.05520       -6.07740
H          3.86870       -9.33300       -7.32610
H          2.30480       -8.85010       -6.62320
H          3.69520       -8.73940      -10.99320
H         -0.95710      -11.55040       -7.94110
H          1.73660      -13.89560      -11.41450
