
  xtb     02072219223D
 energy: -425.221243722294 gnorm: 0.000544165711 xtb: 6.4.1 (unknown)
255281  0     0  0            999 V2000
    5.3466    0.5826  -12.5099 C   0  0  0  0  0  0  0  0  0  0  0  0
    5.4569    1.4472  -13.5706 C   0  0  0  0  0  0  0  0  0  0  0  0
    5.0856    1.0012  -14.9275 C   0  0  0  0  0  0  0  0  0  0  0  0
    4.8550   -0.1306  -15.2935 O   0  0  0  0  0  0  0  0  0  0  0  0
    5.0138    2.2449  -15.7355 C   0  0  0  0  0  0  0  0  0  0  0  0
    4.5992    2.4055  -17.0409 C   0  0  0  0  0  0  0  0  0  0  0  0
    4.5844    3.6896  -17.5747 C   0  0  0  0  0  0  0  0  0  0  0  0
    4.0731    3.9571  -19.1968 Cl  0  0  0  0  0  0  0  0  0  0  0  0
    4.9840    4.7671  -16.7840 C   0  0  0  0  0  0  0  0  0  0  0  0
    4.9504    6.0032  -17.3006 F   0  0  0  0  0  0  0  0  0  0  0  0
    5.4145    4.6122  -15.4745 C   0  0  0  0  0  0  0  0  0  0  0  0
    5.4301    3.3326  -14.9475 C   0  0  0  0  0  0  0  0  0  0  0  0
    5.8444    2.8311  -13.6371 C   0  0  0  0  0  0  0  0  0  0  0  0
    6.6964    3.4889  -12.7811 C   0  0  0  0  0  0  0  0  0  0  0  0
    7.3320    2.8753  -11.6849 C   0  0  0  0  0  0  0  0  0  0  0  0
    7.9287    2.4017  -10.8241 N   0  0  0  0  0  0  0  0  0  0  0  0
    7.1378    4.8083  -12.9800 C   0  0  0  0  0  0  0  0  0  0  0  0
    7.5319    5.8815  -13.0955 N   0  0  0  0  0  0  0  0  0  0  0  0
    5.1964    0.8967  -11.1564 C   0  0  0  0  0  0  0  0  0  0  0  0
    5.3048    0.0045  -10.0727 C   0  0  0  0  0  0  0  0  0  0  0  0
    5.7414   -1.2845  -10.1599 N   0  0  0  0  0  0  0  0  0  0  0  0
    5.3131   -2.2212   -9.2011 C   0  0  0  0  0  0  0  0  0  0  0  0
    6.2112   -3.1251   -8.6426 C   0  0  0  0  0  0  0  0  0  0  0  0
    5.7749   -4.0417   -7.7068 C   0  0  0  0  0  0  0  0  0  0  0  0
    4.4450   -4.0816   -7.3042 C   0  0  0  0  0  0  0  0  0  0  0  0
    3.9833   -5.0551   -6.2648 C   0  0  0  0  0  0  0  0  0  0  0  0
    3.5534   -3.1818   -7.8768 C   0  0  0  0  0  0  0  0  0  0  0  0
    3.9746   -2.2644   -8.8178 C   0  0  0  0  0  0  0  0  0  0  0  0
    6.6956   -1.6905  -11.1184 C   0  0  0  0  0  0  0  0  0  0  0  0
    7.8026   -0.8945  -11.3958 C   0  0  0  0  0  0  0  0  0  0  0  0
    8.7252   -1.3099  -12.3346 C   0  0  0  0  0  0  0  0  0  0  0  0
    8.5803   -2.5216  -13.0015 C   0  0  0  0  0  0  0  0  0  0  0  0
    9.5707   -2.9497  -14.0390 C   0  0  0  0  0  0  0  0  0  0  0  0
    7.4827   -3.3174  -12.6965 C   0  0  0  0  0  0  0  0  0  0  0  0
    6.5461   -2.9120  -11.7658 C   0  0  0  0  0  0  0  0  0  0  0  0
    4.9555    0.6409   -8.8629 C   0  0  0  0  0  0  0  0  0  0  0  0
    4.9515    0.1457   -7.2058 S   0  0  0  0  0  0  0  0  0  0  0  0
    4.5223    1.7710   -6.7093 C   0  0  0  0  0  0  0  0  0  0  0  0
    4.2931    2.6247   -7.7796 C   0  0  0  0  0  0  0  0  0  0  0  0
    3.7711    3.9012   -7.6906 N   0  0  0  0  0  0  0  0  0  0  0  0
    4.2263    4.8817   -8.5910 C   0  0  0  0  0  0  0  0  0  0  0  0
    3.3358    5.7878   -9.1580 C   0  0  0  0  0  0  0  0  0  0  0  0
    3.7939    6.7540  -10.0318 C   0  0  0  0  0  0  0  0  0  0  0  0
    5.1388    6.8389  -10.3715 C   0  0  0  0  0  0  0  0  0  0  0  0
    5.6400    7.9065  -11.2925 C   0  0  0  0  0  0  0  0  0  0  0  0
    6.0173    5.9169   -9.8135 C   0  0  0  0  0  0  0  0  0  0  0  0
    5.5741    4.9502   -8.9336 C   0  0  0  0  0  0  0  0  0  0  0  0
    2.8034    4.2031   -6.7238 C   0  0  0  0  0  0  0  0  0  0  0  0
    1.9021    3.2328   -6.2903 C   0  0  0  0  0  0  0  0  0  0  0  0
    1.0403    3.4947   -5.2432 C   0  0  0  0  0  0  0  0  0  0  0  0
    1.0314    4.7304   -4.6116 C   0  0  0  0  0  0  0  0  0  0  0  0
    0.1705    4.9871   -3.4129 C   0  0  0  0  0  0  0  0  0  0  0  0
    1.8629    5.7246   -5.1148 C   0  0  0  0  0  0  0  0  0  0  0  0
    2.7320    5.4742   -6.1574 C   0  0  0  0  0  0  0  0  0  0  0  0
    4.5897    1.9731   -9.0002 C   0  0  0  0  0  0  0  0  0  0  0  0
    4.6479    2.4984  -10.6410 S   0  0  0  0  0  0  0  0  0  0  0  0
    4.3870    2.0987   -5.3224 C   0  0  0  0  0  0  0  0  0  0  0  0
    4.8806    3.2051   -4.6638 C   0  0  0  0  0  0  0  0  0  0  0  0
    5.8692    4.1518   -5.1978 C   0  0  0  0  0  0  0  0  0  0  0  0
    5.5911    5.5106   -5.0510 C   0  0  0  0  0  0  0  0  0  0  0  0
    6.4391    6.4759   -5.5524 C   0  0  0  0  0  0  0  0  0  0  0  0
    7.6095    6.0923   -6.1832 C   0  0  0  0  0  0  0  0  0  0  0  0
    7.9299    4.7515   -6.2637 C   0  0  0  0  0  0  0  0  0  0  0  0
    7.0815    3.7601   -5.7804 C   0  0  0  0  0  0  0  0  0  0  0  0
    7.5656    2.3339   -5.8225 C   0  0  0  0  0  0  0  0  0  0  0  0
    7.9517    1.8664   -7.2268 C   0  0  0  0  0  0  0  0  0  0  0  0
    4.3122    3.3135   -3.3747 C   0  0  0  0  0  0  0  0  0  0  0  0
    4.4430    4.5214   -2.1203 S   0  0  0  0  0  0  0  0  0  0  0  0
    3.3253    3.6144   -1.1570 C   0  0  0  0  0  0  0  0  0  0  0  0
    2.6379    3.7176    0.0651 C   0  0  0  0  0  0  0  0  0  0  0  0
    2.5683    4.7630    1.0108 C   0  0  0  0  0  0  0  0  0  0  0  0
    1.6601    4.6403    2.1166 C   0  0  0  0  0  0  0  0  0  0  0  0
    1.6538    5.7170    2.8871 N   0  0  0  0  0  0  0  0  0  0  0  0
    2.7013    6.7906    2.2774 S   0  0  0  0  0  0  0  0  0  0  0  0
    3.2038    5.9244    1.0047 N   0  0  0  0  0  0  0  0  0  0  0  0
    0.9559    3.4296    2.2916 C   0  0  0  0  0  0  0  0  0  0  0  0
    0.1338    2.9786    3.3400 C   0  0  0  0  0  0  0  0  0  0  0  0
   -0.5369    3.5471    4.8320 S   0  0  0  0  0  0  0  0  0  0  0  0
   -1.2016    1.9566    5.1256 C   0  0  0  0  0  0  0  0  0  0  0  0
   -1.9871    1.4028    6.1631 C   0  0  0  0  0  0  0  0  0  0  0  0
   -2.6152    2.1216    7.2829 C   0  0  0  0  0  0  0  0  0  0  0  0
   -1.9193    2.9368    8.1816 C   0  0  0  0  0  0  0  0  0  0  0  0
   -0.4293    3.1119    8.0877 C   0  0  0  0  0  0  0  0  0  0  0  0
    0.2607    3.2801    9.4405 C   0  0  0  0  0  0  0  0  0  0  0  0
   -2.6414    3.5865    9.1763 C   0  0  0  0  0  0  0  0  0  0  0  0
   -4.0092    3.4357    9.3006 C   0  0  0  0  0  0  0  0  0  0  0  0
   -4.6938    2.6230    8.4140 C   0  0  0  0  0  0  0  0  0  0  0  0
   -3.9971    1.9777    7.4126 C   0  0  0  0  0  0  0  0  0  0  0  0
   -2.2758    0.0802    5.9060 C   0  0  0  0  0  0  0  0  0  0  0  0
   -1.6240   -0.4906    4.3844 S   0  0  0  0  0  0  0  0  0  0  0  0
   -0.9252    1.0583    4.0944 C   0  0  0  0  0  0  0  0  0  0  0  0
   -0.1673    1.6452    3.0722 C   0  0  0  0  0  0  0  0  0  0  0  0
    0.3915    1.2588    1.8814 N   0  0  0  0  0  0  0  0  0  0  0  0
    1.0926    2.3462    1.3800 C   0  0  0  0  0  0  0  0  0  0  0  0
    1.8410    2.5451    0.1899 C   0  0  0  0  0  0  0  0  0  0  0  0
    1.9994    1.7886   -0.9572 N   0  0  0  0  0  0  0  0  0  0  0  0
    2.9000    2.4319   -1.7633 C   0  0  0  0  0  0  0  0  0  0  0  0
    3.4524    2.2679   -3.0397 C   0  0  0  0  0  0  0  0  0  0  0  0
    3.3266    1.1184   -4.3196 S   0  0  0  0  0  0  0  0  0  0  0  0
    1.1753    0.7395   -1.5096 C   0  0  0  0  0  0  0  0  0  0  0  0
    1.9102   -0.6001   -1.5632 C   0  0  0  0  0  0  0  0  0  0  0  0
    0.5988   -0.1562    1.6655 C   0  0  0  0  0  0  0  0  0  0  0  0
    1.8816   -0.6288    2.3460 C   0  0  0  0  0  0  0  0  0  0  0  0
   -2.9843   -0.8256    6.7689 C   0  0  0  0  0  0  0  0  0  0  0  0
   -2.6222   -1.1736    8.0549 C   0  0  0  0  0  0  0  0  0  0  0  0
   -1.4337   -0.8085    8.6688 N   0  0  0  0  0  0  0  0  0  0  0  0
   -0.2275   -0.8925    7.9635 C   0  0  0  0  0  0  0  0  0  0  0  0
    0.8462   -0.0674    8.2956 C   0  0  0  0  0  0  0  0  0  0  0  0
    2.0261   -0.1339    7.5848 C   0  0  0  0  0  0  0  0  0  0  0  0
    2.1827   -1.0213    6.5255 C   0  0  0  0  0  0  0  0  0  0  0  0
    3.4778   -1.0783    5.7727 C   0  0  0  0  0  0  0  0  0  0  0  0
    1.1184   -1.8543    6.2116 C   0  0  0  0  0  0  0  0  0  0  0  0
   -0.0677   -1.8005    6.9190 C   0  0  0  0  0  0  0  0  0  0  0  0
   -1.4763   -0.4661   10.0283 C   0  0  0  0  0  0  0  0  0  0  0  0
   -2.5459    0.2811   10.5148 C   0  0  0  0  0  0  0  0  0  0  0  0
   -2.6041    0.6235   11.8509 C   0  0  0  0  0  0  0  0  0  0  0  0
   -1.6047    0.2375   12.7348 C   0  0  0  0  0  0  0  0  0  0  0  0
   -1.6781    0.5963   14.1874 C   0  0  0  0  0  0  0  0  0  0  0  0
   -0.5451   -0.5160   12.2419 C   0  0  0  0  0  0  0  0  0  0  0  0
   -0.4779   -0.8718   10.9103 C   0  0  0  0  0  0  0  0  0  0  0  0
   -3.5870   -2.0308    8.6352 C   0  0  0  0  0  0  0  0  0  0  0  0
   -3.7532   -2.7431   10.1884 S   0  0  0  0  0  0  0  0  0  0  0  0
   -5.2023   -3.6131    9.6633 C   0  0  0  0  0  0  0  0  0  0  0  0
   -5.5783   -3.2630    8.3485 C   0  0  0  0  0  0  0  0  0  0  0  0
   -6.7274   -3.6288    7.6953 N   0  0  0  0  0  0  0  0  0  0  0  0
   -6.7667   -3.5197    6.2799 C   0  0  0  0  0  0  0  0  0  0  0  0
   -7.7743   -2.7809    5.6693 C   0  0  0  0  0  0  0  0  0  0  0  0
   -7.8299   -2.6922    4.2922 C   0  0  0  0  0  0  0  0  0  0  0  0
   -6.8894   -3.3321    3.4950 C   0  0  0  0  0  0  0  0  0  0  0  0
   -6.9380   -3.2308    2.0024 C   0  0  0  0  0  0  0  0  0  0  0  0
   -5.8842   -4.0647    4.1162 C   0  0  0  0  0  0  0  0  0  0  0  0
   -5.8162   -4.1609    5.4916 C   0  0  0  0  0  0  0  0  0  0  0  0
   -7.9515   -3.8650    8.3412 C   0  0  0  0  0  0  0  0  0  0  0  0
   -8.2811   -3.2581    9.5506 C   0  0  0  0  0  0  0  0  0  0  0  0
   -9.4842   -3.5410   10.1662 C   0  0  0  0  0  0  0  0  0  0  0  0
  -10.4016   -4.4133    9.5919 C   0  0  0  0  0  0  0  0  0  0  0  0
  -11.6959   -4.7258   10.2745 C   0  0  0  0  0  0  0  0  0  0  0  0
  -10.0910   -4.9711    8.3573 C   0  0  0  0  0  0  0  0  0  0  0  0
   -8.8841   -4.7123    7.7413 C   0  0  0  0  0  0  0  0  0  0  0  0
   -4.6264   -2.3812    7.7849 C   0  0  0  0  0  0  0  0  0  0  0  0
   -4.4533   -1.6222    6.2369 S   0  0  0  0  0  0  0  0  0  0  0  0
   -5.7510   -4.4814   10.6133 C   0  0  0  0  0  0  0  0  0  0  0  0
   -6.6374   -5.5234   10.4733 C   0  0  0  0  0  0  0  0  0  0  0  0
   -7.4841   -5.9161   11.6209 C   0  0  0  0  0  0  0  0  0  0  0  0
   -7.3972   -5.5272   12.7658 O   0  0  0  0  0  0  0  0  0  0  0  0
   -8.5040   -6.8253   11.0552 C   0  0  0  0  0  0  0  0  0  0  0  0
   -9.5929   -7.3781   11.6610 C   0  0  0  0  0  0  0  0  0  0  0  0
  -10.4556   -8.2055   10.9062 C   0  0  0  0  0  0  0  0  0  0  0  0
  -11.6087   -8.7818   11.4757 C   0  0  0  0  0  0  0  0  0  0  0  0
  -12.4409   -9.5753   10.7352 C   0  0  0  0  0  0  0  0  0  0  0  0
  -12.1285   -9.8133    9.3907 C   0  0  0  0  0  0  0  0  0  0  0  0
  -12.9602  -10.5952    8.6747 F   0  0  0  0  0  0  0  0  0  0  0  0
  -11.0219   -9.2812    8.7898 C   0  0  0  0  0  0  0  0  0  0  0  0
  -10.1551   -8.4606    9.5372 C   0  0  0  0  0  0  0  0  0  0  0  0
   -9.0086   -7.8855    8.9406 C   0  0  0  0  0  0  0  0  0  0  0  0
   -8.2060   -7.0669    9.6851 C   0  0  0  0  0  0  0  0  0  0  0  0
   -6.9962   -6.3244    9.3411 C   0  0  0  0  0  0  0  0  0  0  0  0
   -6.2193   -6.5243    8.2196 C   0  0  0  0  0  0  0  0  0  0  0  0
   -4.9033   -6.0491    8.1146 C   0  0  0  0  0  0  0  0  0  0  0  0
   -3.8108   -5.7077    8.0048 N   0  0  0  0  0  0  0  0  0  0  0  0
   -6.6258   -7.2692    7.1003 C   0  0  0  0  0  0  0  0  0  0  0  0
   -6.9263   -7.8192    6.1367 N   0  0  0  0  0  0  0  0  0  0  0  0
    5.2658   -0.4654  -12.7787 H   0  0  0  0  0  0  0  0  0  0  0  0
    4.2934    1.5562  -17.6305 H   0  0  0  0  0  0  0  0  0  0  0  0
    5.7077    5.4831  -14.9113 H   0  0  0  0  0  0  0  0  0  0  0  0
    7.2482   -3.0990   -8.9420 H   0  0  0  0  0  0  0  0  0  0  0  0
    6.4826   -4.7349   -7.2764 H   0  0  0  0  0  0  0  0  0  0  0  0
    3.9991   -4.5820   -5.2824 H   0  0  0  0  0  0  0  0  0  0  0  0
    4.6327   -5.9262   -6.2308 H   0  0  0  0  0  0  0  0  0  0  0  0
    2.9644   -5.3801   -6.4632 H   0  0  0  0  0  0  0  0  0  0  0  0
    2.5130   -3.2047   -7.5873 H   0  0  0  0  0  0  0  0  0  0  0  0
    3.2680   -1.5832   -9.2695 H   0  0  0  0  0  0  0  0  0  0  0  0
    7.9348    0.0464  -10.8826 H   0  0  0  0  0  0  0  0  0  0  0  0
    9.5792   -0.6829  -12.5446 H   0  0  0  0  0  0  0  0  0  0  0  0
   10.5502   -2.5205  -13.8424 H   0  0  0  0  0  0  0  0  0  0  0  0
    9.6572   -4.0333  -14.0711 H   0  0  0  0  0  0  0  0  0  0  0  0
    9.2441   -2.6093  -15.0222 H   0  0  0  0  0  0  0  0  0  0  0  0
    7.3537   -4.2642  -13.1998 H   0  0  0  0  0  0  0  0  0  0  0  0
    5.6920   -3.5342  -11.5414 H   0  0  0  0  0  0  0  0  0  0  0  0
    2.2861    5.7303   -8.9091 H   0  0  0  0  0  0  0  0  0  0  0  0
    3.0904    7.4528  -10.4614 H   0  0  0  0  0  0  0  0  0  0  0  0
    4.8243    8.3465  -11.8610 H   0  0  0  0  0  0  0  0  0  0  0  0
    6.1215    8.6978  -10.7173 H   0  0  0  0  0  0  0  0  0  0  0  0
    6.3785    7.5009  -11.9814 H   0  0  0  0  0  0  0  0  0  0  0  0
    7.0664    5.9615  -10.0663 H   0  0  0  0  0  0  0  0  0  0  0  0
    6.2752    4.2554   -8.4966 H   0  0  0  0  0  0  0  0  0  0  0  0
    1.8851    2.2638   -6.7680 H   0  0  0  0  0  0  0  0  0  0  0  0
    0.3671    2.7171   -4.9095 H   0  0  0  0  0  0  0  0  0  0  0  0
    0.7803    4.9742   -2.5078 H   0  0  0  0  0  0  0  0  0  0  0  0
   -0.3041    5.9640   -3.4781 H   0  0  0  0  0  0  0  0  0  0  0  0
   -0.6010    4.2267   -3.3150 H   0  0  0  0  0  0  0  0  0  0  0  0
    1.8453    6.7073   -4.6659 H   0  0  0  0  0  0  0  0  0  0  0  0
    3.3794    6.2549   -6.5258 H   0  0  0  0  0  0  0  0  0  0  0  0
    4.6869    5.8034   -4.5414 H   0  0  0  0  0  0  0  0  0  0  0  0
    6.1916    7.5210   -5.4436 H   0  0  0  0  0  0  0  0  0  0  0  0
    8.2823    6.8344   -6.5859 H   0  0  0  0  0  0  0  0  0  0  0  0
    8.8712    4.4612   -6.7060 H   0  0  0  0  0  0  0  0  0  0  0  0
    6.8138    1.6635   -5.4071 H   0  0  0  0  0  0  0  0  0  0  0  0
    8.4496    2.2634   -5.1802 H   0  0  0  0  0  0  0  0  0  0  0  0
    7.1505    2.0508   -7.9372 H   0  0  0  0  0  0  0  0  0  0  0  0
    8.1641    0.7996   -7.2190 H   0  0  0  0  0  0  0  0  0  0  0  0
    8.8360    2.3840   -7.5873 H   0  0  0  0  0  0  0  0  0  0  0  0
   -0.0049    2.2489    7.5710 H   0  0  0  0  0  0  0  0  0  0  0  0
   -0.2179    3.9928    7.4738 H   0  0  0  0  0  0  0  0  0  0  0  0
    0.0769    4.2656    9.8605 H   0  0  0  0  0  0  0  0  0  0  0  0
    1.3361    3.1688    9.3201 H   0  0  0  0  0  0  0  0  0  0  0  0
   -0.0927    2.5340   10.1508 H   0  0  0  0  0  0  0  0  0  0  0  0
   -2.1238    4.2269    9.8723 H   0  0  0  0  0  0  0  0  0  0  0  0
   -4.5399    3.9532   10.0861 H   0  0  0  0  0  0  0  0  0  0  0  0
   -5.7634    2.4970    8.4961 H   0  0  0  0  0  0  0  0  0  0  0  0
   -4.5307    1.3635    6.7015 H   0  0  0  0  0  0  0  0  0  0  0  0
    0.9148    1.0318   -2.5335 H   0  0  0  0  0  0  0  0  0  0  0  0
    0.2462    0.6823   -0.9405 H   0  0  0  0  0  0  0  0  0  0  0  0
    2.7212   -0.5467   -2.2845 H   0  0  0  0  0  0  0  0  0  0  0  0
    2.3354   -0.8606   -0.5975 H   0  0  0  0  0  0  0  0  0  0  0  0
    1.2268   -1.3856   -1.8745 H   0  0  0  0  0  0  0  0  0  0  0  0
   -0.2601   -0.6708    2.1050 H   0  0  0  0  0  0  0  0  0  0  0  0
    0.6268   -0.3924    0.6082 H   0  0  0  0  0  0  0  0  0  0  0  0
    2.7432   -0.0983    1.9448 H   0  0  0  0  0  0  0  0  0  0  0  0
    2.0163   -1.6949    2.1839 H   0  0  0  0  0  0  0  0  0  0  0  0
    1.8261   -0.4426    3.4155 H   0  0  0  0  0  0  0  0  0  0  0  0
    0.7536    0.6178    9.1218 H   0  0  0  0  0  0  0  0  0  0  0  0
    2.8440    0.5187    7.8556 H   0  0  0  0  0  0  0  0  0  0  0  0
    3.4450   -1.8363    4.9941 H   0  0  0  0  0  0  0  0  0  0  0  0
    3.6983   -0.1141    5.3145 H   0  0  0  0  0  0  0  0  0  0  0  0
    4.2973   -1.3148    6.4505 H   0  0  0  0  0  0  0  0  0  0  0  0
    1.2150   -2.5682    5.4059 H   0  0  0  0  0  0  0  0  0  0  0  0
   -0.8687   -2.4794    6.6670 H   0  0  0  0  0  0  0  0  0  0  0  0
   -3.3233    0.6022    9.8376 H   0  0  0  0  0  0  0  0  0  0  0  0
   -3.4384    1.2091   12.2090 H   0  0  0  0  0  0  0  0  0  0  0  0
   -2.1530   -0.2109   14.7461 H   0  0  0  0  0  0  0  0  0  0  0  0
   -0.6836    0.7492   14.6003 H   0  0  0  0  0  0  0  0  0  0  0  0
   -2.2656    1.4994   14.3353 H   0  0  0  0  0  0  0  0  0  0  0  0
    0.2369   -0.8372   12.9148 H   0  0  0  0  0  0  0  0  0  0  0  0
    0.3443   -1.4709   10.5482 H   0  0  0  0  0  0  0  0  0  0  0  0
   -8.5108   -2.2777    6.2787 H   0  0  0  0  0  0  0  0  0  0  0  0
   -8.6168   -2.1125    3.8321 H   0  0  0  0  0  0  0  0  0  0  0  0
   -6.1142   -2.6138    1.6441 H   0  0  0  0  0  0  0  0  0  0  0  0
   -6.8378   -4.2153    1.5497 H   0  0  0  0  0  0  0  0  0  0  0  0
   -7.8718   -2.7842    1.6711 H   0  0  0  0  0  0  0  0  0  0  0  0
   -5.1453   -4.5729    3.5151 H   0  0  0  0  0  0  0  0  0  0  0  0
   -5.0279   -4.7330    5.9550 H   0  0  0  0  0  0  0  0  0  0  0  0
   -7.5970   -2.5608   10.0095 H   0  0  0  0  0  0  0  0  0  0  0  0
   -9.7116   -3.0757   11.1137 H   0  0  0  0  0  0  0  0  0  0  0  0
  -11.5695   -4.7247   11.3545 H   0  0  0  0  0  0  0  0  0  0  0  0
  -12.4445   -3.9742   10.0219 H   0  0  0  0  0  0  0  0  0  0  0  0
  -12.0722   -5.6976    9.9630 H   0  0  0  0  0  0  0  0  0  0  0  0
  -10.7954   -5.6365    7.8804 H   0  0  0  0  0  0  0  0  0  0  0  0
   -8.6499   -5.1798    6.7961 H   0  0  0  0  0  0  0  0  0  0  0  0
   -5.4746   -4.2658   11.6418 H   0  0  0  0  0  0  0  0  0  0  0  0
   -9.7986   -7.1862   12.7034 H   0  0  0  0  0  0  0  0  0  0  0  0
  -11.8278   -8.5842   12.5143 H   0  0  0  0  0  0  0  0  0  0  0  0
  -13.3274  -10.0225   11.1562 H   0  0  0  0  0  0  0  0  0  0  0  0
  -10.8113   -9.4879    7.7520 H   0  0  0  0  0  0  0  0  0  0  0  0
   -8.8061   -8.0901    7.9010 H   0  0  0  0  0  0  0  0  0  0  0  0
  1  2  2  0  0  0  0
  2  3  1  0  0  0  0
  3  4  2  0  0  0  0
  3  5  1  0  0  0  0
  5  6  2  0  0  0  0
  6  7  1  0  0  0  0
  7  8  1  0  0  0  0
  7  9  2  0  0  0  0
  9 10  1  0  0  0  0
  9 11  1  0  0  0  0
 11 12  2  0  0  0  0
 12 13  1  0  0  0  0
 13 14  2  0  0  0  0
 14 15  1  0  0  0  0
 15 16  3  0  0  0  0
 14 17  1  0  0  0  0
 17 18  3  0  0  0  0
  1 19  1  0  0  0  0
 19 20  2  0  0  0  0
 20 21  1  0  0  0  0
 21 22  1  0  0  0  0
 22 23  2  0  0  0  0
 23 24  1  0  0  0  0
 24 25  2  0  0  0  0
 25 26  1  0  0  0  0
 25 27  1  0  0  0  0
 27 28  2  0  0  0  0
 21 29  1  0  0  0  0
 29 30  2  0  0  0  0
 30 31  1  0  0  0  0
 31 32  2  0  0  0  0
 32 33  1  0  0  0  0
 32 34  1  0  0  0  0
 34 35  2  0  0  0  0
 20 36  1  0  0  0  0
 36 37  1  0  0  0  0
 37 38  1  0  0  0  0
 38 39  2  0  0  0  0
 39 40  1  0  0  0  0
 40 41  1  0  0  0  0
 41 42  2  0  0  0  0
 42 43  1  0  0  0  0
 43 44  2  0  0  0  0
 44 45  1  0  0  0  0
 44 46  1  0  0  0  0
 46 47  2  0  0  0  0
 40 48  1  0  0  0  0
 48 49  2  0  0  0  0
 49 50  1  0  0  0  0
 50 51  2  0  0  0  0
 51 52  1  0  0  0  0
 51 53  1  0  0  0  0
 53 54  2  0  0  0  0
 39 55  1  0  0  0  0
 55 56  1  0  0  0  0
 38 57  1  0  0  0  0
 57 58  2  0  0  0  0
 58 59  1  0  0  0  0
 59 60  2  0  0  0  0
 60 61  1  0  0  0  0
 61 62  2  0  0  0  0
 62 63  1  0  0  0  0
 63 64  2  0  0  0  0
 64 65  1  0  0  0  0
 65 66  1  0  0  0  0
 58 67  1  0  0  0  0
 67 68  1  0  0  0  0
 68 69  1  0  0  0  0
 69 70  1  0  0  0  0
 70 71  1  0  0  0  0
 71 72  1  0  0  0  0
 72 73  2  0  0  0  0
 73 74  1  0  0  0  0
 74 75  1  0  0  0  0
 72 76  1  0  0  0  0
 76 77  1  0  0  0  0
 77 78  1  0  0  0  0
 78 79  1  0  0  0  0
 79 80  1  0  0  0  0
 80 81  1  0  0  0  0
 81 82  2  0  0  0  0
 82 83  1  0  0  0  0
 83 84  1  0  0  0  0
 82 85  1  0  0  0  0
 85 86  2  0  0  0  0
 86 87  1  0  0  0  0
 87 88  2  0  0  0  0
 80 89  2  0  0  0  0
 89 90  1  0  0  0  0
 90 91  1  0  0  0  0
 91 92  1  0  0  0  0
 92 93  1  0  0  0  0
 93 94  1  0  0  0  0
 94 95  1  0  0  0  0
 95 96  1  0  0  0  0
 96 97  1  0  0  0  0
 97 98  1  0  0  0  0
 98 99  1  0  0  0  0
 96100  1  0  0  0  0
100101  1  0  0  0  0
 93102  1  0  0  0  0
102103  1  0  0  0  0
 89104  1  0  0  0  0
104105  2  0  0  0  0
105106  1  0  0  0  0
106107  1  0  0  0  0
107108  2  0  0  0  0
108109  1  0  0  0  0
109110  2  0  0  0  0
110111  1  0  0  0  0
110112  1  0  0  0  0
112113  2  0  0  0  0
106114  1  0  0  0  0
114115  2  0  0  0  0
115116  1  0  0  0  0
116117  2  0  0  0  0
117118  1  0  0  0  0
117119  1  0  0  0  0
119120  2  0  0  0  0
105121  1  0  0  0  0
121122  1  0  0  0  0
122123  1  0  0  0  0
123124  2  0  0  0  0
124125  1  0  0  0  0
125126  1  0  0  0  0
126127  2  0  0  0  0
127128  1  0  0  0  0
128129  2  0  0  0  0
129130  1  0  0  0  0
129131  1  0  0  0  0
131132  2  0  0  0  0
125133  1  0  0  0  0
133134  2  0  0  0  0
134135  1  0  0  0  0
135136  2  0  0  0  0
136137  1  0  0  0  0
136138  1  0  0  0  0
138139  2  0  0  0  0
124140  1  0  0  0  0
140141  1  0  0  0  0
123142  1  0  0  0  0
142143  2  0  0  0  0
143144  1  0  0  0  0
144145  2  0  0  0  0
144146  1  0  0  0  0
146147  2  0  0  0  0
147148  1  0  0  0  0
148149  2  0  0  0  0
149150  1  0  0  0  0
150151  2  0  0  0  0
151152  1  0  0  0  0
151153  1  0  0  0  0
153154  2  0  0  0  0
154155  1  0  0  0  0
155156  2  0  0  0  0
156157  1  0  0  0  0
157158  2  0  0  0  0
158159  1  0  0  0  0
159160  3  0  0  0  0
158161  1  0  0  0  0
161162  3  0  0  0  0
 13  2  1  0  0  0  0
 56 19  1  0  0  0  0
 99 57  1  0  0  0  0
141104  1  0  0  0  0
157143  1  0  0  0  0
 12  5  1  0  0  0  0
 28 22  1  0  0  0  0
 35 29  1  0  0  0  0
 55 36  2  0  0  0  0
 64 59  1  0  0  0  0
 98 67  2  0  0  0  0
113107  1  0  0  0  0
120114  1  0  0  0  0
140121  2  0  0  0  0
156146  1  0  0  0  0
 47 41  1  0  0  0  0
 54 48  1  0  0  0  0
 97 69  2  0  0  0  0
132126  1  0  0  0  0
139133  1  0  0  0  0
154148  1  0  0  0  0
 95 70  2  0  0  0  0
 75 71  2  0  0  0  0
 94 76  2  0  0  0  0
 92 77  2  0  0  0  0
 91 79  2  0  0  0  0
 88 81  1  0  0  0  0
  1163  1  0  0  0  0
  6164  1  0  0  0  0
 11165  1  0  0  0  0
 23166  1  0  0  0  0
 24167  1  0  0  0  0
 26168  1  0  0  0  0
 26169  1  0  0  0  0
 26170  1  0  0  0  0
 27171  1  0  0  0  0
 28172  1  0  0  0  0
 30173  1  0  0  0  0
 31174  1  0  0  0  0
 33175  1  0  0  0  0
 33176  1  0  0  0  0
 33177  1  0  0  0  0
 34178  1  0  0  0  0
 35179  1  0  0  0  0
 42180  1  0  0  0  0
 43181  1  0  0  0  0
 45182  1  0  0  0  0
 45183  1  0  0  0  0
 45184  1  0  0  0  0
 46185  1  0  0  0  0
 47186  1  0  0  0  0
 49187  1  0  0  0  0
 50188  1  0  0  0  0
 52189  1  0  0  0  0
 52190  1  0  0  0  0
 52191  1  0  0  0  0
 53192  1  0  0  0  0
 54193  1  0  0  0  0
 60194  1  0  0  0  0
 61195  1  0  0  0  0
 62196  1  0  0  0  0
 63197  1  0  0  0  0
 65198  1  0  0  0  0
 65199  1  0  0  0  0
 66200  1  0  0  0  0
 66201  1  0  0  0  0
 66202  1  0  0  0  0
 83203  1  0  0  0  0
 83204  1  0  0  0  0
 84205  1  0  0  0  0
 84206  1  0  0  0  0
 84207  1  0  0  0  0
 85208  1  0  0  0  0
 86209  1  0  0  0  0
 87210  1  0  0  0  0
 88211  1  0  0  0  0
100212  1  0  0  0  0
100213  1  0  0  0  0
101214  1  0  0  0  0
101215  1  0  0  0  0
101216  1  0  0  0  0
102217  1  0  0  0  0
102218  1  0  0  0  0
103219  1  0  0  0  0
103220  1  0  0  0  0
103221  1  0  0  0  0
108222  1  0  0  0  0
109223  1  0  0  0  0
111224  1  0  0  0  0
111225  1  0  0  0  0
111226  1  0  0  0  0
112227  1  0  0  0  0
113228  1  0  0  0  0
115229  1  0  0  0  0
116230  1  0  0  0  0
118231  1  0  0  0  0
118232  1  0  0  0  0
118233  1  0  0  0  0
119234  1  0  0  0  0
120235  1  0  0  0  0
127236  1  0  0  0  0
128237  1  0  0  0  0
130238  1  0  0  0  0
130239  1  0  0  0  0
130240  1  0  0  0  0
131241  1  0  0  0  0
132242  1  0  0  0  0
134243  1  0  0  0  0
135244  1  0  0  0  0
137245  1  0  0  0  0
137246  1  0  0  0  0
137247  1  0  0  0  0
138248  1  0  0  0  0
139249  1  0  0  0  0
142250  1  0  0  0  0
147251  1  0  0  0  0
149252  1  0  0  0  0
150253  1  0  0  0  0
153254  1  0  0  0  0
155255  1  0  0  0  0
M  END
