
  xtb     02062217153D
 energy: -419.676794934417 gnorm: 0.000445848381 xtb: 6.4.1 (unknown)
249274  0     0  0            999 V2000
  -10.9920    6.7595   -3.2154 C   0  0  0  0  0  0  0  0  0  0  0  0
  -11.1759    7.9195   -2.4829 C   0  0  0  0  0  0  0  0  0  0  0  0
  -10.4874    8.2821   -1.2487 C   0  0  0  0  0  0  0  0  0  0  0  0
   -9.5853    7.6916   -0.6799 O   0  0  0  0  0  0  0  0  0  0  0  0
  -11.1210    9.5386   -0.7857 C   0  0  0  0  0  0  0  0  0  0  0  0
  -10.8292   10.2837    0.3368 C   0  0  0  0  0  0  0  0  0  0  0  0
  -11.5679   11.4384    0.5697 C   0  0  0  0  0  0  0  0  0  0  0  0
  -11.2542   12.4162    1.9519 Cl  0  0  0  0  0  0  0  0  0  0  0  0
  -12.5701   11.8020   -0.3292 C   0  0  0  0  0  0  0  0  0  0  0  0
  -13.2799   12.9153   -0.0982 F   0  0  0  0  0  0  0  0  0  0  0  0
  -12.8663   11.0567   -1.4615 C   0  0  0  0  0  0  0  0  0  0  0  0
  -12.1293    9.9070   -1.6915 C   0  0  0  0  0  0  0  0  0  0  0  0
  -12.1649    8.9242   -2.7762 C   0  0  0  0  0  0  0  0  0  0  0  0
  -12.9919    8.9959   -3.8738 C   0  0  0  0  0  0  0  0  0  0  0  0
  -12.9481    8.1455   -4.9940 C   0  0  0  0  0  0  0  0  0  0  0  0
  -12.9606    7.5265   -5.9634 N   0  0  0  0  0  0  0  0  0  0  0  0
  -13.9936    9.9718   -4.0419 C   0  0  0  0  0  0  0  0  0  0  0  0
  -14.8412   10.7233   -4.2326 N   0  0  0  0  0  0  0  0  0  0  0  0
  -10.0871    5.7224   -3.0527 C   0  0  0  0  0  0  0  0  0  0  0  0
  -10.0450    4.5849   -3.9114 C   0  0  0  0  0  0  0  0  0  0  0  0
  -11.0183    4.2138   -4.7907 N   0  0  0  0  0  0  0  0  0  0  0  0
  -12.3902    4.4490   -4.5673 C   0  0  0  0  0  0  0  0  0  0  0  0
  -12.9309    4.3986   -3.2850 C   0  0  0  0  0  0  0  0  0  0  0  0
  -14.2765    4.6403   -3.0943 C   0  0  0  0  0  0  0  0  0  0  0  0
  -15.1168    4.9148   -4.1675 C   0  0  0  0  0  0  0  0  0  0  0  0
  -16.5696    5.2099   -3.9590 C   0  0  0  0  0  0  0  0  0  0  0  0
  -14.5733    4.9233   -5.4466 C   0  0  0  0  0  0  0  0  0  0  0  0
  -13.2266    4.6984   -5.6517 C   0  0  0  0  0  0  0  0  0  0  0  0
  -10.6697    3.3613   -5.8622 C   0  0  0  0  0  0  0  0  0  0  0  0
   -9.6207    3.7019   -6.7112 C   0  0  0  0  0  0  0  0  0  0  0  0
   -9.2662    2.8542   -7.7407 C   0  0  0  0  0  0  0  0  0  0  0  0
   -9.9430    1.6575   -7.9503 C   0  0  0  0  0  0  0  0  0  0  0  0
   -9.5397    0.7523   -9.0715 C   0  0  0  0  0  0  0  0  0  0  0  0
  -10.9992    1.3376   -7.1073 C   0  0  0  0  0  0  0  0  0  0  0  0
  -11.3650    2.1763   -6.0730 C   0  0  0  0  0  0  0  0  0  0  0  0
   -8.8677    3.8511   -3.7020 C   0  0  0  0  0  0  0  0  0  0  0  0
   -8.2016    2.4152   -4.4136 S   0  0  0  0  0  0  0  0  0  0  0  0
   -6.8909    2.4197   -3.2390 C   0  0  0  0  0  0  0  0  0  0  0  0
   -7.0041    3.4668   -2.3259 C   0  0  0  0  0  0  0  0  0  0  0  0
   -6.1940    3.6806   -1.2215 N   0  0  0  0  0  0  0  0  0  0  0  0
   -5.8065    2.6362   -0.3796 C   0  0  0  0  0  0  0  0  0  0  0  0
   -4.6314    2.7432    0.3635 C   0  0  0  0  0  0  0  0  0  0  0  0
   -4.2087    1.6948    1.1557 C   0  0  0  0  0  0  0  0  0  0  0  0
   -4.9281    0.5091    1.2246 C   0  0  0  0  0  0  0  0  0  0  0  0
   -4.4568   -0.6455    2.0559 C   0  0  0  0  0  0  0  0  0  0  0  0
   -6.1089    0.4151    0.4957 C   0  0  0  0  0  0  0  0  0  0  0  0
   -6.5511    1.4607   -0.2871 C   0  0  0  0  0  0  0  0  0  0  0  0
   -5.9802    5.0200   -0.8400 C   0  0  0  0  0  0  0  0  0  0  0  0
   -6.1532    5.4287    0.4781 C   0  0  0  0  0  0  0  0  0  0  0  0
   -5.9936    6.7575    0.8142 C   0  0  0  0  0  0  0  0  0  0  0  0
   -5.6661    7.7077   -0.1454 C   0  0  0  0  0  0  0  0  0  0  0  0
   -5.5553    9.1560    0.2173 C   0  0  0  0  0  0  0  0  0  0  0  0
   -5.4790    7.2869   -1.4558 C   0  0  0  0  0  0  0  0  0  0  0  0
   -5.6287    5.9596   -1.8042 C   0  0  0  0  0  0  0  0  0  0  0  0
   -8.1062    4.2983   -2.6294 C   0  0  0  0  0  0  0  0  0  0  0  0
   -8.7601    5.7114   -1.8816 S   0  0  0  0  0  0  0  0  0  0  0  0
   -5.8508    1.4566   -3.3451 C   0  0  0  0  0  0  0  0  0  0  0  0
   -5.8630    0.2359   -4.0021 C   0  0  0  0  0  0  0  0  0  0  0  0
   -7.0290   -0.3715   -4.6491 C   0  0  0  0  0  0  0  0  0  0  0  0
   -6.9223   -0.8415   -5.9539 C   0  0  0  0  0  0  0  0  0  0  0  0
   -8.0201   -1.4064   -6.5743 C   0  0  0  0  0  0  0  0  0  0  0  0
   -9.2270   -1.5014   -5.9058 C   0  0  0  0  0  0  0  0  0  0  0  0
   -9.3479   -1.0514   -4.5973 C   0  0  0  0  0  0  0  0  0  0  0  0
  -10.6430   -1.1970   -3.8514 C   0  0  0  0  0  0  0  0  0  0  0  0
  -10.6882   -2.5337   -3.1088 C   0  0  0  0  0  0  0  0  0  0  0  0
   -8.2380   -0.5041   -3.9739 C   0  0  0  0  0  0  0  0  0  0  0  0
   -4.6043   -0.3903   -3.9490 C   0  0  0  0  0  0  0  0  0  0  0  0
   -4.0357   -1.9496   -4.5001 S   0  0  0  0  0  0  0  0  0  0  0  0
   -2.5037   -1.6259   -3.7573 C   0  0  0  0  0  0  0  0  0  0  0  0
   -1.2827   -2.2721   -3.5063 C   0  0  0  0  0  0  0  0  0  0  0  0
   -0.8584   -3.5867   -3.7959 C   0  0  0  0  0  0  0  0  0  0  0  0
    0.3925   -4.0433   -3.2629 C   0  0  0  0  0  0  0  0  0  0  0  0
    0.6366   -5.3108   -3.5577 N   0  0  0  0  0  0  0  0  0  0  0  0
   -0.5978   -5.8778   -4.4396 S   0  0  0  0  0  0  0  0  0  0  0  0
   -1.4945   -4.5297   -4.4733 N   0  0  0  0  0  0  0  0  0  0  0  0
    1.2032   -3.1340   -2.5509 C   0  0  0  0  0  0  0  0  0  0  0  0
    2.4734   -3.2905   -1.9711 C   0  0  0  0  0  0  0  0  0  0  0  0
    3.6365   -4.5360   -1.6675 S   0  0  0  0  0  0  0  0  0  0  0  0
    4.6293   -3.3751   -0.8243 C   0  0  0  0  0  0  0  0  0  0  0  0
    5.8320   -3.4867   -0.0943 C   0  0  0  0  0  0  0  0  0  0  0  0
    6.6865   -4.6692   -0.0056 C   0  0  0  0  0  0  0  0  0  0  0  0
    6.1536   -5.9534    0.0533 C   0  0  0  0  0  0  0  0  0  0  0  0
    6.9959   -7.0441    0.1579 C   0  0  0  0  0  0  0  0  0  0  0  0
    8.3695   -6.8739    0.1829 C   0  0  0  0  0  0  0  0  0  0  0  0
    8.9216   -5.6030    0.0818 C   0  0  0  0  0  0  0  0  0  0  0  0
   10.4092   -5.3859    0.0966 C   0  0  0  0  0  0  0  0  0  0  0  0
   10.8844   -4.8978    1.4666 C   0  0  0  0  0  0  0  0  0  0  0  0
    8.0707   -4.5128   -0.0098 C   0  0  0  0  0  0  0  0  0  0  0  0
    6.1638   -2.2871    0.5025 C   0  0  0  0  0  0  0  0  0  0  0  0
    5.0715   -0.9833    0.0690 S   0  0  0  0  0  0  0  0  0  0  0  0
    4.0858   -2.0909   -0.8167 C   0  0  0  0  0  0  0  0  0  0  0  0
    2.8482   -2.0437   -1.4720 C   0  0  0  0  0  0  0  0  0  0  0  0
    1.8581   -1.1260   -1.7002 N   0  0  0  0  0  0  0  0  0  0  0  0
    0.8190   -1.7781   -2.3494 C   0  0  0  0  0  0  0  0  0  0  0  0
   -0.4829   -1.3714   -2.7464 C   0  0  0  0  0  0  0  0  0  0  0  0
   -1.2168   -0.2140   -2.5359 N   0  0  0  0  0  0  0  0  0  0  0  0
   -2.4360   -0.3781   -3.1356 C   0  0  0  0  0  0  0  0  0  0  0  0
   -3.6368    0.3322   -3.2493 C   0  0  0  0  0  0  0  0  0  0  0  0
   -4.2579    1.8437   -2.7003 S   0  0  0  0  0  0  0  0  0  0  0  0
   -1.0498    0.8299   -1.5504 C   0  0  0  0  0  0  0  0  0  0  0  0
   -1.0238    0.2618   -0.1340 C   0  0  0  0  0  0  0  0  0  0  0  0
    2.1707    0.2836   -1.6243 C   0  0  0  0  0  0  0  0  0  0  0  0
    2.1995    0.9268   -3.0085 C   0  0  0  0  0  0  0  0  0  0  0  0
    7.1145   -2.1383    1.5655 C   0  0  0  0  0  0  0  0  0  0  0  0
    7.1272   -2.9149    2.7167 C   0  0  0  0  0  0  0  0  0  0  0  0
    6.1738   -3.8518    3.0618 N   0  0  0  0  0  0  0  0  0  0  0  0
    6.5611   -4.9561    3.8429 C   0  0  0  0  0  0  0  0  0  0  0  0
    5.7750   -5.3760    4.9107 C   0  0  0  0  0  0  0  0  0  0  0  0
    6.1823   -6.4399    5.6903 C   0  0  0  0  0  0  0  0  0  0  0  0
    7.3740   -7.1058    5.4323 C   0  0  0  0  0  0  0  0  0  0  0  0
    7.8374   -8.2276    6.3093 C   0  0  0  0  0  0  0  0  0  0  0  0
    8.1426   -6.6888    4.3528 C   0  0  0  0  0  0  0  0  0  0  0  0
    7.7446   -5.6303    3.5622 C   0  0  0  0  0  0  0  0  0  0  0  0
    4.8261   -3.6947    2.7114 C   0  0  0  0  0  0  0  0  0  0  0  0
    4.0659   -4.8067    2.3533 C   0  0  0  0  0  0  0  0  0  0  0  0
    2.7556   -4.6547    1.9514 C   0  0  0  0  0  0  0  0  0  0  0  0
    2.1577   -3.3995    1.9052 C   0  0  0  0  0  0  0  0  0  0  0  0
    0.7467   -3.2477    1.4242 C   0  0  0  0  0  0  0  0  0  0  0  0
    2.9046   -2.3030    2.3118 C   0  0  0  0  0  0  0  0  0  0  0  0
    4.2191   -2.4422    2.7164 C   0  0  0  0  0  0  0  0  0  0  0  0
    8.2341   -2.5854    3.5361 C   0  0  0  0  0  0  0  0  0  0  0  0
    8.7692   -3.1439    5.0785 S   0  0  0  0  0  0  0  0  0  0  0  0
   10.0944   -1.9735    5.0500 C   0  0  0  0  0  0  0  0  0  0  0  0
   10.0462   -1.1445    3.8948 C   0  0  0  0  0  0  0  0  0  0  0  0
   10.8822   -0.0949    3.6289 N   0  0  0  0  0  0  0  0  0  0  0  0
   11.1994    0.1808    2.2836 C   0  0  0  0  0  0  0  0  0  0  0  0
   11.5601   -0.8620    1.4336 C   0  0  0  0  0  0  0  0  0  0  0  0
   11.8668   -0.6036    0.1144 C   0  0  0  0  0  0  0  0  0  0  0  0
   11.8329    0.6931   -0.3888 C   0  0  0  0  0  0  0  0  0  0  0  0
   12.1701    0.9530   -1.8242 C   0  0  0  0  0  0  0  0  0  0  0  0
   11.4834    1.7268    0.4706 C   0  0  0  0  0  0  0  0  0  0  0  0
   11.1664    1.4809    1.7927 C   0  0  0  0  0  0  0  0  0  0  0  0
   11.3332    0.7869    4.6279 C   0  0  0  0  0  0  0  0  0  0  0  0
   10.5156    1.1126    5.7078 C   0  0  0  0  0  0  0  0  0  0  0  0
   10.9728    1.9726    6.6854 C   0  0  0  0  0  0  0  0  0  0  0  0
   12.2382    2.5435    6.6059 C   0  0  0  0  0  0  0  0  0  0  0  0
   12.7463    3.4552    7.6793 C   0  0  0  0  0  0  0  0  0  0  0  0
   13.0330    2.2366    5.5079 C   0  0  0  0  0  0  0  0  0  0  0  0
   12.5961    1.3657    4.5296 C   0  0  0  0  0  0  0  0  0  0  0  0
    9.0068   -1.5422    3.0395 C   0  0  0  0  0  0  0  0  0  0  0  0
    8.3925   -0.9358    1.5325 S   0  0  0  0  0  0  0  0  0  0  0  0
   11.1297   -1.9225    5.9744 C   0  0  0  0  0  0  0  0  0  0  0  0
   11.3190   -2.6146    7.1553 C   0  0  0  0  0  0  0  0  0  0  0  0
   10.3731   -3.5349    7.7821 C   0  0  0  0  0  0  0  0  0  0  0  0
    9.3169   -3.9521    7.3415 O   0  0  0  0  0  0  0  0  0  0  0  0
   10.9490   -3.8663    9.1061 C   0  0  0  0  0  0  0  0  0  0  0  0
   10.4290   -4.6825   10.0880 C   0  0  0  0  0  0  0  0  0  0  0  0
   11.1536   -4.8400   11.2641 C   0  0  0  0  0  0  0  0  0  0  0  0
   10.5609   -5.8426   12.5319 Cl  0  0  0  0  0  0  0  0  0  0  0  0
   12.3716   -4.1763   11.4114 C   0  0  0  0  0  0  0  0  0  0  0  0
   13.0649   -4.3321   12.5475 F   0  0  0  0  0  0  0  0  0  0  0  0
   12.9007   -3.3560   10.4256 C   0  0  0  0  0  0  0  0  0  0  0  0
   12.1756   -3.1980    9.2562 C   0  0  0  0  0  0  0  0  0  0  0  0
   12.4461   -2.4367    8.0362 C   0  0  0  0  0  0  0  0  0  0  0  0
   13.5922   -1.7148    7.7965 C   0  0  0  0  0  0  0  0  0  0  0  0
   14.6098   -1.5136    8.7496 C   0  0  0  0  0  0  0  0  0  0  0  0
   15.4636   -1.2903    9.4846 N   0  0  0  0  0  0  0  0  0  0  0  0
   13.9366   -1.1075    6.5748 C   0  0  0  0  0  0  0  0  0  0  0  0
   14.3153   -0.6194    5.6047 N   0  0  0  0  0  0  0  0  0  0  0  0
  -11.6573    6.6358   -4.0600 H   0  0  0  0  0  0  0  0  0  0  0  0
  -10.0488    9.9764    1.0144 H   0  0  0  0  0  0  0  0  0  0  0  0
  -13.6530   11.3951   -2.1156 H   0  0  0  0  0  0  0  0  0  0  0  0
  -12.2939    4.1780   -2.4410 H   0  0  0  0  0  0  0  0  0  0  0  0
  -14.6813    4.6071   -2.0931 H   0  0  0  0  0  0  0  0  0  0  0  0
  -17.1814    4.6451   -4.6597 H   0  0  0  0  0  0  0  0  0  0  0  0
  -16.8775    4.9662   -2.9454 H   0  0  0  0  0  0  0  0  0  0  0  0
  -16.7613    6.2692   -4.1313 H   0  0  0  0  0  0  0  0  0  0  0  0
  -15.2093    5.1296   -6.2939 H   0  0  0  0  0  0  0  0  0  0  0  0
  -12.8138    4.7282   -6.6477 H   0  0  0  0  0  0  0  0  0  0  0  0
   -9.0935    4.6320   -6.5579 H   0  0  0  0  0  0  0  0  0  0  0  0
   -8.4508    3.1248   -8.3952 H   0  0  0  0  0  0  0  0  0  0  0  0
  -10.0925   -0.1823   -9.0360 H   0  0  0  0  0  0  0  0  0  0  0  0
   -9.7304    1.2319  -10.0313 H   0  0  0  0  0  0  0  0  0  0  0  0
   -8.4751    0.5334   -9.0138 H   0  0  0  0  0  0  0  0  0  0  0  0
  -11.5417    0.4162   -7.2578 H   0  0  0  0  0  0  0  0  0  0  0  0
  -12.1824    1.9149   -5.4173 H   0  0  0  0  0  0  0  0  0  0  0  0
   -4.0472    3.6490    0.3011 H   0  0  0  0  0  0  0  0  0  0  0  0
   -3.2948    1.7985    1.7229 H   0  0  0  0  0  0  0  0  0  0  0  0
   -3.5482   -0.3921    2.5966 H   0  0  0  0  0  0  0  0  0  0  0  0
   -5.2209   -0.9327    2.7769 H   0  0  0  0  0  0  0  0  0  0  0  0
   -4.2569   -1.5124    1.4256 H   0  0  0  0  0  0  0  0  0  0  0  0
   -6.6933   -0.4925    0.5477 H   0  0  0  0  0  0  0  0  0  0  0  0
   -7.4786    1.3713   -0.8331 H   0  0  0  0  0  0  0  0  0  0  0  0
   -6.4297    4.7039    1.2295 H   0  0  0  0  0  0  0  0  0  0  0  0
   -6.1452    7.0657    1.8383 H   0  0  0  0  0  0  0  0  0  0  0  0
   -6.5296    9.6329    0.1060 H   0  0  0  0  0  0  0  0  0  0  0  0
   -5.2363    9.2771    1.2500 H   0  0  0  0  0  0  0  0  0  0  0  0
   -4.8522    9.6699   -0.4343 H   0  0  0  0  0  0  0  0  0  0  0  0
   -5.2162    8.0088   -2.2158 H   0  0  0  0  0  0  0  0  0  0  0  0
   -5.4836    5.6418   -2.8269 H   0  0  0  0  0  0  0  0  0  0  0  0
   -5.9831   -0.7513   -6.4788 H   0  0  0  0  0  0  0  0  0  0  0  0
   -7.9332   -1.7744   -7.5859 H   0  0  0  0  0  0  0  0  0  0  0  0
  -10.0836   -1.9370   -6.3995 H   0  0  0  0  0  0  0  0  0  0  0  0
  -10.7486   -0.3803   -3.1341 H   0  0  0  0  0  0  0  0  0  0  0  0
  -11.4788   -1.1444   -4.5517 H   0  0  0  0  0  0  0  0  0  0  0  0
  -11.6239   -2.6366   -2.5641 H   0  0  0  0  0  0  0  0  0  0  0  0
   -9.8644   -2.6013   -2.4017 H   0  0  0  0  0  0  0  0  0  0  0  0
  -10.6019   -3.3594   -3.8114 H   0  0  0  0  0  0  0  0  0  0  0  0
   -8.3097   -0.1735   -2.9470 H   0  0  0  0  0  0  0  0  0  0  0  0
    5.0843   -6.0915    0.0246 H   0  0  0  0  0  0  0  0  0  0  0  0
    6.5776   -8.0380    0.2172 H   0  0  0  0  0  0  0  0  0  0  0  0
    9.0179   -7.7343    0.2655 H   0  0  0  0  0  0  0  0  0  0  0  0
   10.9230   -6.3157   -0.1535 H   0  0  0  0  0  0  0  0  0  0  0  0
   10.6710   -4.6385   -0.6563 H   0  0  0  0  0  0  0  0  0  0  0  0
   10.6972   -5.6514    2.2285 H   0  0  0  0  0  0  0  0  0  0  0  0
   10.3572   -3.9879    1.7487 H   0  0  0  0  0  0  0  0  0  0  0  0
   11.9521   -4.6895    1.4459 H   0  0  0  0  0  0  0  0  0  0  0  0
    8.4930   -3.5231   -0.1111 H   0  0  0  0  0  0  0  0  0  0  0  0
   -0.1596    1.4217   -1.7653 H   0  0  0  0  0  0  0  0  0  0  0  0
   -1.9109    1.4952   -1.6517 H   0  0  0  0  0  0  0  0  0  0  0  0
   -0.2332   -0.4765   -0.0228 H   0  0  0  0  0  0  0  0  0  0  0  0
   -1.9747   -0.2170    0.0872 H   0  0  0  0  0  0  0  0  0  0  0  0
   -0.8646    1.0632    0.5825 H   0  0  0  0  0  0  0  0  0  0  0  0
    3.1634    0.3550   -1.1729 H   0  0  0  0  0  0  0  0  0  0  0  0
    1.4792    0.7993   -0.9572 H   0  0  0  0  0  0  0  0  0  0  0  0
    2.4271    1.9859   -2.9212 H   0  0  0  0  0  0  0  0  0  0  0  0
    2.9664    0.4566   -3.6198 H   0  0  0  0  0  0  0  0  0  0  0  0
    1.2446    0.8116   -3.5159 H   0  0  0  0  0  0  0  0  0  0  0  0
    4.8522   -4.8589    5.1295 H   0  0  0  0  0  0  0  0  0  0  0  0
    5.5684   -6.7498    6.5237 H   0  0  0  0  0  0  0  0  0  0  0  0
    7.0054   -8.6691    6.8522 H   0  0  0  0  0  0  0  0  0  0  0  0
    8.3290   -9.0016    5.7236 H   0  0  0  0  0  0  0  0  0  0  0  0
    8.5565   -7.8497    7.0367 H   0  0  0  0  0  0  0  0  0  0  0  0
    9.0662   -7.2024    4.1270 H   0  0  0  0  0  0  0  0  0  0  0  0
    8.3397   -5.3211    2.7178 H   0  0  0  0  0  0  0  0  0  0  0  0
    4.5199   -5.7854    2.3857 H   0  0  0  0  0  0  0  0  0  0  0  0
    2.1864   -5.5235    1.6543 H   0  0  0  0  0  0  0  0  0  0  0  0
    0.1029   -3.9970    1.8809 H   0  0  0  0  0  0  0  0  0  0  0  0
    0.3581   -2.2604    1.6638 H   0  0  0  0  0  0  0  0  0  0  0  0
    0.6994   -3.3866    0.3433 H   0  0  0  0  0  0  0  0  0  0  0  0
    2.4561   -1.3193    2.3117 H   0  0  0  0  0  0  0  0  0  0  0  0
    4.7807   -1.5766    3.0370 H   0  0  0  0  0  0  0  0  0  0  0  0
   11.6083   -1.8693    1.8200 H   0  0  0  0  0  0  0  0  0  0  0  0
   12.1469   -1.4191   -0.5364 H   0  0  0  0  0  0  0  0  0  0  0  0
   12.1369    2.0161   -2.0470 H   0  0  0  0  0  0  0  0  0  0  0  0
   13.1670    0.5793   -2.0537 H   0  0  0  0  0  0  0  0  0  0  0  0
   11.4651    0.4389   -2.4765 H   0  0  0  0  0  0  0  0  0  0  0  0
   11.4516    2.7411    0.1005 H   0  0  0  0  0  0  0  0  0  0  0  0
   10.8880    2.2924    2.4485 H   0  0  0  0  0  0  0  0  0  0  0  0
    9.5261    0.6851    5.7790 H   0  0  0  0  0  0  0  0  0  0  0  0
   10.3301    2.2112    7.5206 H   0  0  0  0  0  0  0  0  0  0  0  0
   11.9418    3.7688    8.3397 H   0  0  0  0  0  0  0  0  0  0  0  0
   13.2120    4.3379    7.2456 H   0  0  0  0  0  0  0  0  0  0  0  0
   13.5006    2.9422    8.2763 H   0  0  0  0  0  0  0  0  0  0  0  0
   14.0181    2.6700    5.4260 H   0  0  0  0  0  0  0  0  0  0  0  0
   13.2335    1.1210    3.6950 H   0  0  0  0  0  0  0  0  0  0  0  0
   11.9070   -1.2118    5.7247 H   0  0  0  0  0  0  0  0  0  0  0  0
    9.4848   -5.1833    9.9448 H   0  0  0  0  0  0  0  0  0  0  0  0
   13.8475   -2.8730   10.6034 H   0  0  0  0  0  0  0  0  0  0  0  0
  1  2  2  0  0  0  0
  2  3  1  0  0  0  0
  3  4  2  0  0  0  0
  3  5  1  0  0  0  0
  5  6  2  0  0  0  0
  6  7  1  0  0  0  0
  7  8  1  0  0  0  0
  7  9  2  0  0  0  0
  9 10  1  0  0  0  0
  9 11  1  0  0  0  0
 11 12  2  0  0  0  0
 12 13  1  0  0  0  0
 13 14  2  0  0  0  0
 14 15  1  0  0  0  0
 15 16  3  0  0  0  0
 14 17  1  0  0  0  0
 17 18  3  0  0  0  0
  1 19  1  0  0  0  0
 19 20  2  0  0  0  0
 20 21  1  0  0  0  0
 21 22  1  0  0  0  0
 22 23  2  0  0  0  0
 23 24  1  0  0  0  0
 24 25  2  0  0  0  0
 25 26  1  0  0  0  0
 25 27  1  0  0  0  0
 27 28  2  0  0  0  0
 21 29  1  0  0  0  0
 29 30  2  0  0  0  0
 30 31  1  0  0  0  0
 31 32  2  0  0  0  0
 32 33  1  0  0  0  0
 32 34  1  0  0  0  0
 34 35  2  0  0  0  0
 20 36  1  0  0  0  0
 36 37  1  0  0  0  0
 37 38  1  0  0  0  0
 38 39  2  0  0  0  0
 39 40  1  0  0  0  0
 40 41  1  0  0  0  0
 41 42  2  0  0  0  0
 42 43  1  0  0  0  0
 43 44  2  0  0  0  0
 44 45  1  0  0  0  0
 44 46  1  0  0  0  0
 46 47  2  0  0  0  0
 40 48  1  0  0  0  0
 48 49  2  0  0  0  0
 49 50  1  0  0  0  0
 50 51  2  0  0  0  0
 51 52  1  0  0  0  0
 51 53  1  0  0  0  0
 53 54  2  0  0  0  0
 39 55  1  0  0  0  0
 55 56  1  0  0  0  0
 38 57  1  0  0  0  0
 57 58  2  0  0  0  0
 58 59  1  0  0  0  0
 59 60  2  0  0  0  0
 60 61  1  0  0  0  0
 61 62  2  0  0  0  0
 62 63  1  0  0  0  0
 63 64  1  0  0  0  0
 64 65  1  0  0  0  0
 63 66  2  0  0  0  0
 58 67  1  0  0  0  0
 67 68  1  0  0  0  0
 68 69  1  0  0  0  0
 69 70  1  0  0  0  0
 70 71  1  0  0  0  0
 71 72  1  0  0  0  0
 72 73  2  0  0  0  0
 73 74  1  0  0  0  0
 74 75  1  0  0  0  0
 72 76  1  0  0  0  0
 76 77  1  0  0  0  0
 77 78  1  0  0  0  0
 78 79  1  0  0  0  0
 79 80  1  0  0  0  0
 80 81  1  0  0  0  0
 81 82  2  0  0  0  0
 82 83  1  0  0  0  0
 83 84  2  0  0  0  0
 84 85  1  0  0  0  0
 85 86  1  0  0  0  0
 86 87  1  0  0  0  0
 85 88  2  0  0  0  0
 80 89  2  0  0  0  0
 89 90  1  0  0  0  0
 90 91  1  0  0  0  0
 91 92  1  0  0  0  0
 92 93  1  0  0  0  0
 93 94  1  0  0  0  0
 94 95  1  0  0  0  0
 95 96  1  0  0  0  0
 96 97  1  0  0  0  0
 97 98  1  0  0  0  0
 98 99  1  0  0  0  0
 96100  1  0  0  0  0
100101  1  0  0  0  0
 93102  1  0  0  0  0
102103  1  0  0  0  0
 89104  1  0  0  0  0
104105  2  0  0  0  0
105106  1  0  0  0  0
106107  1  0  0  0  0
107108  2  0  0  0  0
108109  1  0  0  0  0
109110  2  0  0  0  0
110111  1  0  0  0  0
110112  1  0  0  0  0
112113  2  0  0  0  0
106114  1  0  0  0  0
114115  2  0  0  0  0
115116  1  0  0  0  0
116117  2  0  0  0  0
117118  1  0  0  0  0
117119  1  0  0  0  0
119120  2  0  0  0  0
105121  1  0  0  0  0
121122  1  0  0  0  0
122123  1  0  0  0  0
123124  2  0  0  0  0
124125  1  0  0  0  0
125126  1  0  0  0  0
126127  2  0  0  0  0
127128  1  0  0  0  0
128129  2  0  0  0  0
129130  1  0  0  0  0
129131  1  0  0  0  0
131132  2  0  0  0  0
125133  1  0  0  0  0
133134  2  0  0  0  0
134135  1  0  0  0  0
135136  2  0  0  0  0
136137  1  0  0  0  0
136138  1  0  0  0  0
138139  2  0  0  0  0
124140  1  0  0  0  0
140141  1  0  0  0  0
123142  1  0  0  0  0
142143  2  0  0  0  0
143144  1  0  0  0  0
144145  2  0  0  0  0
144146  1  0  0  0  0
146147  2  0  0  0  0
147148  1  0  0  0  0
148149  1  0  0  0  0
148150  2  0  0  0  0
150151  1  0  0  0  0
150152  1  0  0  0  0
152153  2  0  0  0  0
153154  1  0  0  0  0
154155  2  0  0  0  0
155156  1  0  0  0  0
156157  3  0  0  0  0
155158  1  0  0  0  0
158159  3  0  0  0  0
 13  2  1  0  0  0  0
 56 19  1  0  0  0  0
 99 57  1  0  0  0  0
141104  1  0  0  0  0
154143  1  0  0  0  0
 12  5  1  0  0  0  0
 28 22  1  0  0  0  0
 35 29  1  0  0  0  0
 55 36  2  0  0  0  0
 66 59  1  0  0  0  0
 98 67  2  0  0  0  0
113107  1  0  0  0  0
120114  1  0  0  0  0
140121  2  0  0  0  0
153146  1  0  0  0  0
 47 41  1  0  0  0  0
 54 48  1  0  0  0  0
 97 69  2  0  0  0  0
132126  1  0  0  0  0
139133  1  0  0  0  0
 95 70  2  0  0  0  0
 75 71  2  0  0  0  0
 94 76  2  0  0  0  0
 92 77  2  0  0  0  0
 91 79  2  0  0  0  0
 88 81  1  0  0  0  0
  1160  1  0  0  0  0
  6161  1  0  0  0  0
 11162  1  0  0  0  0
 23163  1  0  0  0  0
 24164  1  0  0  0  0
 26165  1  0  0  0  0
 26166  1  0  0  0  0
 26167  1  0  0  0  0
 27168  1  0  0  0  0
 28169  1  0  0  0  0
 30170  1  0  0  0  0
 31171  1  0  0  0  0
 33172  1  0  0  0  0
 33173  1  0  0  0  0
 33174  1  0  0  0  0
 34175  1  0  0  0  0
 35176  1  0  0  0  0
 42177  1  0  0  0  0
 43178  1  0  0  0  0
 45179  1  0  0  0  0
 45180  1  0  0  0  0
 45181  1  0  0  0  0
 46182  1  0  0  0  0
 47183  1  0  0  0  0
 49184  1  0  0  0  0
 50185  1  0  0  0  0
 52186  1  0  0  0  0
 52187  1  0  0  0  0
 52188  1  0  0  0  0
 53189  1  0  0  0  0
 54190  1  0  0  0  0
 60191  1  0  0  0  0
 61192  1  0  0  0  0
 62193  1  0  0  0  0
 64194  1  0  0  0  0
 64195  1  0  0  0  0
 65196  1  0  0  0  0
 65197  1  0  0  0  0
 65198  1  0  0  0  0
 66199  1  0  0  0  0
 82200  1  0  0  0  0
 83201  1  0  0  0  0
 84202  1  0  0  0  0
 86203  1  0  0  0  0
 86204  1  0  0  0  0
 87205  1  0  0  0  0
 87206  1  0  0  0  0
 87207  1  0  0  0  0
 88208  1  0  0  0  0
100209  1  0  0  0  0
100210  1  0  0  0  0
101211  1  0  0  0  0
101212  1  0  0  0  0
101213  1  0  0  0  0
102214  1  0  0  0  0
102215  1  0  0  0  0
103216  1  0  0  0  0
103217  1  0  0  0  0
103218  1  0  0  0  0
108219  1  0  0  0  0
109220  1  0  0  0  0
111221  1  0  0  0  0
111222  1  0  0  0  0
111223  1  0  0  0  0
112224  1  0  0  0  0
113225  1  0  0  0  0
115226  1  0  0  0  0
116227  1  0  0  0  0
118228  1  0  0  0  0
118229  1  0  0  0  0
118230  1  0  0  0  0
119231  1  0  0  0  0
120232  1  0  0  0  0
127233  1  0  0  0  0
128234  1  0  0  0  0
130235  1  0  0  0  0
130236  1  0  0  0  0
130237  1  0  0  0  0
131238  1  0  0  0  0
132239  1  0  0  0  0
134240  1  0  0  0  0
135241  1  0  0  0  0
137242  1  0  0  0  0
137243  1  0  0  0  0
137244  1  0  0  0  0
138245  1  0  0  0  0
139246  1  0  0  0  0
142247  1  0  0  0  0
147248  1  0  0  0  0
152249  1  0  0  0  0
M  END
