159

C          2.47090      -11.24040       -2.91140
C          1.49720      -12.13280       -3.29930
C          0.19760      -11.78020       -3.87260
O         -0.26890      -10.66970       -4.05270
C         -0.46840      -13.06200       -4.18850
C         -1.70380      -13.26480       -4.76720
C         -2.12600      -14.57290       -4.97400
Cl        -3.65430      -14.89900       -5.69340
C         -1.29560      -15.62750       -4.59110
F         -1.70770      -16.88520       -4.79310
C         -0.05350      -15.42900       -4.00650
C          0.36620      -14.12440       -3.80280
C          1.59250      -13.57460       -3.22370
C          2.61650      -14.32200       -2.69750
C          3.79190      -13.81280       -2.10860
N          4.77130      -13.48360       -1.60580
C          2.62450      -15.73190       -2.65770
N          2.69790      -16.87590       -2.59660
C          2.48800       -9.84410       -2.97120
C          3.59590       -9.09280       -2.57610
C          3.43070       -7.72800       -2.71910
S          4.68410       -6.54720       -2.32890
C          5.03150       -7.00500       -0.59020
C          3.81880       -6.80450        0.29520
C          2.18540       -7.38200       -3.26010
S          1.21900       -8.79290       -3.56200
C          1.66560       -6.08460       -3.47060
C          0.51940       -5.73750       -4.18120
C         -0.24050       -6.64220       -5.04730
C         -1.61610       -6.76510       -4.89140
C         -2.32480       -7.62420       -5.71040
C         -1.67240       -8.35560       -6.68520
C         -0.30080       -8.22640       -6.86970
C          0.41640       -9.05650       -7.89470
C          0.83660      -10.39350       -7.28080
C          0.40400       -7.36150       -6.04980
C          0.19420       -4.38670       -4.00430
S         -1.10680       -3.39110       -4.61810
C         -0.45850       -2.04810       -3.73880
C         -0.74570       -0.69440       -3.49530
C         -1.72320        0.17770       -4.02360
C         -1.72770        1.55360       -3.60760
N         -2.66180        2.26290       -4.22090
S         -3.46960        1.28700       -5.22940
N         -2.65920       -0.08060       -4.92290
C         -0.84550        1.96190       -2.58250
C         -0.78430        3.13960       -1.81910
S         -1.56970        4.67830       -1.72000
C         -0.67160        5.02430       -0.26200
C         -0.70260        6.10930        0.65410
C         -1.54090        7.29750        0.47650
C         -2.12200        7.95700        1.55730
C         -2.89670        9.08230        1.34760
C         -3.10540        9.56170        0.06650
C         -2.54480        8.91190       -1.02570
C         -2.72910        9.44340       -2.41800
C         -1.57460       10.37570       -2.79050
C         -1.76510        7.78690       -0.80840
C          0.17710        5.89970        1.68650
S          1.01600        4.36550        1.57720
C          0.19450        3.99720        0.10050
C          0.14160        2.91940       -0.79740
N          0.68250        1.66770       -0.91890
C          0.09870        1.06220       -2.01730
C          0.24000       -0.22930       -2.58120
N          1.14050       -1.25140       -2.33250
C          0.70380       -2.35540       -3.02280
C          1.08440       -3.68930       -3.17910
S          2.36680       -4.70320       -2.62640
C          2.54620       -1.13670       -2.00750
C          3.41350       -1.18870       -3.26530
C          1.41230        1.07830        0.18100
C          2.83690        1.62350        0.28490
C          0.38020        6.66570        2.92400
C          1.29430        7.66850        3.14690
O          2.24560        8.13650        2.31780
C          2.17220        8.03320        0.90660
C          1.32190        9.15320        0.32010
C          1.36470        8.32480        4.44050
O          2.21090        9.36550        4.40160
C          2.62880       10.05610        5.56010
C          3.76010        9.32890        6.27810
C          0.54930        7.94290        5.48880
C         -0.38450        6.87760        5.26680
C         -0.45180        6.24610        4.00300
N         -1.31990        5.24400        3.78750
C         -2.09970        4.87750        4.77170
C         -2.03360        5.49880        6.02600
N         -1.18960        6.47260        6.25940
C          0.55500        8.47900        6.84040
C         -0.59820        8.77730        7.48330
C         -1.93350        8.81090        6.82320
O         -2.18470        9.00040        5.65530
C         -2.90430        8.70210        7.93700
C         -4.27300        8.53980        7.86990
C         -4.98870        8.46510        9.05880
Cl        -6.69410        8.24770        9.04600
C         -4.30900        8.56780       10.27620
F         -5.00550        8.49170       11.41610
C         -2.93730        8.74400       10.35240
C         -2.22500        8.80950        9.16370
C         -0.79790        8.97250        8.90980
C          0.15680        9.28260        9.83800
C          1.51010        9.52660        9.52430
N          2.61660        9.75670        9.32230
C         -0.10110        9.45090       11.21560
N         -0.25120        9.59690       12.34340
H          3.38220      -11.66080       -2.50410
H         -2.32310      -12.42810       -5.04860
H          0.53590      -16.28920       -3.73470
H          4.49520       -9.55250       -2.20530
H          5.84830       -6.34460       -0.30190
H          5.38100       -8.03600       -0.57120
H          3.47040       -5.77590        0.23330
H          3.00780       -7.46350       -0.00980
H          4.07500       -7.02780        1.32890
H         -2.12060       -6.20390       -4.11920
H         -3.39230       -7.72560       -5.58270
H         -2.23120       -9.03190       -7.31600
H         -0.23760       -9.24180       -8.74910
H          1.30330       -8.52780       -8.24960
H          1.34900      -11.00970       -8.01640
H          1.50320      -10.22770       -6.43710
H         -0.03580      -10.93200       -6.91810
H          1.47030       -7.24120       -6.18570
H         -1.98750        7.58750        2.55990
H         -3.33850        9.58430        2.19530
H         -3.71260       10.44190       -0.08840
H         -3.67030        9.99230       -2.48280
H         -2.76610        8.61430       -3.12720
H         -1.71330       10.77110       -3.79390
H         -1.52010       11.20860       -2.09270
H         -0.62870        9.83950       -2.75650
H         -1.31180        7.29190       -1.65440
H          2.72240       -0.19140       -1.50740
H          2.81450       -1.96170       -1.33970
H          4.45630       -1.05050       -2.99310
H          3.12280       -0.39930       -3.95540
H          3.31540       -2.14620       -3.76870
H          1.39960       -0.00680        0.07460
H          0.87930        1.32740        1.10600
H          3.37010        1.54160       -0.65980
H          2.81470        2.67280        0.56560
H          3.38490        1.07550        1.04610
H          3.21050        8.13540        0.57820
H          1.79800        7.05540        0.59590
H          1.74300       10.11780        0.59130
H          0.30520        9.09750        0.70050
H          1.29640        9.06680       -0.76220
H          2.98160       11.02220        5.18870
H          1.77680       10.22890        6.23030
H          3.49170        8.29210        6.46980
H          3.97040        9.81740        7.22470
H          4.65520        9.33600        5.66190
H         -2.79390        4.07460        4.56740
H         -2.67120        5.20480        6.84840
H          1.47990        8.44230        7.39940
H         -4.77180        8.46810        6.91650
H         -2.47230        8.81640       11.32230
