166

C        -11.14770        3.96090        0.90900
C        -12.07450        4.92570        0.63960
C        -13.43300        4.52950        0.18840
O        -13.79110        3.43310       -0.17190
C        -14.25610        5.75410        0.32740
C        -15.61550        5.90350        0.14390
C        -16.17650        7.15750        0.35740
Cl       -17.86430        7.41090        0.14750
C        -15.35630        8.21920        0.74740
F        -15.90630        9.41940        0.96360
C        -13.98820        8.08030        0.92320
C        -13.43310        6.82940        0.70870
C        -12.04870        6.36500        0.77070
C        -10.94320        7.17230        0.68940
C         -9.64090        6.69160        0.45060
N         -8.57130        6.35670        0.20190
C        -10.99040        8.58040        0.73660
N        -10.97150        9.72670        0.78860
C         -9.98360        4.05990        1.70000
C         -9.66320        4.96280        2.69520
C         -8.42420        4.73900        3.29840
S         -7.85360        5.85210        4.54390
C         -6.22360        6.35690        3.88570
C         -6.34990        7.13790        2.59400
C         -7.76030        3.63070        2.78040
S         -8.70710        2.88500        1.52710
C         -6.47260        3.09190        3.06650
C         -5.78620        3.00410        4.26730
C         -6.34430        3.31240        5.58250
C         -5.57310        3.97080        6.53610
C         -6.10800        4.24850        7.77920
C         -7.40210        3.86690        8.08370
C         -8.18130        3.19650        7.14830
C         -9.56700        2.73520        7.49520
C         -9.52230        1.34850        8.14000
C         -7.64060        2.92020        5.90360
C         -4.49350        2.47520        4.07500
S         -3.18010        2.14260        5.17900
C         -2.25030        1.54100        3.85000
C         -0.96440        1.04340        3.59320
C          0.15710        0.91310        4.44050
C          1.40730        0.50380        3.87230
N          2.38540        0.47890        4.76430
S          1.78160        0.92800        6.19800
N          0.24980        1.17360        5.73520
C          1.44920        0.14450        2.50790
C          2.49640       -0.36810        1.72890
S          4.17930       -0.73960        1.87440
C          4.17220       -1.31000        0.22090
C          5.20080       -1.78710       -0.61860
C          6.59030       -1.74860       -0.16850
C          7.57890       -1.16200       -0.95230
C          8.84000       -0.96070       -0.42550
C          9.12420       -1.32720        0.87810
C          8.15080       -1.91910        1.67220
C          8.39930       -2.21460        3.12240
C          7.88900       -1.05510        3.98180
C          6.89420       -2.13720        1.13200
C          4.71260       -2.09630       -1.87930
S          2.98480       -1.75580       -2.02450
C          2.91930       -1.21450       -0.38800
C          1.96110       -0.66650        0.47390
N          0.63540       -0.32800        0.43490
C          0.29380        0.18920        1.67520
C         -0.90210        0.74870        2.20070
N         -2.11820        1.09380        1.63200
C         -2.92280        1.58040        2.62640
C         -4.20840        2.12190        2.75360
S         -5.54390        2.45710        1.71130
C         -2.46920        1.33480        0.25040
C         -1.57460        2.40010       -0.37850
C         -0.20050       -0.85730       -0.61990
C         -1.13190       -1.94950       -0.10040
C          5.30920       -2.67150       -3.03560
C          6.41220       -3.52190       -3.18250
C          7.32370       -4.03660       -2.14350
C          8.69220       -3.75830       -2.23390
C          9.56080       -4.33190       -1.31800
C          9.11700       -5.20210       -0.33700
C         10.08830       -5.84880        0.60850
C         10.32860       -4.97110        1.83570
C          7.75760       -5.45950       -0.25660
C          6.85390       -4.89220       -1.14150
C          5.41380       -5.32200       -1.07040
C          5.14610       -6.46020       -2.05750
C          9.27880       -2.86940       -3.29930
C         10.13320       -3.65830       -4.29370
C          6.56220       -3.91720       -4.50560
C          5.62210       -3.40320       -5.39900
S          4.49470       -2.38400       -4.54650
C          5.65030       -3.69780       -6.76510
C          4.81150       -3.29390       -7.77770
C          3.63110       -2.44430       -7.61470
O          3.20460       -1.94150       -6.59060
C          3.03660       -2.31160       -8.96240
C          1.90520       -1.61650       -9.33560
C          1.53310       -1.63570      -10.67470
Cl         0.13270       -0.79130      -11.20920
C          2.30870       -2.35010      -11.58950
F          1.94470       -2.36530      -12.87780
C          3.44740       -3.05020      -11.21990
C          3.81630       -3.03030       -9.88450
C          4.93680       -3.64900       -9.17540
C          5.91530       -4.41020       -9.76310
C          7.01140       -5.00080       -9.10070
N          7.93210       -5.51200       -8.64100
C          5.96340       -4.70620      -11.14160
N          6.06230       -4.98440      -12.25090
H        -11.38130        2.97590        0.51710
H        -16.22520        5.06710       -0.15860
H        -13.40850        8.93700        1.22720
H        -10.31140        5.76100        3.00990
H         -5.61160        5.46490        3.76640
H         -5.80590        6.97000        4.68390
H         -6.96170        8.02460        2.74400
H         -6.81020        6.53510        1.81330
H         -5.36370        7.44910        2.25560
H         -4.56860        4.28380        6.29410
H         -5.51170        4.76960        8.51340
H         -7.81510        4.09220        9.05620
H        -10.18030        2.69560        6.59270
H        -10.02670        3.44120        8.18930
H        -10.52540        1.01430        8.39410
H         -9.07820        0.62770        7.45700
H         -8.92340        1.37250        9.04760
H         -8.23090        2.38740        5.17110
H          7.34310       -0.83270       -1.95310
H          9.60150       -0.48500       -1.02600
H         10.10570       -1.13700        1.28810
H          9.46610       -2.35540        3.30270
H          7.87500       -3.12760        3.41130
H          8.40740       -0.13530        3.72060
H          8.05740       -1.26150        5.03600
H          6.82390       -0.90390        3.82140
H          6.13420       -2.61050        1.73600
H         -3.50300        1.68910        0.25010
H         -2.45070        0.40510       -0.31870
H         -1.69350        3.34310        0.14990
H         -0.52640        2.11480       -0.32990
H         -1.85190        2.54970       -1.41840
H          0.47520       -1.28500       -1.36470
H         -0.75340       -0.05790       -1.11340
H         -1.77450       -1.57600        0.69350
H         -0.54810       -2.77610        0.29780
H         -1.75250       -2.32310       -0.91040
H         10.61590       -4.10820       -1.38690
H         11.03770       -6.01640        0.09550
H          9.70000       -6.81750        0.92960
H          9.39960       -4.82840        2.38070
H         11.05600       -5.43350        2.49900
H         10.70040       -3.99540        1.53210
H          7.39200       -6.13990        0.50000
H          5.19360       -5.66800       -0.05840
H          4.74320       -4.49310       -1.29160
H          5.32900       -6.13050       -3.07780
H          4.11350       -6.79340       -1.98170
H          5.80050       -7.30350       -1.84840
H          8.49190       -2.34090       -3.83800
H          9.91470       -2.12310       -2.81790
H         10.53300       -2.99250       -5.05520
H         10.96500       -4.14070       -3.78690
H          9.54960       -4.43040       -4.78820
H          7.33000       -4.59890       -4.82720
H          6.47250       -4.34650       -7.04150
H          1.32690       -1.07360       -8.60530
H          3.99950       -3.58080      -11.97810
