122

C         10.56290        3.39190       -3.30650
C         11.84720        2.94680       -3.16540
C         12.18450        1.96380       -2.11150
O         11.41100        1.29480       -1.46780
C         13.66200        2.03460       -1.97740
C         14.47980        1.44100       -1.03160
Cl        13.86030        0.33320        0.10870
C         15.84130        1.77950       -1.02450
Cl        16.89400        1.04950        0.10800
C         16.33090        2.73830       -1.91070
Cl        17.97400        3.20410       -1.81890
C         15.49640        3.33770       -2.86790
Cl        16.12070        4.62270       -3.81810
C         14.17100        2.93350       -2.93800
C         13.07750        3.31070       -3.83530
C         13.19290        3.61530       -5.16550
C         14.39350        3.62480       -5.90870
N         15.29850        3.58430       -6.61280
C         12.08590        3.74520       -6.03440
N         11.23710        3.83930       -6.80090
C         10.12030        4.52440       -4.01390
C          8.79510        4.82100       -4.15250
C          8.33030        5.94240       -4.87030
C          7.03650        6.31390       -5.08930
C          5.82000        5.72710       -4.66500
C          4.56870        6.22920       -4.99200
C          3.53250        5.47690       -4.44700
S          1.79670        5.59560       -4.48780
C          1.66510        4.16470       -3.47780
C          0.48200        3.58640       -3.05960
C          0.57020        2.45510       -2.26050
C         -0.44070        1.62780       -1.67080
C          0.13940        0.65630       -0.90680
C          1.64300        0.71600       -0.96110
C          2.26810       -0.49770       -1.67980
C          2.06040       -1.84440       -1.00170
C          2.16800        0.94410        0.47220
C          3.67370        1.11670        0.62230
C          1.83080        1.92910       -1.85710
C          2.99700        2.48200       -2.31310
C          2.92300        3.62040       -3.12670
C          3.96460        4.38730       -3.69310
S          5.68100        4.29220       -3.65950
C         -0.87060       -0.05540       -0.17500
C         -2.12610        0.49790       -0.55440
C         -1.94000        1.57530       -1.60730
C         -2.57250        2.90910       -1.18670
C         -1.99690        3.43550        0.12280
C         -2.55630        1.03270       -2.91890
C         -2.27730        1.85940       -4.16630
C         -3.29760        0.04920       -0.00930
C         -3.23580       -0.96510        0.95510
C         -1.98320       -1.50170        1.33590
C         -0.79640       -1.05690        0.78230
S         -2.11720       -2.75430        2.55840
C         -3.84540       -2.56710        2.57070
C         -4.87260       -3.18260        3.28170
C         -6.11530       -2.67940        2.94020
S         -5.98460       -1.42550        1.71140
C         -4.27850       -1.58940        1.67760
C         -7.39970       -3.06650        3.45660
C         -8.60450       -2.52820        2.96420
F         -8.57870       -1.61020        1.98530
C         -9.84110       -2.90760        3.44870
F        -10.94350       -2.35850        2.92260
C         -9.98360       -3.88550        4.43710
C         -8.79370       -4.40510        4.96100
F         -8.84530       -5.24980        5.99380
C         -7.55520       -4.00430        4.49760
F         -6.48190       -4.53940        5.09550
C        -11.28800       -4.28820        4.91540
C        -11.64920       -5.57360        5.12160
C        -10.90880       -6.74440        4.56500
O         -9.83520       -6.74100        4.01640
C        -11.84360       -7.88240        4.69660
C        -11.68060       -9.17740        4.23170
Cl       -10.21670       -9.69070        3.52670
C        -12.75990      -10.06530        4.35200
Cl       -12.59460      -11.68180        3.82630
C        -13.98000       -9.62010        4.86180
Cl       -15.30780      -10.69420        4.90880
C        -14.14200       -8.30320        5.32330
Cl       -15.71040       -7.78350        5.77850
C        -13.04460       -7.45030        5.30030
C        -12.87290       -6.07030        5.73710
C        -13.54300       -5.40520        6.72420
C        -14.50160       -5.94620        7.61040
N        -15.21420       -6.30390        8.43460
C        -13.22880       -4.07750        7.10190
N        -13.02370       -3.00640        7.45620
H          9.82110        2.84090       -2.73800
H         10.85360        5.18920       -4.44830
H          8.07680        4.14450       -3.71300
H          9.09540        6.56920       -5.30990
H          6.88260        7.20510       -5.68660
H          4.42880        7.10350       -5.60090
H         -0.46550        4.00910       -3.34950
H          3.33700       -0.31220       -1.79330
H          1.83770       -0.53940       -2.68420
H          2.47070       -1.84880        0.00470
H          1.00470       -2.09770       -0.95850
H          2.56950       -2.61710       -1.57400
H          1.84630        0.10070        1.08380
H          1.66980        1.83490        0.86480
H          4.01460        2.02960        0.14290
H          3.92050        1.18360        1.67980
H          4.21570        0.27270        0.20460
H          3.96800        2.07840       -2.07410
H         -2.40730        3.64900       -1.96980
H         -3.64990        2.76730       -1.08080
H         -2.14430        2.71580        0.92510
H         -0.93030        3.62560        0.02380
H         -2.48690        4.36580        0.40010
H         -2.16940        0.02240       -3.07510
H         -3.63550        0.95400       -2.77230
H         -2.75890        1.39130       -5.02220
H         -1.21050        1.91360       -4.36570
H         -2.67300        2.86720       -4.07180
H         -4.25820        0.45670       -0.28560
H          0.14050       -1.48090        1.10300
H         -4.70180       -3.95880        4.00120
H        -12.00260       -3.48820        5.06120
