203

C          7.19200        8.81670      -12.22540
C          8.03670        9.36540      -11.32210
C          7.85700        9.38730       -9.84350
O          6.85470        9.14600       -9.21800
C          9.15920        9.84750       -9.30410
C          9.57920        9.88330       -7.98510
Cl         8.52220        9.49070       -6.70500
C         10.91160       10.23510       -7.72500
Cl        11.47080       10.31820       -6.11300
C         11.79220       10.47620       -8.78020
Cl        13.43390       10.81040       -8.43900
C         11.36020       10.43700      -10.11520
Cl        12.53180       10.57560      -11.35970
C         10.01660       10.18720      -10.37070
C          9.25420       10.12140      -11.61280
C          9.51170       10.80820      -12.76550
C         10.48920       11.81820      -12.91830
N         11.17530       12.71680      -13.11110
C          8.71980       10.73670      -13.93450
N          8.13960       10.72780      -14.92480
C          6.03850        7.99430      -11.94210
C          6.03060        7.04780      -10.90420
C          4.89400        6.30720      -10.69940
C          4.63750        5.24890       -9.68410
O          5.40700        4.80030       -8.86960
C          3.22100        4.85890       -9.91490
C          2.69950        5.59580      -10.99740
C          3.73910        6.48600      -11.49060
C          3.75620        7.39060      -12.53730
C          4.91290        8.11850      -12.76570
C          1.38430        5.40820      -11.38290
C          0.60550        4.49400      -10.69170
C          1.11970        3.74680       -9.62560
C          2.45340        3.94860       -9.23180
C          0.29680        2.81410       -8.89030
C         -0.81750        2.10330       -9.29180
C         -1.32460        1.99930      -10.66250
C         -2.69070        2.08550      -10.91170
C         -3.16410        1.95660      -12.20430
C         -2.28690        1.73420      -13.25040
C         -0.91980        1.63400      -13.01760
C          0.03010        1.33680      -14.14210
C          0.19320       -0.17450      -14.31540
C         -0.45090        1.76310      -11.72030
C         -1.38090        1.38190       -8.21680
S         -2.75730        0.31060       -8.09240
C         -2.39120        0.06430       -6.41760
C         -2.86950       -0.66880       -5.31400
C         -3.86590       -1.66030       -5.16450
C         -3.99080       -2.35100       -3.90480
N         -4.90970       -3.30260       -3.94370
S         -5.56900       -3.32600       -5.42170
N         -4.70490       -2.12410       -6.07690
C         -3.21660       -1.92440       -2.80150
C         -3.18250       -2.28740       -1.44110
S         -3.86520       -3.46750       -0.36880
C         -2.96620       -2.76050        0.95370
C         -2.86450       -3.05850        2.32460
C         -3.62290       -4.10400        3.01530
C         -3.64840       -5.40890        2.53670
C         -4.31650       -6.38580        3.25070
C         -4.95660       -6.07420        4.43750
C         -4.96910       -4.76900        4.91280
C         -5.63450       -4.40710        6.21060
C         -4.59410       -4.11850        7.29460
C         -4.31010       -3.79260        4.18430
C         -1.99730       -2.19070        2.97370
S         -1.32860       -0.98180        1.88970
C         -2.19910       -1.66140        0.56640
C         -2.31950       -1.39300       -0.80010
N         -1.79830       -0.50120       -1.70300
C         -2.31330       -0.83910       -2.94060
C         -2.02700       -0.33220       -4.22480
N         -1.03100        0.52720       -4.65380
C         -1.26490        0.77060       -5.98530
C         -0.68720        1.52190       -7.01480
S          0.67160        2.56820       -7.19030
C          0.31860        0.60290       -4.12930
C          1.26480       -0.31870       -4.89870
C         -1.36850        0.81590       -1.27680
C         -2.47300        1.54200       -0.50960
C         -1.55840       -2.32430        4.32880
C         -1.26040       -1.37500        5.29730
N         -1.35180        0.00780        5.15850
C         -2.02360        0.70650        6.17370
C         -3.18100        0.16570        6.73050
C         -3.83560        0.82130        7.75240
C         -3.36750        2.03600        8.23990
C         -4.07350        2.72570        9.36610
C         -2.22030        2.57450        7.67110
C         -1.54850        1.92210        6.65620
C         -0.58950        0.67520        4.19720
C          0.64420        0.16790        3.79260
C          1.36390        0.80190        2.79820
C          0.88200        1.95100        2.18610
C          1.66580        2.63520        1.10720
C         -0.33640        2.46670        2.61620
C         -1.06600        1.84560        3.60740
C         -0.93400       -1.99220        6.52820
S         -0.56260       -1.37660        8.09470
C         -0.35860       -3.02590        8.71850
C         -0.70530       -4.00100        7.74880
N         -0.91160       -5.32640        7.95970
C         -1.21700       -5.88210        9.21110
C         -2.06910       -5.24200       10.11010
C         -2.35040       -5.82400       11.32810
C         -1.79230       -7.04820       11.69310
C         -2.09670       -7.65160       13.02650
C         -0.96090       -7.68710       10.78280
C         -0.67900       -7.12100        9.55380
C         -0.91210       -6.20760        6.85070
C          0.16930       -6.24060        5.97710
C          0.14010       -7.08390        4.88380
C         -0.95630       -7.90260        4.63790
C         -1.00220       -8.77340        3.42170
C         -2.01500       -7.88330        5.53800
C         -1.99650       -7.05100        6.63920
C         -0.95500       -3.37960        6.50400
S         -1.34920       -3.96650        4.92710
C          0.10590       -3.14430       10.02140
C          0.71460       -4.26140       10.57260
C          1.42540       -5.26370        9.78360
O          1.60390       -5.27490        8.58010
C          2.03050       -6.19100       10.77350
C          2.81520       -7.30350       10.54620
Cl         3.08470       -7.89050        8.96450
C          3.37910       -7.95800       11.65000
Cl         4.31820       -9.36990       11.41990
C          3.20490       -7.43680       12.92890
Cl         3.98390       -8.19120       14.25440
C          2.40990       -6.30000       13.15210
Cl         2.38060       -5.62620       14.72980
C          1.75960       -5.71960       12.07290
C          0.82590       -4.59780       11.96230
C         -0.02250       -4.12290       12.93560
C         -0.95950       -3.09510       12.69950
N         -1.75440       -2.27420       12.58160
C         -0.26110       -4.69920       14.19600
N         -0.62270       -5.15370       15.18790
H          7.37980        8.99120      -13.27770
H          6.90440        6.87890      -10.29570
H          2.89200        7.52860      -13.16910
H          4.94160        8.83110      -13.57750
H          0.95660        5.97260      -12.19760
H         -0.42900        4.36580      -10.96980
H          2.87340        3.39400       -8.40530
H         -3.37480        2.26780      -10.09680
H         -4.22440        2.03000      -12.39550
H         -2.66390        1.63530      -14.25810
H          1.00420        1.78330      -13.93120
H         -0.35010        1.76650      -15.07100
H          0.88080       -0.39250      -15.12920
H         -0.76650       -0.63560      -14.53750
H          0.58250       -0.61960      -13.40240
H          0.60840        1.67640      -11.52280
H         -3.13130       -5.65290        1.62100
H         -4.33110       -7.40110        2.88280
H         -5.46090       -6.84940        4.99640
H         -6.25670       -3.52020        6.06800
H         -6.27920       -5.22460        6.53790
H         -5.08180       -3.86550        8.23330
H         -3.96380       -4.99010        7.45390
H         -3.95470       -3.28770        7.00310
H         -4.31920       -2.76790        4.52980
H          0.66410        1.63880       -4.20670
H          0.31580        0.29570       -3.08570
H          1.33830       -0.02210       -5.94110
H          0.90770       -1.34530       -4.85210
H          2.25610       -0.27210       -4.45670
H         -0.48650        0.71110       -0.63590
H         -1.11860        1.40650       -2.15660
H         -3.37810        1.59190       -1.11110
H         -2.69790        1.03660        0.42470
H         -2.14850        2.55300       -0.28090
H         -3.56360       -0.77330        6.35580
H         -4.72790        0.38520        8.17770
H         -3.77770        3.76970        9.43090
H         -5.15270        2.67150        9.23680
H         -3.82600        2.24140       10.31100
H         -1.83520        3.51520        8.03740
H         -0.64640        2.34590        6.24080
H          1.03050       -0.72750        4.25740
H          2.31610        0.39310        2.49230
H          1.00510        3.15480        0.41640
H          2.26890        1.92030        0.55190
H          2.33970        3.37270        1.54450
H         -0.72390        3.36590        2.15880
H         -2.01820        2.24750        3.91980
H         -2.51630       -4.29450        9.84970
H         -3.01560       -5.31970       12.01370
H         -1.64960       -8.63800       13.11880
H         -1.71310       -7.02030       13.82770
H         -3.17320       -7.73840       13.16670
H         -0.52210       -8.64080       11.03670
H         -0.03480       -7.62970        8.85270
H          1.02780       -5.62140        6.18440
H          0.98420       -7.10780        4.21050
H         -0.00730       -9.12140        3.15400
H         -1.64780       -9.63350        3.58120
H         -1.39740       -8.20400        2.57990
H         -2.86720       -8.52560        5.37360
H         -2.82220       -7.04910        7.33590
H          0.03090       -2.25090       10.62880
