136

C         -7.18070        2.71190       -1.16380
C         -7.51870        3.90910       -1.74790
C         -8.86680        4.49800       -1.74230
O         -9.86160        4.08480       -1.18750
C         -8.76630        5.71630       -2.58840
C         -9.77570        6.57170       -2.98970
Cl       -11.36570        6.41970       -2.38760
C         -9.46700        7.57300       -3.92150
Cl       -10.67330        8.67820       -4.41930
C         -8.19150        7.63770       -4.47710
Cl        -7.86590        8.80000       -5.69040
C         -7.17370        6.75810       -4.07390
Cl        -5.69330        6.78420       -4.94160
C         -7.44530        5.84190       -3.06530
C         -6.62040        4.82060       -2.41980
C         -5.24910        4.82470       -2.31670
C         -4.46950        3.77730       -1.78250
N         -3.74600        2.96400       -1.41290
C         -4.41040        5.92860       -2.57960
N         -3.65900        6.79450       -2.64240
C         -8.03560        1.84190       -0.47360
C         -7.51830        0.69920        0.07960
C         -8.24000       -0.27970        0.77830
C         -7.72500       -1.40300        1.37490
C         -6.39050       -1.84110        1.48980
C         -5.98040       -3.02450        2.12040
C         -6.84770       -3.93490        2.86670
C         -7.72930       -3.46280        3.83730
C         -8.50430       -4.35480        4.55400
C         -8.40720       -5.71520        4.31710
C         -7.52710       -6.20410        3.35990
C         -7.36400       -7.67920        3.13580
C         -6.16660       -8.20420        3.93090
C         -6.75140       -5.30520        2.64430
C         -4.60430       -3.24150        1.97740
S         -3.53490       -4.52600        2.50430
C         -2.20290       -3.68090        1.79060
C         -0.83640       -3.86820        1.54090
C          0.00860       -4.98720        1.72220
C          1.32160       -4.97500        1.13620
N          1.96120       -6.12000        1.30970
S          1.00410       -7.12450        2.14440
N         -0.26990       -6.13800        2.31240
C          1.78490       -3.79220        0.51670
C          3.01590       -3.44590       -0.06700
S          4.53280       -4.17020       -0.49170
C          5.07440       -2.63180       -1.13360
C          6.27290       -2.19370       -1.72700
C          7.44150       -3.04160       -1.94300
C          7.28150       -4.35780       -2.37310
C          8.38960       -5.15550       -2.58030
C          9.66200       -4.65790       -2.35690
C          9.84180       -3.35260       -1.91650
C         11.21500       -2.82490       -1.61400
C         11.56090       -3.05600       -0.14180
C          8.72610       -2.55570       -1.70920
C          6.21400       -0.84130       -2.06260
S          4.66390       -0.12280       -1.62360
C          4.10930       -1.62830       -1.00770
C          2.93980       -2.08960       -0.39920
N          1.71500       -1.58280       -0.05680
C          0.97500       -2.62250        0.47250
C         -0.38730       -2.70580        0.84940
N         -1.46180       -1.86650        0.64010
C         -2.55970       -2.45830        1.20430
C         -3.93170       -2.21930        1.29480
S         -5.02010       -0.99480        0.77490
C         -1.63440       -0.77200       -0.29900
C         -1.96040        0.55280        0.38550
C          1.56000       -0.16750        0.20120
C          2.52370        0.30680        1.29010
C          7.15300       -0.10690       -2.83640
C          7.11940        1.23570       -3.05060
C          6.26380        2.09530       -2.30890
C          5.57090        3.16300       -2.78470
C          4.50230        3.72060       -2.04330
C          4.37120        3.75590       -0.67910
C          5.48810        3.81930        0.29990
O          6.66580        3.60000        0.11320
C          4.86660        4.27370        1.56160
C          5.46700        4.59890        2.76260
C          4.65950        5.00990        3.81140
C          3.27560        5.10400        3.67160
C          2.44030        5.58030        4.81740
C          2.67660        4.77150        2.45770
C          3.47250        4.35460        1.40590
C          3.13860        3.94620        0.04580
C          1.89520        3.57860       -0.40470
C          1.66890        3.00070       -1.66970
N          1.43450        2.46200       -2.65690
C          0.74390        3.56650        0.40540
N         -0.20480        3.48510        1.04800
H         -6.15210        2.38660       -1.25370
H         -9.08160        2.08900       -0.37560
H         -6.45610        0.55400       -0.05110
H         -9.31110       -0.13950        0.84280
H         -8.43780       -2.07710        1.83420
H         -7.77950       -2.40510        4.05060
H         -9.18360       -3.98650        5.30860
H         -9.01600       -6.40430        4.88430
H         -8.26740       -8.20590        3.44900
H         -7.20320       -7.87590        2.07390
H         -6.31630       -8.03500        4.99490
H         -6.03830       -9.27090        3.76350
H         -5.25640       -7.69160        3.62830
H         -6.07120       -5.67260        1.88980
H          6.29150       -4.74350       -2.56200
H          8.26090       -6.17240       -2.92030
H         10.52380       -5.28830       -2.52190
H         11.25710       -1.75510       -1.82910
H         11.95210       -3.32980       -2.24130
H         11.53690       -4.11840        0.09020
H         10.84240       -2.55010        0.49910
H         12.55440       -2.67370        0.08010
H          8.85350       -1.54990       -1.33470
H         -0.74740       -0.69520       -0.92780
H         -2.47690       -1.03650       -0.94860
H         -2.15880        1.31080       -0.36620
H         -1.15430        0.90830        1.02220
H         -2.84910        0.45090        1.00130
H          1.73890        0.38230       -0.72850
H          0.54820        0.01950        0.54290
H          3.55630        0.26530        0.95460
H          2.42000       -0.31470        2.17740
H          2.28920        1.33310        1.56070
H          7.88330       -0.70890       -3.36220
H          7.73390        1.66030       -3.83220
H          6.08010        1.80160       -1.28490
H          5.67110        3.45260       -3.82190
H          3.68080        4.11440       -2.63300
H          6.53860        4.52990        2.87020
H          5.10730        5.26770        4.76020
H          2.75240        5.10530        5.74530
H          2.55910        6.65690        4.94010
H          1.38790        5.37000        4.64720
H          1.60660        4.85590        2.34810
