
  xtb     02132214543D
 energy: -306.383963603226 gnorm: 0.000911013512 xtb: 6.4.1 (unknown)
157176  0     0  0            999 V2000
    0.6137  -12.7222    7.6476 C   0  0  0  0  0  0  0  0  0  0  0  0
   -0.4960  -13.4608    7.3933 C   0  0  0  0  0  0  0  0  0  0  0  0
   -1.4677  -13.2336    6.2910 C   0  0  0  0  0  0  0  0  0  0  0  0
   -1.3285  -12.5762    5.2883 O   0  0  0  0  0  0  0  0  0  0  0  0
   -2.7064  -13.9234    6.7258 C   0  0  0  0  0  0  0  0  0  0  0  0
   -3.9536  -13.9003    6.1241 C   0  0  0  0  0  0  0  0  0  0  0  0
   -4.2078  -13.1216    4.6283 Cl  0  0  0  0  0  0  0  0  0  0  0  0
   -5.0189  -14.5318    6.7822 C   0  0  0  0  0  0  0  0  0  0  0  0
   -6.5689  -14.5574    6.0634 Cl  0  0  0  0  0  0  0  0  0  0  0  0
   -4.8256  -15.1034    8.0398 C   0  0  0  0  0  0  0  0  0  0  0  0
   -6.1609  -15.7825    8.8636 Cl  0  0  0  0  0  0  0  0  0  0  0  0
   -3.5600  -15.1187    8.6477 C   0  0  0  0  0  0  0  0  0  0  0  0
   -3.4333  -15.6873   10.2602 Cl  0  0  0  0  0  0  0  0  0  0  0  0
   -2.4827  -14.5819    7.9527 C   0  0  0  0  0  0  0  0  0  0  0  0
   -1.0665  -14.4709    8.2777 C   0  0  0  0  0  0  0  0  0  0  0  0
   -0.3207  -15.2973    9.0705 C   0  0  0  0  0  0  0  0  0  0  0  0
    1.0714  -15.1323    9.2631 C   0  0  0  0  0  0  0  0  0  0  0  0
    2.1985  -15.0617    9.4647 N   0  0  0  0  0  0  0  0  0  0  0  0
   -0.7535  -16.5066    9.6586 C   0  0  0  0  0  0  0  0  0  0  0  0
   -0.9795  -17.5437   10.0937 N   0  0  0  0  0  0  0  0  0  0  0  0
    1.2343  -11.7548    6.7800 C   0  0  0  0  0  0  0  0  0  0  0  0
    1.7800  -10.5918    7.3567 C   0  0  0  0  0  0  0  0  0  0  0  0
    2.3082   -9.6297    6.5332 C   0  0  0  0  0  0  0  0  0  0  0  0
    2.8627   -8.2910    6.8783 C   0  0  0  0  0  0  0  0  0  0  0  0
    2.9927   -7.8049    7.9756 O   0  0  0  0  0  0  0  0  0  0  0  0
    3.2047   -7.6863    5.5627 C   0  0  0  0  0  0  0  0  0  0  0  0
    2.9098   -8.6058    4.5343 C   0  0  0  0  0  0  0  0  0  0  0  0
    2.3542   -9.8077    5.1334 C   0  0  0  0  0  0  0  0  0  0  0  0
    1.8902  -10.9829    4.5701 C   0  0  0  0  0  0  0  0  0  0  0  0
    1.3302  -11.9435    5.3958 C   0  0  0  0  0  0  0  0  0  0  0  0
    3.1163   -8.2510    3.2143 C   0  0  0  0  0  0  0  0  0  0  0  0
    3.5891   -6.9789    2.9366 C   0  0  0  0  0  0  0  0  0  0  0  0
    3.8719   -6.0554    3.9483 C   0  0  0  0  0  0  0  0  0  0  0  0
    3.6818   -6.4278    5.2909 C   0  0  0  0  0  0  0  0  0  0  0  0
    4.2507   -4.7033    3.6079 C   0  0  0  0  0  0  0  0  0  0  0  0
    4.9720   -3.7783    4.3369 C   0  0  0  0  0  0  0  0  0  0  0  0
    5.7593   -4.0726    5.5351 C   0  0  0  0  0  0  0  0  0  0  0  0
    6.5434   -5.2232    5.5996 C   0  0  0  0  0  0  0  0  0  0  0  0
    7.3132   -5.4685    6.7191 C   0  0  0  0  0  0  0  0  0  0  0  0
    7.3154   -4.5738    7.7761 C   0  0  0  0  0  0  0  0  0  0  0  0
    6.5443   -3.4201    7.7265 C   0  0  0  0  0  0  0  0  0  0  0  0
    6.5804   -2.4141    8.8398 C   0  0  0  0  0  0  0  0  0  0  0  0
    7.5564   -1.2857    8.5004 C   0  0  0  0  0  0  0  0  0  0  0  0
    5.7720   -3.1788    6.5997 C   0  0  0  0  0  0  0  0  0  0  0  0
    4.9356   -2.5043    3.7268 C   0  0  0  0  0  0  0  0  0  0  0  0
    5.5919   -0.9442    4.1692 S   0  0  0  0  0  0  0  0  0  0  0  0
    4.8627   -0.2541    2.7575 C   0  0  0  0  0  0  0  0  0  0  0  0
    4.7080    0.9976    2.1307 C   0  0  0  0  0  0  0  0  0  0  0  0
    5.2357    2.2781    2.4080 C   0  0  0  0  0  0  0  0  0  0  0  0
    4.8961    3.3770    1.5437 C   0  0  0  0  0  0  0  0  0  0  0  0
    5.4967    4.5016    1.8989 N   0  0  0  0  0  0  0  0  0  0  0  0
    6.4056    4.2095    3.2067 S   0  0  0  0  0  0  0  0  0  0  0  0
    6.0678    2.6352    3.3733 N   0  0  0  0  0  0  0  0  0  0  0  0
    3.9436    3.1770    0.5193 C   0  0  0  0  0  0  0  0  0  0  0  0
    3.2436    4.0784   -0.3008 C   0  0  0  0  0  0  0  0  0  0  0  0
    3.1738    5.7791   -0.6193 S   0  0  0  0  0  0  0  0  0  0  0  0
    1.7928    5.5074   -1.6570 C   0  0  0  0  0  0  0  0  0  0  0  0
    0.9452    6.3826   -2.3717 C   0  0  0  0  0  0  0  0  0  0  0  0
    1.0842    7.8389   -2.2956 C   0  0  0  0  0  0  0  0  0  0  0  0
   -0.0244    8.6496   -2.0590 C   0  0  0  0  0  0  0  0  0  0  0  0
    0.1364   10.0158   -1.9398 C   0  0  0  0  0  0  0  0  0  0  0  0
    1.3949   10.5848   -2.0449 C   0  0  0  0  0  0  0  0  0  0  0  0
    2.5124    9.7903   -2.2630 C   0  0  0  0  0  0  0  0  0  0  0  0
    3.8804   10.3941   -2.3978 C   0  0  0  0  0  0  0  0  0  0  0  0
    4.2396   10.5938   -3.8712 C   0  0  0  0  0  0  0  0  0  0  0  0
    2.3440    8.4189   -2.3892 C   0  0  0  0  0  0  0  0  0  0  0  0
   -0.0539    5.6896   -3.0269 C   0  0  0  0  0  0  0  0  0  0  0  0
    0.0355    3.9588   -2.7375 S   0  0  0  0  0  0  0  0  0  0  0  0
    1.4324    4.1627   -1.7476 C   0  0  0  0  0  0  0  0  0  0  0  0
    2.2672    3.3425   -0.9778 C   0  0  0  0  0  0  0  0  0  0  0  0
    2.3552    2.0193   -0.6353 N   0  0  0  0  0  0  0  0  0  0  0  0
    3.3851    1.8927    0.2770 C   0  0  0  0  0  0  0  0  0  0  0  0
    3.8782    0.7796    0.9989 C   0  0  0  0  0  0  0  0  0  0  0  0
    3.5933   -0.5727    0.8988 N   0  0  0  0  0  0  0  0  0  0  0  0
    4.1735   -1.1867    1.9803 C   0  0  0  0  0  0  0  0  0  0  0  0
    4.2168   -2.4712    2.5322 C   0  0  0  0  0  0  0  0  0  0  0  0
    3.5726   -4.0206    2.1366 S   0  0  0  0  0  0  0  0  0  0  0  0
    3.3781   -1.3354   -0.3127 C   0  0  0  0  0  0  0  0  0  0  0  0
    4.6813   -1.9582   -0.8139 C   0  0  0  0  0  0  0  0  0  0  0  0
    1.2638    1.1151   -0.9248 C   0  0  0  0  0  0  0  0  0  0  0  0
    1.2482    0.6735   -2.3880 C   0  0  0  0  0  0  0  0  0  0  0  0
   -1.0884    6.1543   -3.9214 C   0  0  0  0  0  0  0  0  0  0  0  0
   -2.2730    5.4081   -4.0428 C   0  0  0  0  0  0  0  0  0  0  0  0
   -3.2468    5.8366   -4.9092 C   0  0  0  0  0  0  0  0  0  0  0  0
   -4.5647    5.2192   -5.2098 C   0  0  0  0  0  0  0  0  0  0  0  0
   -5.0418    4.2168   -4.7348 O   0  0  0  0  0  0  0  0  0  0  0  0
   -5.1638    6.1203   -6.2311 C   0  0  0  0  0  0  0  0  0  0  0  0
   -4.2748    7.1849   -6.4980 C   0  0  0  0  0  0  0  0  0  0  0  0
   -3.0841    7.0046   -5.6818 C   0  0  0  0  0  0  0  0  0  0  0  0
   -1.9133    7.7348   -5.5772 C   0  0  0  0  0  0  0  0  0  0  0  0
   -0.9259    7.3019   -4.7063 C   0  0  0  0  0  0  0  0  0  0  0  0
   -4.6173    8.1476   -7.4305 C   0  0  0  0  0  0  0  0  0  0  0  0
   -5.8468    8.0608   -8.0649 C   0  0  0  0  0  0  0  0  0  0  0  0
   -6.7427    7.0201   -7.7908 C   0  0  0  0  0  0  0  0  0  0  0  0
   -6.3691    6.0162   -6.8758 C   0  0  0  0  0  0  0  0  0  0  0  0
   -8.0201    6.8900   -8.4405 C   0  0  0  0  0  0  0  0  0  0  0  0
   -8.8821    7.8661   -8.8213 C   0  0  0  0  0  0  0  0  0  0  0  0
   -8.8442    9.2964   -8.4202 C   0  0  0  0  0  0  0  0  0  0  0  0
   -7.9243    9.9233   -7.9541 O   0  0  0  0  0  0  0  0  0  0  0  0
  -10.2261    9.7899   -8.6393 C   0  0  0  0  0  0  0  0  0  0  0  0
  -10.7631   11.0167   -8.2861 C   0  0  0  0  0  0  0  0  0  0  0  0
   -9.7967   12.2553   -7.6221 Cl  0  0  0  0  0  0  0  0  0  0  0  0
  -12.1374   11.2193   -8.4794 C   0  0  0  0  0  0  0  0  0  0  0  0
  -12.8391   12.7276   -8.0876 Cl  0  0  0  0  0  0  0  0  0  0  0  0
  -12.9400   10.1810   -8.9519 C   0  0  0  0  0  0  0  0  0  0  0  0
  -14.6271   10.4221   -9.0870 Cl  0  0  0  0  0  0  0  0  0  0  0  0
  -12.3910    8.9379   -9.3048 C   0  0  0  0  0  0  0  0  0  0  0  0
  -13.4549    7.6594   -9.7207 Cl  0  0  0  0  0  0  0  0  0  0  0  0
  -11.0152    8.7684   -9.2076 C   0  0  0  0  0  0  0  0  0  0  0  0
  -10.1456    7.6411   -9.5166 C   0  0  0  0  0  0  0  0  0  0  0  0
  -10.3356    6.6674  -10.4561 C   0  0  0  0  0  0  0  0  0  0  0  0
  -11.3848    6.6071  -11.4002 C   0  0  0  0  0  0  0  0  0  0  0  0
  -12.1341    6.5185  -12.2640 N   0  0  0  0  0  0  0  0  0  0  0  0
   -9.3806    5.6588  -10.7275 C   0  0  0  0  0  0  0  0  0  0  0  0
   -8.6523    4.8165  -11.0028 N   0  0  0  0  0  0  0  0  0  0  0  0
    1.0513  -12.7966    8.6369 H   0  0  0  0  0  0  0  0  0  0  0  0
    1.7446  -10.4384    8.4251 H   0  0  0  0  0  0  0  0  0  0  0  0
    1.9497  -11.1512    3.5060 H   0  0  0  0  0  0  0  0  0  0  0  0
    0.9857  -12.8701    4.9672 H   0  0  0  0  0  0  0  0  0  0  0  0
    2.9014   -8.9388    2.4109 H   0  0  0  0  0  0  0  0  0  0  0  0
    3.7375   -6.6818    1.9080 H   0  0  0  0  0  0  0  0  0  0  0  0
    3.8685   -5.7299    6.0917 H   0  0  0  0  0  0  0  0  0  0  0  0
    6.5531   -5.9122    4.7677 H   0  0  0  0  0  0  0  0  0  0  0  0
    7.9201   -6.3605    6.7667 H   0  0  0  0  0  0  0  0  0  0  0  0
    7.9221   -4.7734    8.6474 H   0  0  0  0  0  0  0  0  0  0  0  0
    6.8920   -2.8974    9.7675 H   0  0  0  0  0  0  0  0  0  0  0  0
    5.5841   -1.9936    8.9905 H   0  0  0  0  0  0  0  0  0  0  0  0
    7.5806   -0.5505    9.3013 H   0  0  0  0  0  0  0  0  0  0  0  0
    8.5597   -1.6829    8.3629 H   0  0  0  0  0  0  0  0  0  0  0  0
    7.2565   -0.7890    7.5804 H   0  0  0  0  0  0  0  0  0  0  0  0
    5.1583   -2.2907    6.5566 H   0  0  0  0  0  0  0  0  0  0  0  0
   -1.0029    8.2037   -1.9578 H   0  0  0  0  0  0  0  0  0  0  0  0
   -0.7242   10.6417   -1.7549 H   0  0  0  0  0  0  0  0  0  0  0  0
    1.5108   11.6544   -1.9453 H   0  0  0  0  0  0  0  0  0  0  0  0
    3.9119   11.3570   -1.8848 H   0  0  0  0  0  0  0  0  0  0  0  0
    4.6175    9.7353   -1.9344 H   0  0  0  0  0  0  0  0  0  0  0  0
    4.2306    9.6416   -4.3966 H   0  0  0  0  0  0  0  0  0  0  0  0
    3.5218   11.2559   -4.3502 H   0  0  0  0  0  0  0  0  0  0  0  0
    5.2306   11.0315   -3.9638 H   0  0  0  0  0  0  0  0  0  0  0  0
    3.2057    7.7925   -2.5686 H   0  0  0  0  0  0  0  0  0  0  0  0
    2.9947   -0.6768   -1.0841 H   0  0  0  0  0  0  0  0  0  0  0  0
    2.6463   -2.1225   -0.1037 H   0  0  0  0  0  0  0  0  0  0  0  0
    5.0742   -2.6738   -0.0972 H   0  0  0  0  0  0  0  0  0  0  0  0
    5.4284   -1.1840   -0.9776 H   0  0  0  0  0  0  0  0  0  0  0  0
    4.5005   -2.4744   -1.7528 H   0  0  0  0  0  0  0  0  0  0  0  0
    1.3199    0.2637   -0.2462 H   0  0  0  0  0  0  0  0  0  0  0  0
    0.3275    1.6452   -0.7148 H   0  0  0  0  0  0  0  0  0  0  0  0
    0.4736   -0.0736   -2.5352 H   0  0  0  0  0  0  0  0  0  0  0  0
    2.2036    0.2537   -2.6950 H   0  0  0  0  0  0  0  0  0  0  0  0
    1.0342    1.5206   -3.0336 H   0  0  0  0  0  0  0  0  0  0  0  0
   -2.4229    4.5122   -3.4579 H   0  0  0  0  0  0  0  0  0  0  0  0
   -1.7572    8.6234   -6.1696 H   0  0  0  0  0  0  0  0  0  0  0  0
   -0.0015    7.8544   -4.6393 H   0  0  0  0  0  0  0  0  0  0  0  0
   -3.9429    8.9558   -7.6678 H   0  0  0  0  0  0  0  0  0  0  0  0
   -6.1048    8.7934   -8.8111 H   0  0  0  0  0  0  0  0  0  0  0  0
   -7.0317    5.1902   -6.6633 H   0  0  0  0  0  0  0  0  0  0  0  0
   -8.3504    5.8649   -8.5691 H   0  0  0  0  0  0  0  0  0  0  0  0
  1  2  2  0  0  0  0
  2  3  1  0  0  0  0
  3  4  2  0  0  0  0
  3  5  1  0  0  0  0
  5  6  2  0  0  0  0
  6  7  1  0  0  0  0
  6  8  1  0  0  0  0
  8  9  1  0  0  0  0
  8 10  2  0  0  0  0
 10 11  1  0  0  0  0
 10 12  1  0  0  0  0
 12 13  1  0  0  0  0
 12 14  2  0  0  0  0
 14 15  1  0  0  0  0
 15 16  2  0  0  0  0
 16 17  1  0  0  0  0
 17 18  3  0  0  0  0
 16 19  1  0  0  0  0
 19 20  3  0  0  0  0
  1 21  1  0  0  0  0
 21 22  2  0  0  0  0
 22 23  1  0  0  0  0
 23 24  1  0  0  0  0
 24 25  2  0  0  0  0
 24 26  1  0  0  0  0
 26 27  2  0  0  0  0
 27 28  1  0  0  0  0
 28 29  1  0  0  0  0
 29 30  2  0  0  0  0
 27 31  1  0  0  0  0
 31 32  2  0  0  0  0
 32 33  1  0  0  0  0
 33 34  2  0  0  0  0
 33 35  1  0  0  0  0
 35 36  2  0  0  0  0
 36 37  1  0  0  0  0
 37 38  2  0  0  0  0
 38 39  1  0  0  0  0
 39 40  2  0  0  0  0
 40 41  1  0  0  0  0
 41 42  1  0  0  0  0
 42 43  1  0  0  0  0
 41 44  2  0  0  0  0
 36 45  1  0  0  0  0
 45 46  1  0  0  0  0
 46 47  1  0  0  0  0
 47 48  1  0  0  0  0
 48 49  1  0  0  0  0
 49 50  1  0  0  0  0
 50 51  2  0  0  0  0
 51 52  1  0  0  0  0
 52 53  1  0  0  0  0
 50 54  1  0  0  0  0
 54 55  1  0  0  0  0
 55 56  1  0  0  0  0
 56 57  1  0  0  0  0
 57 58  1  0  0  0  0
 58 59  1  0  0  0  0
 59 60  2  0  0  0  0
 60 61  1  0  0  0  0
 61 62  2  0  0  0  0
 62 63  1  0  0  0  0
 63 64  1  0  0  0  0
 64 65  1  0  0  0  0
 63 66  2  0  0  0  0
 58 67  2  0  0  0  0
 67 68  1  0  0  0  0
 68 69  1  0  0  0  0
 69 70  1  0  0  0  0
 70 71  1  0  0  0  0
 71 72  1  0  0  0  0
 72 73  1  0  0  0  0
 73 74  1  0  0  0  0
 74 75  1  0  0  0  0
 75 76  1  0  0  0  0
 76 77  1  0  0  0  0
 74 78  1  0  0  0  0
 78 79  1  0  0  0  0
 71 80  1  0  0  0  0
 80 81  1  0  0  0  0
 67 82  1  0  0  0  0
 82 83  2  0  0  0  0
 83 84  1  0  0  0  0
 84 85  1  0  0  0  0
 85 86  2  0  0  0  0
 85 87  1  0  0  0  0
 87 88  2  0  0  0  0
 88 89  1  0  0  0  0
 89 90  1  0  0  0  0
 90 91  2  0  0  0  0
 88 92  1  0  0  0  0
 92 93  2  0  0  0  0
 93 94  1  0  0  0  0
 94 95  2  0  0  0  0
 94 96  1  0  0  0  0
 96 97  2  0  0  0  0
 97 98  1  0  0  0  0
 98 99  2  0  0  0  0
 98100  1  0  0  0  0
100101  2  0  0  0  0
101102  1  0  0  0  0
101103  1  0  0  0  0
103104  1  0  0  0  0
103105  2  0  0  0  0
105106  1  0  0  0  0
105107  1  0  0  0  0
107108  1  0  0  0  0
107109  2  0  0  0  0
109110  1  0  0  0  0
110111  2  0  0  0  0
111112  1  0  0  0  0
112113  3  0  0  0  0
111114  1  0  0  0  0
114115  3  0  0  0  0
 15  2  1  0  0  0  0
 30 21  1  0  0  0  0
 77 35  1  0  0  0  0
 91 82  1  0  0  0  0
110 97  1  0  0  0  0
 14  5  1  0  0  0  0
 28 23  2  0  0  0  0
 44 37  1  0  0  0  0
 76 45  2  0  0  0  0
 89 84  2  0  0  0  0
109100  1  0  0  0  0
 34 26  1  0  0  0  0
 75 47  2  0  0  0  0
 95 87  1  0  0  0  0
 73 48  2  0  0  0  0
 53 49  2  0  0  0  0
 72 54  2  0  0  0  0
 70 55  2  0  0  0  0
 69 57  2  0  0  0  0
 66 59  1  0  0  0  0
  1116  1  0  0  0  0
 22117  1  0  0  0  0
 29118  1  0  0  0  0
 30119  1  0  0  0  0
 31120  1  0  0  0  0
 32121  1  0  0  0  0
 34122  1  0  0  0  0
 38123  1  0  0  0  0
 39124  1  0  0  0  0
 40125  1  0  0  0  0
 42126  1  0  0  0  0
 42127  1  0  0  0  0
 43128  1  0  0  0  0
 43129  1  0  0  0  0
 43130  1  0  0  0  0
 44131  1  0  0  0  0
 60132  1  0  0  0  0
 61133  1  0  0  0  0
 62134  1  0  0  0  0
 64135  1  0  0  0  0
 64136  1  0  0  0  0
 65137  1  0  0  0  0
 65138  1  0  0  0  0
 65139  1  0  0  0  0
 66140  1  0  0  0  0
 78141  1  0  0  0  0
 78142  1  0  0  0  0
 79143  1  0  0  0  0
 79144  1  0  0  0  0
 79145  1  0  0  0  0
 80146  1  0  0  0  0
 80147  1  0  0  0  0
 81148  1  0  0  0  0
 81149  1  0  0  0  0
 81150  1  0  0  0  0
 83151  1  0  0  0  0
 90152  1  0  0  0  0
 91153  1  0  0  0  0
 92154  1  0  0  0  0
 93155  1  0  0  0  0
 95156  1  0  0  0  0
 96157  1  0  0  0  0
M  END
