243

C         -7.61740       -8.61970        3.25020
C         -8.76760       -9.02450        3.91040
C         -9.50720       -8.17140        4.83580
O         -9.23570       -7.03590        5.17820
C        -10.57230       -9.03510        5.40670
C        -11.53670       -8.71400        6.34050
Cl       -11.74190       -7.10800        6.88620
C        -12.36280       -9.73770        6.82410
Cl       -13.60450       -9.37760        7.94560
C        -12.14800      -11.05220        6.42010
Cl       -13.10000      -12.30370        7.09810
C        -11.16030      -11.37250        5.47340
Cl       -10.84890      -13.02920        5.15310
C        -10.41940      -10.34410        4.90990
C         -9.38640      -10.31750        3.87300
C         -9.21220      -11.22160        2.85070
C         -8.24310      -11.05500        1.83920
N         -7.48600      -10.98560        0.97810
C        -10.06860      -12.28510        2.51460
N        -10.76000      -13.09500        2.08230
C         -7.26520       -7.31420        2.93500
C         -8.03260       -6.12660        2.82190
N         -9.38790       -6.02670        2.79360
C        -10.23360       -7.07260        2.39910
C        -11.46040       -7.24190        3.03850
C        -12.30410       -8.27170        2.66640
C        -11.96000       -9.14960        1.64730
C        -12.86440      -10.26960        1.24390
C        -10.74360       -8.95530        0.99490
C         -9.88860       -7.93760        1.36090
C         -9.99420       -4.78460        3.10060
C        -10.91930       -4.23020        2.22460
C        -11.52840       -3.03010        2.53690
C        -11.23700       -2.36690        3.72160
C        -11.91340       -1.07950        4.07810
C        -10.31260       -2.93670        4.59210
C         -9.69000       -4.13060        4.29000
C         -7.18810       -5.01690        2.59960
S         -7.48080       -3.32880        2.34540
C         -5.77690       -3.05910        2.00940
C         -5.03410       -4.23700        2.05420
N         -3.68910       -4.37460        1.73950
C         -3.14150       -3.75110        0.61570
C         -3.93240       -3.43770       -0.48900
C         -3.39910       -2.74150       -1.55360
C         -2.06360       -2.35440       -1.56550
C         -1.50900       -1.57010       -2.71540
C         -1.27110       -2.70280       -0.47880
C         -1.79580       -3.38530        0.60060
C         -2.93700       -5.29130        2.49510
C         -2.04080       -6.16260        1.88270
C         -1.32770       -7.06700        2.64300
C         -1.49220       -7.13690        4.02190
C         -0.73990       -8.14810        4.83100
C         -2.39000       -6.26470        4.62370
C         -3.10220       -5.34800        3.87610
C         -5.84820       -5.33150        2.41820
S         -5.55190       -7.02270        2.57760
C         -5.32040       -1.73950        1.73730
C         -6.05580       -0.67220        1.25100
C         -7.46530       -0.77320        0.84040
C         -7.77420       -1.55760       -0.26680
C         -9.08050       -1.69230       -0.69310
C        -10.09050       -1.03500       -0.01300
C         -9.78530       -0.24700        1.08100
C         -8.47850       -0.09900        1.52490
C         -8.18500        0.73100        2.74220
C         -7.85580       -0.14730        3.95020
C         -5.25650        0.47160        1.08800
S         -5.57330        2.05170        0.40830
C         -3.89240        2.43680        0.57980
C         -2.99070        3.44360        0.19370
C         -3.15440        4.61110       -0.58570
C         -1.98680        5.30350       -1.06360
N         -2.29220        6.31880       -1.85580
S         -3.90430        6.40850       -1.98050
N         -4.27720        5.14760       -1.03600
C         -0.71080        4.87630       -0.63440
C          0.59310        5.32940       -0.91050
S          1.40930        6.43140       -1.97080
C          2.94330        5.81300       -1.40480
C          4.27010        5.98860       -1.84600
C          4.69220        6.98710       -2.84510
C          4.41060        6.86700       -4.20550
C          3.67860        5.67890       -4.76340
C          2.36800        6.07540       -5.44320
C          4.83610        7.87640       -5.06040
C          5.50310        8.98890       -4.58660
C          5.78020        9.10320       -3.23560
C          5.38010        8.10290       -2.37310
C          5.12950        5.12660       -1.19340
S          4.33170        4.22990        0.09430
C          2.80540        4.85710       -0.39790
C          1.46460        4.57220       -0.12380
N          0.76090        3.66440        0.62270
C         -0.57370        3.80310        0.28690
C         -1.69930        3.00050        0.58640
N         -1.81020        1.74920        1.16610
C         -3.13880        1.41010        1.15700
C         -3.92050        0.28800        1.45340
S         -3.65480       -1.29560        2.08080
C         -0.80090        0.71820        1.29070
C         -0.60930        0.25490        2.73330
C          1.31220        3.13990        1.85220
C          1.77340        4.26380        2.77940
C          6.48030        4.79740       -1.52520
C          7.04540        3.52660       -1.55810
N          6.42890        2.31540       -1.27120
C          5.10600        2.03580       -1.62290
C          4.52990        2.58450       -2.76740
C          3.18910        2.38820       -3.03080
C          2.38450        1.64120       -2.17770
C          0.91660        1.50690       -2.44520
C          2.98010        1.04480       -1.07420
C          4.31880        1.23300       -0.79620
C          7.19590        1.34030       -0.60820
C          8.03560        1.70040        0.44150
C          8.80490        0.74400        1.07550
C          8.75050       -0.58890        0.69130
C          9.59300       -1.62720        1.36620
C          7.90080       -0.94120       -0.35250
C          7.13490        0.00540       -1.00050
C          8.39980        3.59560       -1.96180
S          9.63190        2.40640       -2.18080
C         10.77830        3.65540       -2.67820
C         10.22620        4.93920       -2.59870
N         10.91360        6.11940       -2.75620
C         12.21350        6.26650       -2.24360
C         13.14580        7.06140       -2.90950
C         14.42910        7.18220       -2.41880
C         14.82450        6.51370       -1.26520
C         16.22360        6.64620       -0.74950
C         13.88450        5.73600       -0.59920
C         12.59300        5.61510       -1.07270
C         10.27110        7.22920       -3.33040
C         10.49130        8.50900       -2.82600
C          9.92900        9.60250       -3.44860
C          9.12710        9.45590       -4.57620
C          8.58720       10.66680       -5.27230
C          8.86980        8.17300       -5.03940
C          9.43540        7.06860       -4.43100
C          8.85920        4.87350       -2.23330
S          7.60660        6.04980       -2.03270
C         12.03530        3.22170       -3.14940
C         12.55280        1.93490       -3.01550
C         13.77810        1.76420       -3.62680
C         14.23980        2.91160       -4.26620
C         15.46950        3.04300       -4.95140
C         15.97230        4.18180       -5.55560
C         15.32240        5.42580       -5.57900
N         14.84390        6.46980       -5.62600
C         17.22460        4.16150       -6.20060
N         18.24400        4.16690       -6.72760
C         16.27370        1.87510       -5.01790
N         16.91950        0.93020       -5.06740
S         13.09700        4.21940       -4.09190
H         -6.88600       -9.37530        2.99090
H        -11.74230       -6.56480        3.83050
H        -13.24480       -8.39440        3.18300
H        -12.39340      -11.23160        1.44470
H        -13.07060      -10.22440        0.17570
H        -13.80520      -10.22520        1.78600
H        -10.46430       -9.61500        0.18630
H         -8.95450       -7.80590        0.83590
H        -11.15620       -4.74180        1.30320
H        -12.24510       -2.60640        1.84950
H        -11.17740       -0.31670        4.32690
H        -12.52880       -0.72200        3.25680
H        -12.55140       -1.22000        4.95050
H        -10.09120       -2.44550        5.52880
H         -8.99740       -4.58880        4.97800
H         -4.96890       -3.74130       -0.50570
H         -4.02950       -2.49660       -2.39630
H         -1.85840       -1.97760       -3.66190
H         -0.42180       -1.58380       -2.70870
H         -1.84130       -0.53230       -2.65900
H         -0.22520       -2.42840       -0.47070
H         -1.17230       -3.62190        1.44960
H         -1.91470       -6.13210        0.81070
H         -0.63880       -7.74100        2.15490
H         -1.27620       -9.09760        4.82830
H         -0.63670       -7.82230        5.86320
H          0.24930       -8.32180        4.41340
H         -2.53220       -6.29940        5.69420
H         -3.79100       -4.66950        4.35840
H         -6.97370       -2.05940       -0.79210
H         -9.30830       -2.30380       -1.55340
H        -11.11490       -1.13150       -0.34060
H        -10.57660        0.27070        1.60290
H         -9.05790        1.34520        2.97200
H         -7.34770        1.40300        2.54570
H         -7.75690        0.46340        4.84490
H         -6.92190       -0.68090        3.79430
H         -8.64120       -0.88300        4.10730
H          4.32070        5.17550       -5.49310
H          3.46590        4.97630       -3.95840
H          2.54970        6.72970       -6.29180
H          1.84810        5.18910       -5.80030
H          1.72100        6.59610       -4.74200
H          4.63900        7.78430       -6.11870
H          5.80380        9.76660       -5.27120
H          6.30680        9.96400       -2.85280
H          5.58650        8.18340       -1.31530
H          0.13080        1.08890        0.86290
H         -1.12880       -0.14340        0.69510
H          0.20060       -0.46770        2.77810
H         -0.37570        1.08290        3.39860
H         -1.51460       -0.22280        3.09660
H          0.54020        2.57150        2.36160
H          2.15950        2.48830        1.61200
H          0.94950        4.94420        2.98500
H          2.58910        4.82700        2.33550
H          2.11970        3.84000        3.71810
H          5.13680        3.17580       -3.43730
H          2.75000        2.82270       -3.91700
H          0.73950        1.18590       -3.47050
H          0.42050        2.46900       -2.30990
H          0.45990        0.78780       -1.76960
H          2.38500        0.43350       -0.40920
H          4.75770        0.78970        0.08520
H          8.07820        2.73230        0.75920
H          9.45330        1.04020        1.88740
H         10.41720       -1.92120        0.71600
H          9.00660       -2.51830        1.58180
H         10.01020       -1.24720        2.29530
H          7.84740       -1.97320       -0.66790
H          6.48720       -0.27950       -1.81640
H         12.86990        7.55690       -3.82680
H         15.14170        7.78760       -2.95780
H         16.93360        6.69140       -1.57250
H         16.48280        5.81120       -0.10300
H         16.32360        7.56610       -0.17250
H         14.16520        5.21680        0.30600
H         11.87560        5.01020       -0.53720
H         11.11580        8.63850       -1.95470
H         10.12180       10.59170       -3.05920
H          7.90210       11.21000       -4.62250
H          9.40070       11.34310       -5.53170
H          8.06340       10.39140       -6.18360
H          8.23680        8.03180       -5.90290
H          9.25520        6.07910       -4.82550
H         12.03600        1.16720       -2.46740
H         14.34060        0.84710       -3.61200
